REMARK  Name = ZINC01821708
REMARK  7 active torsions:
REMARK  status: ('A' for Active; 'I' for Inactive)
REMARK    1  A    between atoms: C_1  and  C_2
REMARK    2  A    between atoms: C_2  and  N_3
REMARK    3  A    between atoms: N_3  and  C_4
REMARK    4  A    between atoms: C_4  and  N_6
REMARK    5  A    between atoms: N_6  and  N_7
REMARK    6  A    between atoms: N_14  and  C_15
REMARK    7  A    between atoms: C_20  and  C_21
REMARK                            x       y       z     vdW  Elec       q    Type
REMARK                         _______ _______ _______ _____ _____    ______ ____
ROOT
ATOM      1  N   UNL     1      -2.408   1.055   2.378  0.00  0.00    -0.234 N 
ATOM      2  C   UNL     1      -3.008   0.687   1.202  0.00  0.00    +0.220 A 
ATOM      3  N   UNL     1      -4.130  -0.000   1.240  0.00  0.00    -0.214 NA
ATOM      4  C   UNL     1      -4.743  -0.380   0.114  0.00  0.00    +0.084 A 
ATOM      5  C   UNL     1      -4.211  -0.024  -1.116  0.00  0.00    +0.050 A 
ATOM      6  C   UNL     1      -3.017   0.707  -1.150  0.00  0.00    +0.264 A 
ATOM      7  O   UNL     1      -2.515   1.033  -2.214  0.00  0.00    -0.267 OA
ATOM      8  N   UNL     1      -2.429   1.040   0.020  0.00  0.00    -0.247 N 
ATOM      9  C   UNL     1      -4.913  -0.404  -2.391  0.00  0.00    +0.007 C 
ATOM     10  C   UNL     1      -3.893  -0.450  -3.534  0.00  0.00    +0.012 C 
ATOM     11  C   UNL     1      -4.602  -0.832  -4.834  0.00  0.00    +0.001 C 
ATOM     12  C   UNL     1      -5.675   0.211  -5.156  0.00  0.00    +0.000 C 
ATOM     13  C   UNL     1      -6.692   0.264  -4.015  0.00  0.00    +0.001 C 
ATOM     14  C   UNL     1      -5.982   0.644  -2.714  0.00  0.00    +0.012 C 
ATOM     15  C   UNL     1      -5.574  -1.774  -2.251  0.00  0.00    +0.047 C 
ATOM     16  C   UNL     1      -6.412  -1.835  -1.002  0.00  0.00    -0.037 A 
ATOM     17  C   UNL     1      -5.996  -1.168   0.149  0.00  0.00    +0.004 A 
ATOM     18  C   UNL     1      -6.757  -1.244   1.313  0.00  0.00    +0.010 A 
ATOM     19  C   UNL     1      -7.930  -1.971   1.316  0.00  0.00    +0.001 A 
ATOM     20  C   UNL     1      -8.347  -2.620   0.168  0.00  0.00    +0.000 A 
ATOM     21  C   UNL     1      -7.590  -2.553  -0.988  0.00  0.00    +0.004 A 
ATOM     22  H   UNL     1      -1.581   1.562   2.362  0.00  0.00    +0.173 HD
ENDROOT
BRANCH   8  23
ATOM     23  C   UNL     1      -1.224   1.754   0.017  0.00  0.00    +0.056 A 
ATOM     24  C   UNL     1      -0.013   1.076   0.008  0.00  0.00    +0.026 A 
ATOM     25  C   UNL     1       1.173   1.783   0.000  0.00  0.00    +0.002 A 
ATOM     26  C   UNL     1       1.155   3.166   0.007  0.00  0.00    +0.000 A 
ATOM     27  C   UNL     1      -0.049   3.845   0.023  0.00  0.00    +0.005 A 
ATOM     28  C   UNL     1      -1.239   3.143   0.031  0.00  0.00    -0.026 A 
ATOM     29  C   UNL     1      -2.551   3.883   0.048  0.00  0.00    +0.046 C 
ENDBRANCH   8  23
BRANCH   1  30
ATOM     30  N   UNL     1      -2.990   0.701   3.602  0.00  0.00    -0.246 N 
ATOM     31  H   UNL     1      -3.817   0.195   3.617  0.00  0.00    +0.172 HD
BRANCH  30  32
ATOM     32  C   UNL     1      -2.400   1.063   4.758  0.00  0.00    +0.147 C 
ATOM     33  S   UNL     1      -3.111   0.630   6.254  0.00  0.00    -0.017 S 
BRANCH  32  34
ATOM     34  N   UNL     1      -1.250   1.766   4.737  0.00  0.00    -0.326 N 
ATOM     35  H   UNL     1      -0.847   2.012   3.889  0.00  0.00    +0.148 HD
BRANCH  34  37
ATOM     36  C   UNL     1       0.670   2.942   5.691  0.00  0.00    +0.024 C 
ATOM     37  C   UNL     1      -0.609   2.160   5.994  0.00  0.00    +0.100 C 
ENDBRANCH  34  37
ENDBRANCH  32  34
ENDBRANCH  30  32
ENDBRANCH   1  30
TORSDOF 5
