REMARK  Name = ZINC62467504
REMARK  7 active torsions:
REMARK  status: ('A' for Active; 'I' for Inactive)
REMARK    1  A    between atoms: C_1  and  C_2
REMARK    2  A    between atoms: C_2  and  C_3
REMARK    3  A    between atoms: C_3  and  O_4
REMARK    4  A    between atoms: O_4  and  C_5
REMARK    5  A    between atoms: C_8  and  C_12
REMARK    6  A    between atoms: C_10  and  N_11
REMARK    7  A    between atoms: C_13  and  C_18
REMARK                            x       y       z     vdW  Elec       q    Type
REMARK                         _______ _______ _______ _____ _____    ______ ____
ROOT
ATOM      1  C   UNL     1       0.430  -3.317   2.592  0.00  0.00    +0.141 A 
ATOM      2  C   UNL     1       1.108  -2.390   3.369  0.00  0.00    +0.048 A 
ATOM      3  C   UNL     1       1.986  -2.814   4.345  0.00  0.00    +0.014 A 
ATOM      4  C   UNL     1       2.196  -4.178   4.552  0.00  0.00    +0.004 A 
ATOM      5  C   UNL     1       1.515  -5.112   3.771  0.00  0.00    +0.036 A 
ATOM      6  C   UNL     1       0.629  -4.683   2.798  0.00  0.00    +0.067 A 
ENDROOT
BRANCH   4   7
ATOM      7  C   UNL     1       3.139  -4.633   5.597  0.00  0.00    +0.094 A 
ATOM      8  C   UNL     1       4.065  -5.664   5.370  0.00  0.00    +0.129 A 
ATOM      9  S   UNL     1       4.877  -5.732   6.959  0.00  0.00    -0.045 S 
ATOM     10  C   UNL     1       4.010  -4.509   7.722  0.00  0.00    +0.157 A 
ATOM     11  N   UNL     1       3.167  -4.092   6.797  0.00  0.00    -0.224 NA
ATOM     12  N   UNL     1       4.152  -4.047   9.012  0.00  0.00    -0.337 N 
ATOM     13  H   UNL     1       4.819  -4.440   9.597  0.00  0.00    +0.144 HD
ATOM     14  H   UNL     1       3.584  -3.330   9.335  0.00  0.00    +0.144 HD
BRANCH   8  15
ATOM     15  C   UNL     1       4.290  -6.431   4.211  0.00  0.00    +0.395 C 
ATOM     16  O   UNL     1       3.861  -5.992   3.027  0.00  0.00    -0.240 OA
ATOM     17  O   UNL     1       4.931  -7.596   4.297  0.00  0.00    -0.240 OA
ENDBRANCH   8  15
ENDBRANCH   4   7
BRANCH   6  18
ATOM     18  N   UNL     1      -0.060  -5.617   2.016  0.00  0.00    -0.355 N 
ATOM     19  H   UNL     1      -0.677  -5.315   1.331  0.00  0.00    +0.142 HD
ATOM     20  H   UNL     1       0.079  -6.566   2.159  0.00  0.00    +0.142 HD
ENDBRANCH   6  18
BRANCH   1  21
ATOM     21  O   UNL     1      -0.435  -2.895   1.632  0.00  0.00    -0.490 OA
BRANCH  21  22
ATOM     22  C   UNL     1      -0.592  -1.484   1.476  0.00  0.00    +0.229 C 
BRANCH  22  24
ATOM     23  C   UNL     1      -1.765   0.308   0.189  0.00  0.00    +0.007 C 
ATOM     24  C   UNL     1      -1.597  -1.203   0.357  0.00  0.00    +0.038 C 
ENDBRANCH  22  24
ENDBRANCH  21  22
ENDBRANCH   1  21
TORSDOF 6
