REMARK  Name = ZINC05546275
REMARK  6 active torsions:
REMARK  status: ('A' for Active; 'I' for Inactive)
REMARK    1  A    between atoms: C_1  and  C_2
REMARK    2  A    between atoms: C_5  and  C_8
REMARK    3  A    between atoms: N_14  and  C_21
REMARK    4  A    between atoms: C_16  and  C_17
REMARK    5  A    between atoms: C_28  and  N_32
REMARK    6  A    between atoms: C_29  and  C_30
REMARK                            x       y       z     vdW  Elec       q    Type
REMARK                         _______ _______ _______ _____ _____    ______ ____
ROOT
ATOM      1  C   UNL     1       1.151   3.592   0.010  0.00  0.00    +0.079 C 
ATOM      2  C   UNL     1       1.982   4.132  -1.140  0.00  0.00    +0.118 C 
ATOM      3  C   UNL     1       3.460   3.729  -0.803  0.00  0.00    +0.294 C 
ATOM      4  N   UNL     1       4.020   3.889  -2.146  0.00  0.00    -0.185 N 
ATOM      5  N   UNL     1       3.009   3.370  -2.995  0.00  0.00    -0.176 NA
ATOM      6  C   UNL     1       1.828   3.468  -2.475  0.00  0.00    +0.148 C 
ATOM      7  O   UNL     1       3.872   4.621   0.214  0.00  0.00    -0.455 OA
ATOM      8  C   UNL     1       3.057   4.605   1.306  0.00  0.00    +0.194 C 
ATOM      9  C   UNL     1       1.793   4.116   1.281  0.00  0.00    +0.094 C 
ENDROOT
BRANCH   1  14
ATOM     10  C   UNL     1       1.230  -2.186  -0.019  0.00  0.00    +0.044 C 
ATOM     11  C   UNL     1       1.209  -0.679  -0.011  0.00  0.00    -0.050 A 
ATOM     12  C   UNL     1       2.041   0.028  -0.860  0.00  0.00    +0.003 A 
ATOM     13  C   UNL     1       2.022   1.410  -0.853  0.00  0.00    +0.004 A 
ATOM     14  C   UNL     1       1.171   2.086   0.002  0.00  0.00    -0.038 A 
ATOM     15  C   UNL     1       0.340   1.379   0.851  0.00  0.00    +0.004 A 
ATOM     16  C   UNL     1       0.359  -0.004   0.844  0.00  0.00    +0.003 A 
ENDBRANCH   1  14
BRANCH   4  17
ATOM     17  C   UNL     1       5.258   4.424  -2.507  0.00  0.00    +0.055 A 
ATOM     18  C   UNL     1       6.126   4.893  -1.528  0.00  0.00    +0.025 A 
ATOM     19  C   UNL     1       7.351   5.418  -1.887  0.00  0.00    +0.002 A 
ATOM     20  C   UNL     1       7.711   5.487  -3.221  0.00  0.00    +0.000 A 
ATOM     21  C   UNL     1       6.848   5.026  -4.198  0.00  0.00    +0.002 A 
ATOM     22  C   UNL     1       5.623   4.495  -3.846  0.00  0.00    +0.025 A 
ENDBRANCH   4  17
BRANCH   6  23
ATOM     23  C   UNL     1       0.536   3.003  -3.095  0.00  0.00    +0.432 C 
ATOM     24  F   UNL     1       0.798   2.435  -4.346  0.00  0.00    -0.165 F 
ATOM     25  F   UNL     1      -0.062   2.048  -2.266  0.00  0.00    -0.165 F 
ATOM     26  F   UNL     1      -0.327   4.093  -3.249  0.00  0.00    -0.165 F 
ENDBRANCH   6  23
BRANCH   8  27
ATOM     27  N   UNL     1       3.540   5.107   2.488  0.00  0.00    -0.329 N 
ATOM     28  H   UNL     1       2.980   5.107   3.280  0.00  0.00    +0.145 HD
ATOM     29  H   UNL     1       4.441   5.463   2.531  0.00  0.00    +0.145 HD
ENDBRANCH   8  27
BRANCH   9  30
ATOM     30  C   UNL     1       1.037   4.095   2.497  0.00  0.00    +0.100 C 
ATOM     31  N   UNL     1       0.438   4.077   3.462  0.00  0.00    -0.191 NA
ENDBRANCH   9  30
TORSDOF 5
