REMARK  Name = ZINC49474198
REMARK  0 active torsions:
REMARK  status: ('A' for Active; 'I' for Inactive)
REMARK                            x       y       z     vdW  Elec       q    Type
REMARK                         _______ _______ _______ _____ _____    ______ ____
ROOT
ATOM      1  C   UNL     1      -0.017   1.389   0.010  0.00  0.00    +0.222 C 
ATOM      2  N   UNL     1       1.098   2.043   0.003  0.00  0.00    -0.172 NA
ATOM      3  N   UNL     1       2.313   1.342  -0.013  0.00  0.00    -0.213 N 
ATOM      4  C   UNL     1       2.315  -0.022  -0.320  0.00  0.00    +0.201 C 
ATOM      5  N   UNL     1       1.191  -0.679  -0.313  0.00  0.00    -0.157 NA
ATOM      6  N   UNL     1       0.002  -0.004   0.002  0.00  0.00    -0.223 N 
ATOM      7  S   UNL     1       3.824  -0.844  -0.712  0.00  0.00    -0.011 SA
ATOM      8  H   UNL     1       3.144   1.799   0.187  0.00  0.00    +0.177 HD
ATOM      9  H   UNL     1      -0.802  -0.504   0.213  0.00  0.00    +0.176 HD
ENDROOT
TORSDOF 0
