REMARK  Name = ZINC06049145
REMARK  4 active torsions:
REMARK  status: ('A' for Active; 'I' for Inactive)
REMARK    1  A    between atoms: C_9  and  O_25
REMARK    2  A    between atoms: C_10  and  C_11
REMARK    3  A    between atoms: N_12  and  N_13
REMARK    4  A    between atoms: C_17  and  C_20
REMARK                            x       y       z     vdW  Elec       q    Type
REMARK                         _______ _______ _______ _____ _____    ______ ____
ROOT
ATOM      1  C   UNL     1       4.982   0.093  -0.046  0.00  0.00    +0.142 C 
ATOM      2  N   UNL     1       6.110  -0.555  -0.060  0.00  0.00    -0.189 NA
ENDROOT
BRANCH   1  12
ATOM      3  C   UNL     1      -0.016   1.357   0.009  0.00  0.00    +0.001 A 
ATOM      4  C   UNL     1       1.168   2.091   0.002  0.00  0.00    +0.001 A 
ATOM      5  C   UNL     1       2.379   1.466  -0.013  0.00  0.00    +0.009 A 
ATOM      6  C   UNL     1       2.435   0.067  -0.021  0.00  0.00    -0.006 A 
ATOM      7  C   UNL     1       1.233  -0.683  -0.013  0.00  0.00    -0.017 A 
ATOM      8  C   UNL     1       0.002  -0.004   0.002  0.00  0.00    +0.008 A 
ATOM      9  C   UNL     1       1.292  -2.087  -0.021  0.00  0.00    +0.012 A 
ATOM     10  C   UNL     1       2.488  -2.733  -0.035  0.00  0.00    +0.046 A 
ATOM     11  C   UNL     1       3.697  -2.040  -0.043  0.00  0.00    +0.126 A 
ATOM     12  C   UNL     1       3.711  -0.645  -0.037  0.00  0.00    +0.044 A 
BRANCH  11  13
ATOM     13  O   UNL     1       4.868  -2.727  -0.056  0.00  0.00    -0.506 OA
ATOM     14  H   UNL     1       5.199  -2.922  -0.944  0.00  0.00    +0.292 HD
ENDBRANCH  11  13
ENDBRANCH   1  12
BRANCH   2  15
ATOM     15  N   UNL     1       7.321   0.149  -0.068  0.00  0.00    -0.220 N 
ATOM     16  C   UNL     1       8.526  -0.543  -0.083  0.00  0.00    +0.156 A 
ATOM     17  C   UNL     1       9.728   0.162  -0.086  0.00  0.00    +0.083 A 
ATOM     18  C   UNL     1      10.920  -0.541  -0.100  0.00  0.00    +0.037 A 
ATOM     19  C   UNL     1      10.871  -1.929  -0.113  0.00  0.00    +0.074 A 
ATOM     20  C   UNL     1       9.644  -2.563  -0.109  0.00  0.00    +0.125 A 
ATOM     21  N   UNL     1       8.523  -1.868  -0.090  0.00  0.00    -0.237 NA
ATOM     22 CL   UNL     1       9.729   1.898  -0.071  0.00  0.00    -0.080 Cl
ATOM     23  H   UNL     1       7.319   1.119  -0.063  0.00  0.00    +0.176 HD
BRANCH  19  24
ATOM     24  C   UNL     1      12.144  -2.735  -0.129  0.00  0.00    +0.419 C 
ATOM     25  F   UNL     1      12.547  -2.997   1.185  0.00  0.00    -0.166 F 
ATOM     26  F   UNL     1      11.921  -3.944  -0.798  0.00  0.00    -0.166 F 
ATOM     27  F   UNL     1      13.144  -2.014  -0.790  0.00  0.00    -0.166 F 
ENDBRANCH  19  24
ENDBRANCH   2  15
TORSDOF 4
