REMARK  Name = ZINC39664316
REMARK  9 active torsions:
REMARK  status: ('A' for Active; 'I' for Inactive)
REMARK    1  A    between atoms: C_1  and  C_2
REMARK    2  A    between atoms: C_2  and  C_3
REMARK    3  A    between atoms: C_3  and  C_5
REMARK    4  A    between atoms: C_3  and  C_6
REMARK    5  A    between atoms: C_10  and  C_19
REMARK    6  A    between atoms: N_21  and  C_22
REMARK    7  A    between atoms: C_22  and  C_23
REMARK    8  A    between atoms: C_23  and  C_25
REMARK    9  A    between atoms: C_23  and  N_31
REMARK                            x       y       z     vdW  Elec       q    Type
REMARK                         _______ _______ _______ _____ _____    ______ ____
ROOT
ATOM      1  C   UNL     1      -1.175  -4.155  -0.602  0.00  0.00    +0.218 C 
ATOM      2  O   UNL     1      -0.286  -4.904  -0.947  0.00  0.00    -0.275 OA
ATOM      3  N   UNL     1      -2.459  -4.560  -0.662  0.00  0.00    -0.300 N 
ATOM      4  C   UNL     1      -3.672  -3.792  -0.293  0.00  0.00    +0.121 C 
ATOM      5  C   UNL     1      -4.714  -4.167  -1.371  0.00  0.00    +0.100 C 
ATOM      6  C   UNL     1      -4.254  -5.535  -1.902  0.00  0.00    -0.004 C 
ATOM      7  C   UNL     1      -2.978  -5.872  -1.117  0.00  0.00    +0.115 C 
ATOM      8  C   UNL     1      -3.940  -5.445  -3.392  0.00  0.00    -0.010 C 
ATOM      9  C   UNL     1      -3.540  -6.829  -3.910  0.00  0.00    -0.082 C 
ATOM     10  N   UNL     1      -4.637  -7.777  -3.676  0.00  0.00    +0.379 N 
ATOM     11  C   UNL     1      -4.870  -7.928  -2.235  0.00  0.00    -0.082 C 
ATOM     12  C   UNL     1      -5.326  -6.590  -1.647  0.00  0.00    -0.010 C 
ATOM     13  H   UNL     1      -5.476  -7.432  -4.117  0.00  0.00    -0.086 HD
ATOM     14  H   UNL     1      -4.395  -8.673  -4.072  0.00  0.00    -0.086 HD
ENDROOT
BRANCH   5  15
ATOM     15  C   UNL     1      -6.087  -4.274  -0.758  0.00  0.00    +0.218 C 
ATOM     16  O   UNL     1      -6.212  -4.648   0.389  0.00  0.00    -0.275 OA
ATOM     17  N   UNL     1      -7.176  -3.955  -1.485  0.00  0.00    -0.313 N 
ATOM     18  H   UNL     1      -7.076  -3.656  -2.402  0.00  0.00    +0.149 HD
BRANCH  17  19
ATOM     19  C   UNL     1      -8.510  -4.059  -0.890  0.00  0.00    +0.127 C 
BRANCH  19  20
ATOM     20  C   UNL     1      -9.562  -3.642  -1.919  0.00  0.00    +0.104 C 
BRANCH  20  21
ATOM     21  C   UNL     1     -10.923  -3.631  -1.271  0.00  0.00    -0.029 A 
ATOM     22  C   UNL     1     -11.985  -4.269  -1.884  0.00  0.00    +0.005 A 
ATOM     23  C   UNL     1     -13.233  -4.259  -1.290  0.00  0.00    +0.000 A 
ATOM     24  C   UNL     1     -13.419  -3.611  -0.083  0.00  0.00    +0.000 A 
ATOM     25  C   UNL     1     -12.356  -2.974   0.531  0.00  0.00    +0.000 A 
ATOM     26  C   UNL     1     -11.107  -2.988  -0.062  0.00  0.00    +0.005 A 
ENDBRANCH  20  21
BRANCH  20  27
ATOM     27  N   UNL     1      -9.248  -2.298  -2.422  0.00  0.00    -0.290 NA
ATOM     28  C   UNL     1      -9.305  -1.304  -1.340  0.00  0.00    +0.113 C 
ATOM     29  C   UNL     1      -8.914   0.069  -1.894  0.00  0.00    +0.175 C 
ATOM     30  O   UNL     1      -9.781   0.403  -2.982  0.00  0.00    -0.377 OA
ATOM     31  C   UNL     1      -9.751  -0.544  -4.053  0.00  0.00    +0.175 C 
ATOM     32  C   UNL     1     -10.150  -1.923  -3.521  0.00  0.00    +0.113 C 
ENDBRANCH  20  27
ENDBRANCH  19  20
ENDBRANCH  17  19
ENDBRANCH   5  15
BRANCH   1  33
ATOM     33  C   UNL     1      -0.844  -2.771  -0.106  0.00  0.00    +0.072 C 
ATOM     34  C   UNL     1      -1.350  -2.608   1.329  0.00  0.00    +0.017 C 
BRANCH  33  36
ATOM     35  C   UNL     1       1.000  -1.122   0.246  0.00  0.00    +0.004 C 
ATOM     36  C   UNL     1       0.672  -2.566  -0.138  0.00  0.00    +0.009 C 
ENDBRANCH  33  36
ENDBRANCH   1  33
TORSDOF 7
