REMARK  Name = ZINC49508595
REMARK  12 active torsions:
REMARK  status: ('A' for Active; 'I' for Inactive)
REMARK    1  A    between atoms: C_1  and  C_2
REMARK    2  A    between atoms: C_2  and  C_3
REMARK    3  A    between atoms: C_2  and  C_4
REMARK    4  A    between atoms: C_13  and  N_16
REMARK    5  A    between atoms: C_17  and  C_19
REMARK    6  A    between atoms: N_21  and  C_22
REMARK    7  A    between atoms: C_22  and  C_23
REMARK    8  A    between atoms: C_23  and  C_25
REMARK    9  A    between atoms: C_23  and  N_36
REMARK   10  A    between atoms: N_34  and  C_35
REMARK   11  A    between atoms: N_36  and  C_37
REMARK   12  A    between atoms: N_36  and  C_38
REMARK                            x       y       z     vdW  Elec       q    Type
REMARK                         _______ _______ _______ _____ _____    ______ ____
ROOT
ATOM      1  C   UNL     1      -8.798  -0.974   1.603  0.00  0.00    +0.299 C 
ATOM      2  O   UNL     1      -8.632   0.228   1.595  0.00  0.00    -0.265 OA
ATOM      3  N   UNL     1     -10.032  -1.482   1.789  0.00  0.00    -0.309 N 
ATOM      4  H   UNL     1     -10.165  -2.443   1.796  0.00  0.00    +0.149 HD
ENDROOT
BRANCH   1   6
ATOM      5  N   UNL     1      -6.400  -1.381   1.224  0.00  0.00    -0.278 N 
ATOM      6  C   UNL     1      -7.635  -1.890   1.409  0.00  0.00    +0.303 C 
ATOM      7  O   UNL     1      -7.801  -3.092   1.418  0.00  0.00    -0.265 OA
ATOM      8  H   UNL     1      -6.255  -0.425   1.291  0.00  0.00    +0.155 HD
BRANCH   5  18
ATOM      9  C   UNL     1      -1.465  -1.253   2.119  0.00  0.00    +0.222 C 
ATOM     10  O   UNL     1      -2.303  -0.379   2.050  0.00  0.00    -0.275 OA
ATOM     11  N   UNL     1      -1.724  -2.475   1.614  0.00  0.00    -0.271 N 
ATOM     12  C   UNL     1      -0.674  -3.503   1.573  0.00  0.00    +0.114 C 
ATOM     13  C   UNL     1      -0.728  -4.172   0.193  0.00  0.00    +0.024 C 
ATOM     14  C   UNL     1      -2.076  -4.873   0.035  0.00  0.00    +0.038 C 
ATOM     15  C   UNL     1      -3.204  -3.928   0.356  0.00  0.00    -0.026 A 
ATOM     16  C   UNL     1      -2.999  -2.789   1.124  0.00  0.00    +0.041 A 
ATOM     17  C   UNL     1      -4.060  -1.941   1.413  0.00  0.00    +0.047 A 
ATOM     18  C   UNL     1      -5.330  -2.232   0.935  0.00  0.00    +0.036 A 
ATOM     19  C   UNL     1      -5.534  -3.374   0.169  0.00  0.00    +0.024 A 
ATOM     20  C   UNL     1      -4.472  -4.211  -0.125  0.00  0.00    +0.007 A 
BRANCH   9  22
ATOM     21  C   UNL     1      -0.101   0.479   3.253  0.00  0.00    +0.017 C 
ATOM     22  C   UNL     1      -0.135  -0.972   2.769  0.00  0.00    +0.069 C 
ATOM     23  C   UNL     1       0.060  -1.912   3.960  0.00  0.00    +0.017 C 
ENDBRANCH   9  22
ENDBRANCH   5  18
ENDBRANCH   1   6
BRANCH   3  24
ATOM     24  C   UNL     1     -11.174  -0.584   1.979  0.00  0.00    +0.094 C 
BRANCH  24  25
ATOM     25  C   UNL     1     -12.463  -1.404   2.043  0.00  0.00    -0.021 C 
BRANCH  25  26
ATOM     26  C   UNL     1     -12.440  -2.283   3.267  0.00  0.00    -0.059 A 
ATOM     27  C   UNL     1     -12.762  -1.753   4.504  0.00  0.00    +0.004 A 
ATOM     28  C   UNL     1     -12.739  -2.557   5.625  0.00  0.00    +0.023 A 
ATOM     29  C   UNL     1     -12.393  -3.899   5.511  0.00  0.00    +0.033 A 
ATOM     30  C   UNL     1     -12.073  -4.431   4.272  0.00  0.00    -0.026 A 
ATOM     31  C   UNL     1     -12.102  -3.617   3.151  0.00  0.00    +0.007 A 
ATOM     32  C   UNL     1     -11.704  -5.882   4.109  0.00  0.00    +0.038 C 
ATOM     33  C   UNL     1     -11.247  -6.471   5.444  0.00  0.00    +0.024 C 
ATOM     34  C   UNL     1     -12.303  -6.157   6.511  0.00  0.00    +0.105 C 
ATOM     35  N   UNL     1     -12.370  -4.697   6.661  0.00  0.00    -0.333 N 
ATOM     36  C   UNL     1     -12.413  -4.086   7.992  0.00  0.00    +0.129 C 
ENDBRANCH  25  26
BRANCH  25  37
ATOM     37  N   UNL     1     -13.617  -0.498   2.114  0.00  0.00    +0.382 N 
ATOM     38  C   UNL     1     -13.706   0.279   0.870  0.00  0.00    -0.096 C 
ATOM     39  C   UNL     1     -14.847  -1.282   2.290  0.00  0.00    -0.096 C 
ATOM     40  H   UNL     1     -13.505   0.131   2.895  0.00  0.00    -0.082 HD
ENDBRANCH  25  37
ENDBRANCH  24  25
ENDBRANCH   3  24
TORSDOF 7
