REMARK  Name = ZINC13720855
REMARK  7 active torsions:
REMARK  status: ('A' for Active; 'I' for Inactive)
REMARK    1  A    between atoms: C_1  and  O_2
REMARK    2  A    between atoms: O_2  and  C_3
REMARK    3  A    between atoms: C_6  and  S_9
REMARK    4  A    between atoms: S_9  and  N_12
REMARK    5  A    between atoms: C_16  and  C_19
REMARK    6  A    between atoms: C_19  and  C_20
REMARK    7  A    between atoms: N_22  and  C_23
REMARK                            x       y       z     vdW  Elec       q    Type
REMARK                         _______ _______ _______ _____ _____    ______ ____
ROOT
ATOM      1  N   UNL     1       1.575  -2.904   5.684  0.00  0.00    -0.103 NA
ATOM      2  C   UNL     1       1.906  -3.493   6.807  0.00  0.00    +0.192 A 
ATOM      3  N   UNL     1       1.122  -3.798   7.898  0.00  0.00    -0.336 N 
ATOM      4  H   UNL     1       0.178  -3.575   7.909  0.00  0.00    +0.168 HD
ATOM      5  C   UNL     1       1.703  -4.421   8.963  0.00  0.00    +0.033 A 
ATOM      6  C   UNL     1       3.001  -4.723   8.938  0.00  0.00    +0.070 A 
ATOM      7  S   UNL     1       3.494  -4.123   7.330  0.00  0.00    -0.057 S 
ENDROOT
BRANCH   1   8
ATOM      8  S   UNL     1       2.717  -2.656   4.511  0.00  0.00    +0.101 S 
ATOM      9  O   UNL     1       3.103  -3.941   4.043  0.00  0.00    -0.146 OA
ATOM     10  O   UNL     1       3.651  -1.727   5.043  0.00  0.00    -0.146 OA
BRANCH   8  14
ATOM     11  C   UNL     1       0.655  -0.584   1.052  0.00  0.00    +0.120 A 
ATOM     12  C   UNL     1       1.236   0.165   2.065  0.00  0.00    +0.047 A 
ATOM     13  C   UNL     1       1.864  -0.469   3.119  0.00  0.00    +0.032 A 
ATOM     14  C   UNL     1       1.914  -1.850   3.165  0.00  0.00    +0.113 A 
ATOM     15  C   UNL     1       1.337  -2.599   2.157  0.00  0.00    +0.032 A 
ATOM     16  C   UNL     1       0.702  -1.970   1.104  0.00  0.00    +0.047 A 
BRANCH  11  18
ATOM     17  C   UNL     1       0.026   1.467   0.027  0.00  0.00    +0.277 C 
ATOM     18  O   UNL     1       0.036   0.038   0.014  0.00  0.00    -0.495 OA
ENDBRANCH  11  18
ENDBRANCH   8  14
ENDBRANCH   1   8
BRANCH   5  19
ATOM     19  C   UNL     1       0.874  -4.769  10.174  0.00  0.00    +0.149 C 
BRANCH  19  20
ATOM     20  C   UNL     1       0.803  -3.578  11.093  0.00  0.00    +0.223 C 
ATOM     21  O   UNL     1       1.369  -2.547  10.795  0.00  0.00    -0.275 OA
ATOM     22  N   UNL     1       0.110  -3.657  12.246  0.00  0.00    -0.285 N 
ATOM     23  H   UNL     1      -0.398  -4.458  12.453  0.00  0.00    +0.155 HD
BRANCH  22  24
ATOM     24  C   UNL     1       0.123  -2.585  13.146  0.00  0.00    +0.036 A 
ATOM     25  C   UNL     1       0.100  -2.824  14.513  0.00  0.00    +0.043 A 
ATOM     26  C   UNL     1       0.113  -1.764  15.399  0.00  0.00    +0.044 A 
ATOM     27  C   UNL     1       0.150  -0.464  14.925  0.00  0.00    +0.040 A 
ATOM     28  C   UNL     1       0.172  -0.223  13.562  0.00  0.00    +0.044 A 
ATOM     29  C   UNL     1       0.165  -1.281  12.672  0.00  0.00    +0.043 A 
ATOM     30 CL   UNL     1       0.218   1.408  12.971  0.00  0.00    -0.083 Cl
ATOM     31 CL   UNL     1       0.083  -2.062  17.110  0.00  0.00    -0.083 Cl
ENDBRANCH  22  24
ENDBRANCH  19  20
ENDBRANCH   5  19
TORSDOF 6
