REMARK  Name = ZINC06389751
REMARK  6 active torsions:
REMARK  status: ('A' for Active; 'I' for Inactive)
REMARK    1  A    between atoms: C_1  and  C_2
REMARK    2  A    between atoms: C_2  and  O_3
REMARK    3  A    between atoms: O_3  and  C_4
REMARK    4  A    between atoms: C_8  and  C_11
REMARK    5  A    between atoms: C_9  and  O_10
REMARK    6  A    between atoms: N_12  and  N_13
REMARK                            x       y       z     vdW  Elec       q    Type
REMARK                         _______ _______ _______ _____ _____    ______ ____
ROOT
ATOM      1  N   UNL     1       4.814   1.062  -0.039  0.00  0.00    -0.220 N 
ATOM      2  C   UNL     1       6.000   1.774  -0.047  0.00  0.00    +0.150 A 
ATOM      3  C   UNL     1       7.185   1.194  -0.580  0.00  0.00    +0.052 A 
ATOM      4  C   UNL     1       7.373  -0.134  -1.167  0.00  0.00    -0.025 A 
ATOM      5  C   UNL     1       8.611  -0.441  -1.603  0.00  0.00    -0.004 A 
ATOM      6  S   UNL     1       9.591   0.998  -1.265  0.00  0.00    -0.073 S 
ATOM      7  C   UNL     1       8.332   2.012  -0.535  0.00  0.00    +0.114 A 
ATOM      8  N   UNL     1       8.291   3.229  -0.029  0.00  0.00    -0.228 NA
ATOM      9  C   UNL     1       7.162   3.713   0.451  0.00  0.00    +0.224 A 
ATOM     10  N   UNL     1       6.047   3.005   0.437  0.00  0.00    -0.219 NA
ATOM     11  C   UNL     1       9.059  -1.723  -2.236  0.00  0.00    +0.043 C 
ATOM     12  C   UNL     1       7.985  -2.790  -1.982  0.00  0.00    +0.005 C 
ATOM     13  C   UNL     1       6.615  -2.198  -2.325  0.00  0.00    +0.005 C 
ATOM     14  C   UNL     1       6.232  -1.140  -1.289  0.00  0.00    +0.037 C 
ATOM     15  H   UNL     1       4.824   0.102  -0.175  0.00  0.00    +0.176 HD
ENDROOT
BRANCH   1  17
ATOM     16  C   UNL     1       2.486   1.062   0.172  0.00  0.00    +0.142 C 
ATOM     17  N   UNL     1       3.599   1.729   0.165  0.00  0.00    -0.189 NA
BRANCH  16  22
ATOM     18  C   UNL     1      -0.021   3.800   0.785  0.00  0.00    +0.162 A 
ATOM     19  C   UNL     1      -1.204   3.078   0.791  0.00  0.00    +0.049 A 
ATOM     20  C   UNL     1      -1.188   1.708   0.591  0.00  0.00    +0.004 A 
ATOM     21  C   UNL     1       0.007   1.048   0.396  0.00  0.00    +0.013 A 
ATOM     22  C   UNL     1       1.207   1.763   0.387  0.00  0.00    +0.040 A 
ATOM     23  C   UNL     1       1.190   3.149   0.584  0.00  0.00    +0.167 A 
BRANCH  23  24
ATOM     24  O   UNL     1       2.352   3.854   0.577  0.00  0.00    -0.503 OA
ATOM     25  H   UNL     1       2.608   4.181  -0.296  0.00  0.00    +0.292 HD
ENDBRANCH  23  24
BRANCH  18  26
ATOM     26  O   UNL     1      -0.045   5.146   0.977  0.00  0.00    -0.489 OA
BRANCH  26  28
ATOM     27  C   UNL     1      -1.152   7.257   1.375  0.00  0.00    +0.048 C 
ATOM     28  C   UNL     1      -1.325   5.750   1.178  0.00  0.00    +0.226 C 
ENDBRANCH  26  28
ENDBRANCH  18  26
ENDBRANCH  16  22
ENDBRANCH   1  17
TORSDOF 5
