REMARK  Name = ZINC44658067
REMARK  6 active torsions:
REMARK  status: ('A' for Active; 'I' for Inactive)
REMARK    1  A    between atoms: C_1  and  C_2
REMARK    2  A    between atoms: C_2  and  C_4
REMARK    3  A    between atoms: C_2  and  S_15
REMARK    4  A    between atoms: C_4  and  C_6
REMARK    5  A    between atoms: S_15  and  C_16
REMARK    6  A    between atoms: N_21  and  C_22
REMARK                            x       y       z     vdW  Elec       q    Type
REMARK                         _______ _______ _______ _____ _____    ______ ____
ROOT
ATOM      1  C   UNL     1      -0.019   1.526   0.010  0.00  0.00    +0.027 C 
ATOM      2  C   UNL     1       0.002  -0.004   0.002  0.00  0.00    +0.117 C 
ENDROOT
BRANCH   2   3
ATOM      3  C   UNL     1       0.707  -0.490  -1.238  0.00  0.00    +0.174 C 
ATOM      4  O   UNL     1       1.890  -0.763  -1.196  0.00  0.00    -0.291 OA
BRANCH   3   5
ATOM      5  C   UNL     1      -0.006  -0.628  -2.447  0.00  0.00    +0.024 C 
ATOM      6  C   UNL     1       0.486  -1.063  -3.664  0.00  0.00    +0.006 A 
ATOM      7  C   UNL     1       1.769  -1.486  -4.088  0.00  0.00    +0.010 A 
ATOM      8  C   UNL     1       1.972  -1.866  -5.369  0.00  0.00    +0.001 A 
ATOM      9  C   UNL     1       0.946  -1.863  -6.328  0.00  0.00    +0.002 A 
ATOM     10  C   UNL     1      -0.313  -1.478  -6.027  0.00  0.00    +0.026 A 
ATOM     11  C   UNL     1      -0.620  -1.048  -4.653  0.00  0.00    +0.043 A 
ATOM     12  N   UNL     1      -1.723  -0.635  -4.097  0.00  0.00    -0.380 N 
ATOM     13  C   UNL     1      -1.472  -0.337  -2.683  0.00  0.00    +0.152 C 
ATOM     14  H   UNL     1      -2.577  -0.542  -4.546  0.00  0.00    +0.160 HD
ENDBRANCH   3   5
ENDBRANCH   2   3
BRANCH   2  15
ATOM     15  S   UNL     1       0.879  -0.605   1.472  0.00  0.00    -0.105 S 
BRANCH  15  16
ATOM     16  C   UNL     1      -0.166  -0.072   2.855  0.00  0.00    +0.260 C 
ATOM     17  N   UNL     1      -1.539  -0.586   2.700  0.00  0.00    -0.218 N 
ATOM     18  N   UNL     1      -2.362   0.543   2.606  0.00  0.00    -0.063 NA
ATOM     19  N   UNL     1      -1.733   1.595   2.675  0.00  0.00    -0.056 NA
ATOM     20  N   UNL     1      -0.353   1.391   2.834  0.00  0.00    -0.174 N 
ATOM     21  H   UNL     1      -1.816  -1.515   2.670  0.00  0.00    +0.173 HD
BRANCH  20  22
ATOM     22  C   UNL     1       0.638   2.368   2.948  0.00  0.00    +0.056 A 
ATOM     23  C   UNL     1       1.969   1.996   3.095  0.00  0.00    +0.026 A 
ATOM     24  C   UNL     1       2.947   2.965   3.207  0.00  0.00    +0.022 A 
ATOM     25  C   UNL     1       2.602   4.305   3.174  0.00  0.00    +0.041 A 
ATOM     26  C   UNL     1       1.278   4.679   3.028  0.00  0.00    +0.022 A 
ATOM     27  C   UNL     1       0.296   3.715   2.910  0.00  0.00    +0.026 A 
ATOM     28 CL   UNL     1       3.834   5.520   3.316  0.00  0.00    -0.084 Cl
ENDBRANCH  20  22
ENDBRANCH  15  16
ENDBRANCH   2  15
TORSDOF 5
