REMARK  Name = ZINC03341408
REMARK  4 active torsions:
REMARK  status: ('A' for Active; 'I' for Inactive)
REMARK    1  A    between atoms: C_1  and  C_2
REMARK    2  A    between atoms: C_7  and  C_9
REMARK    3  A    between atoms: C_15  and  S_17
REMARK    4  A    between atoms: S_17  and  C_18
REMARK                            x       y       z     vdW  Elec       q    Type
REMARK                         _______ _______ _______ _____ _____    ______ ____
ROOT
ATOM      1  C   UNL     1      -2.930   3.818   0.050  0.00  0.00    +0.088 C 
ATOM      2  C   UNL     1      -3.337   2.367   0.046  0.00  0.00    +0.128 A 
ATOM      3  N   UNL     1      -4.619   2.057   0.057  0.00  0.00    -0.225 NA
ATOM      4  C   UNL     1      -5.001   0.795   0.054  0.00  0.00    +0.113 A 
ATOM      5  C   UNL     1      -4.059  -0.259   0.034  0.00  0.00    +0.041 A 
ATOM      6  C   UNL     1      -4.630  -1.590   0.040  0.00  0.00    +0.029 A 
ATOM      7  C   UNL     1      -5.978  -1.726   0.052  0.00  0.00    +0.022 A 
ATOM      8  S   UNL     1      -6.564  -0.042   0.065  0.00  0.00    -0.069 S 
ATOM      9  C   UNL     1      -2.693   0.144   0.029  0.00  0.00    +0.116 A 
ATOM     10  N   UNL     1      -2.402   1.435   0.033  0.00  0.00    -0.225 NA
ENDROOT
BRANCH   7  11
ATOM     11  C   UNL     1      -6.774  -2.972   0.054  0.00  0.00    -0.011 A 
ATOM     12  C   UNL     1      -6.133  -4.212   0.037  0.00  0.00    +0.009 A 
ATOM     13  C   UNL     1      -6.881  -5.372   0.046  0.00  0.00    +0.001 A 
ATOM     14  C   UNL     1      -8.263  -5.307   0.059  0.00  0.00    +0.000 A 
ATOM     15  C   UNL     1      -8.904  -4.081   0.071  0.00  0.00    +0.001 A 
ATOM     16  C   UNL     1      -8.168  -2.914   0.068  0.00  0.00    +0.009 A 
ENDBRANCH   7  11
BRANCH   9  17
ATOM     17  S   UNL     1      -1.408  -1.061   0.010  0.00  0.00    -0.030 S 
BRANCH  17  18
ATOM     18  C   UNL     1       0.002  -0.004   0.002  0.00  0.00    +0.190 A 
ATOM     19  N   UNL     1       1.293  -0.400  -0.013  0.00  0.00    -0.254 N 
ATOM     20  N   UNL     1       2.066   0.772  -0.014  0.00  0.00    -0.160 NA
ATOM     21  C   UNL     1       1.233   1.778  -0.000  0.00  0.00    +0.245 A 
ATOM     22  N   UNL     1      -0.016   1.312   0.009  0.00  0.00    -0.209 NA
ATOM     23  H   UNL     1       1.786  -1.384  -0.023  0.00  0.00    +0.191 HD
ENDBRANCH  17  18
ENDBRANCH   9  17
TORSDOF 3
