REMARK  Name = ZINC64093466
REMARK  7 active torsions:
REMARK  status: ('A' for Active; 'I' for Inactive)
REMARK    1  A    between atoms: C_1  and  C_2
REMARK    2  A    between atoms: C_5  and  C_8
REMARK    3  A    between atoms: N_10  and  C_11
REMARK    4  A    between atoms: C_11  and  C_12
REMARK    5  A    between atoms: C_12  and  C_13
REMARK    6  A    between atoms: N_21  and  C_24
REMARK    7  A    between atoms: C_24  and  C_25
REMARK                            x       y       z     vdW  Elec       q    Type
REMARK                         _______ _______ _______ _____ _____    ______ ____
ROOT
ATOM      1  C   UNL     1       0.127  -8.421   2.565  0.00  0.00    +0.118 C 
ATOM      2  N   UNL     1       0.137  -9.130   1.499  0.00  0.00    -0.175 NA
ATOM      3  N   UNL     1       0.116 -10.502   1.796  0.00  0.00    -0.247 N 
ATOM      4  C   UNL     1      -0.092 -10.565   3.243  0.00  0.00    +0.177 C 
ATOM      5  N   UNL     1       0.143  -9.212   3.728  0.00  0.00    -0.296 N 
ATOM      6  C   UNL     1       0.440  -8.657   5.031  0.00  0.00    +0.123 C 
ATOM      7  C   UNL     1       1.960  -8.714   5.276  0.00  0.00    +0.103 C 
ATOM      8  N   UNL     1       2.355 -10.099   5.260  0.00  0.00    -0.298 NA
ATOM      9  C   UNL     1       2.245 -10.821   4.012  0.00  0.00    +0.088 C 
ATOM     10  C   UNL     1       0.892 -11.542   3.918  0.00  0.00    +0.059 C 
ATOM     11  H   UNL     1       0.216 -11.243   1.179  0.00  0.00    +0.170 HD
ENDROOT
BRANCH   1  12
ATOM     12  C   UNL     1       0.107  -6.914   2.574  0.00  0.00    +0.092 C 
BRANCH  12  13
ATOM     13  C   UNL     1       0.093  -6.396   1.134  0.00  0.00    +0.112 C 
BRANCH  13  16
ATOM     14  C   UNL     1       0.059  -4.251  -0.021  0.00  0.00    +0.244 C 
ATOM     15  O   UNL     1       0.062  -4.853  -1.077  0.00  0.00    -0.270 OA
ATOM     16  N   UNL     1       0.074  -4.931   1.142  0.00  0.00    -0.311 N 
ATOM     17  H   UNL     1       0.072  -4.451   1.985  0.00  0.00    +0.149 HD
BRANCH  14  22
ATOM     18  C   UNL     1      -0.018   1.503   0.010  0.00  0.00    +0.044 C 
ATOM     19  C   UNL     1       0.002  -0.004   0.002  0.00  0.00    -0.050 A 
ATOM     20  C   UNL     1       0.006  -0.686  -1.202  0.00  0.00    +0.004 A 
ATOM     21  C   UNL     1       0.024  -2.066  -1.216  0.00  0.00    +0.013 A 
ATOM     22  C   UNL     1       0.040  -2.773  -0.013  0.00  0.00    +0.037 A 
ATOM     23  C   UNL     1       0.036  -2.079   1.198  0.00  0.00    +0.013 A 
ATOM     24  C   UNL     1       0.023  -0.699   1.198  0.00  0.00    +0.004 A 
ENDBRANCH  14  22
ENDBRANCH  13  16
ENDBRANCH  12  13
ENDBRANCH   1  12
BRANCH   8  25
ATOM     25  C   UNL     1       3.687 -10.273   5.854  0.00  0.00    +0.113 C 
BRANCH  25  26
ATOM     26  C   UNL     1       3.632  -9.928   7.343  0.00  0.00    +0.117 C 
ATOM     27  C   UNL     1       4.945 -10.274   8.008  0.00  0.00    +0.008 C 
ATOM     28  C   UNL     1       4.655 -11.196   8.954  0.00  0.00    -0.004 A 
ATOM     29  C   UNL     1       5.484 -11.920   9.925  0.00  0.00    +0.010 A 
ATOM     30  C   UNL     1       4.894 -12.803  10.762  0.00  0.00    +0.001 A 
ATOM     31  C   UNL     1       3.514 -13.045  10.725  0.00  0.00    +0.002 A 
ATOM     32  C   UNL     1       2.687 -12.419   9.861  0.00  0.00    +0.026 A 
ATOM     33  C   UNL     1       3.200 -11.470   8.935  0.00  0.00    +0.043 A 
ATOM     34  N   UNL     1       2.612 -10.743   8.013  0.00  0.00    -0.377 N 
ATOM     35  H   UNL     1       1.664 -10.744   7.809  0.00  0.00    +0.160 HD
ENDBRANCH  25  26
ENDBRANCH   8  25
TORSDOF 6
