REMARK  Name = ZINC08868397
REMARK  4 active torsions:
REMARK  status: ('A' for Active; 'I' for Inactive)
REMARK    1  A    between atoms: C_1  and  C_2
REMARK    2  A    between atoms: C_3  and  C_21
REMARK    3  A    between atoms: C_3  and  C_25
REMARK    4  A    between atoms: N_11  and  C_14
REMARK                            x       y       z     vdW  Elec       q    Type
REMARK                         _______ _______ _______ _____ _____    ______ ____
ROOT
ATOM      1  C   UNL     1      -0.301   1.354   3.025  0.00  0.00    +0.081 C 
ATOM      2  C   UNL     1      -0.426   2.439   1.987  0.00  0.00    +0.071 C 
ATOM      3  C   UNL     1       0.449   4.436   0.953  0.00  0.00    +0.264 C 
ATOM      4  C   UNL     1      -0.530   4.156  -0.152  0.00  0.00    +0.098 A 
ATOM      5  C   UNL     1      -0.490   4.899  -1.344  0.00  0.00    +0.262 A 
ATOM      6  O   UNL     1       0.343   5.777  -1.494  0.00  0.00    -0.267 OA
ATOM      7  N   UNL     1      -1.381   4.634  -2.320  0.00  0.00    -0.274 N 
ATOM      8  H   UNL     1      -1.355   5.160  -3.170  0.00  0.00    +0.173 HD
ATOM      9  C   UNL     1      -2.304   3.668  -2.163  0.00  0.00    +0.335 A 
ATOM     10  O   UNL     1      -3.099   3.448  -3.057  0.00  0.00    -0.246 OA
ATOM     11  N   UNL     1      -2.361   2.941  -1.031  0.00  0.00    -0.250 N 
ATOM     12  C   UNL     1      -1.470   3.178  -0.013  0.00  0.00    +0.124 A 
ATOM     13  N   UNL     1      -1.506   2.432   1.141  0.00  0.00    -0.290 N 
ATOM     14  H   UNL     1      -2.293   1.908   1.357  0.00  0.00    +0.155 HD
ATOM     15  N   UNL     1       0.554   3.335   1.976  0.00  0.00    -0.352 N 
ATOM     16  H   UNL     1       1.343   3.280   2.630  0.00  0.00    +0.162 HD
ENDROOT
BRANCH  11  17
ATOM     17  C   UNL     1      -3.332   1.940  -0.891  0.00  0.00    +0.053 A 
ATOM     18  C   UNL     1      -3.052   0.639  -1.286  0.00  0.00    +0.028 A 
ATOM     19  C   UNL     1      -4.008  -0.347  -1.142  0.00  0.00    +0.022 A 
ATOM     20  C   UNL     1      -5.250  -0.036  -0.614  0.00  0.00    +0.041 A 
ATOM     21  C   UNL     1      -5.533   1.261  -0.225  0.00  0.00    +0.022 A 
ATOM     22  C   UNL     1      -4.578   2.249  -0.362  0.00  0.00    +0.028 A 
ATOM     23 CL   UNL     1      -6.452  -1.275  -0.441  0.00  0.00    -0.084 Cl
ENDBRANCH  11  17
BRANCH   3  24
ATOM     24  C   UNL     1       0.039   5.723   1.672  0.00  0.00    +0.426 C 
ATOM     25  F   UNL     1       0.968   6.011   2.678  0.00  0.00    -0.167 F 
ATOM     26  F   UNL     1       0.003   6.779   0.754  0.00  0.00    -0.167 F 
ATOM     27  F   UNL     1      -1.228   5.557   2.240  0.00  0.00    -0.167 F 
ENDBRANCH   3  24
BRANCH   3  28
ATOM     28  C   UNL     1       1.844   4.621   0.353  0.00  0.00    +0.426 C 
ATOM     29  F   UNL     1       2.081   3.618  -0.593  0.00  0.00    -0.167 F 
ATOM     30  F   UNL     1       1.923   5.873  -0.266  0.00  0.00    -0.167 F 
ATOM     31  F   UNL     1       2.803   4.540   1.368  0.00  0.00    -0.167 F 
ENDBRANCH   3  28
TORSDOF 3
