REMARK  Name = ZINC41098698
REMARK  9 active torsions:
REMARK  status: ('A' for Active; 'I' for Inactive)
REMARK    1  A    between atoms: C_1  and  C_2
REMARK    2  A    between atoms: C_2  and  C_4
REMARK    3  A    between atoms: C_2  and  N_10
REMARK    4  A    between atoms: C_11  and  C_13
REMARK    5  A    between atoms: C_13  and  C_15
REMARK    6  A    between atoms: C_13  and  S_16
REMARK    7  A    between atoms: S_16  and  C_17
REMARK    8  A    between atoms: C_20  and  C_23
REMARK    9  A    between atoms: N_21  and  N_22
REMARK                            x       y       z     vdW  Elec       q    Type
REMARK                         _______ _______ _______ _____ _____    ______ ____
ROOT
ATOM      1  S   UNL     1      -4.297  -0.687  -2.674  0.00  0.00    -0.072 S 
ENDROOT
BRANCH   1   2
ATOM      2  C   UNL     1      -5.957  -1.232  -2.447  0.00  0.00    +0.209 A 
ATOM      3  N   UNL     1      -6.443  -1.836  -1.388  0.00  0.00    -0.121 NA
ATOM      4  N   UNL     1      -7.690  -2.091  -1.564  0.00  0.00    -0.132 NA
ATOM      5  C   UNL     1      -8.072  -1.669  -2.736  0.00  0.00    +0.154 A 
ATOM      6  N   UNL     1      -6.983  -1.101  -3.338  0.00  0.00    -0.228 N 
BRANCH   5   7
ATOM      7  C   UNL     1      -9.458  -1.779  -3.317  0.00  0.00    +0.059 C 
ATOM      8  C   UNL     1     -10.449  -1.038  -2.418  0.00  0.00    +0.011 C 
ATOM      9  C   UNL     1     -11.856  -1.150  -3.008  0.00  0.00    +0.001 C 
ATOM     10  C   UNL     1     -12.255  -2.624  -3.099  0.00  0.00    +0.000 C 
ATOM     11  C   UNL     1     -11.264  -3.366  -3.998  0.00  0.00    +0.001 C 
ATOM     12  C   UNL     1      -9.857  -3.254  -3.408  0.00  0.00    +0.011 C 
ENDBRANCH   5   7
BRANCH   6  13
ATOM     13  N   UNL     1      -6.932  -0.526  -4.576  0.00  0.00    -0.295 N 
ATOM     14  H   UNL     1      -6.697  -1.207  -5.282  0.00  0.00    +0.163 HD
ATOM     15  H   UNL     1      -7.801  -0.063  -4.796  0.00  0.00    +0.163 HD
ENDBRANCH   6  13
ENDBRANCH   1   2
BRANCH   1  16
ATOM     16  C   UNL     1      -3.465  -1.164  -1.134  0.00  0.00    +0.137 C 
ATOM     17  C   UNL     1      -3.445  -2.690  -1.017  0.00  0.00    +0.029 C 
BRANCH  16  19
ATOM     18  N   UNL     1      -1.372  -0.511   0.012  0.00  0.00    -0.308 N 
ATOM     19  C   UNL     1      -2.051  -0.643  -1.145  0.00  0.00    +0.227 C 
ATOM     20  O   UNL     1      -1.524  -0.341  -2.194  0.00  0.00    -0.275 OA
ATOM     21  H   UNL     1      -1.794  -0.752   0.852  0.00  0.00    +0.149 HD
BRANCH  18  23
ATOM     22  C   UNL     1      -0.019   1.526   0.010  0.00  0.00    +0.033 C 
ATOM     23  C   UNL     1       0.002  -0.004   0.002  0.00  0.00    +0.100 C 
BRANCH  23  24
ATOM     24  C   UNL     1       0.731  -0.503   1.223  0.00  0.00    -0.027 A 
ATOM     25  C   UNL     1       0.081  -0.558   2.442  0.00  0.00    +0.005 A 
ATOM     26  C   UNL     1       0.749  -1.016   3.562  0.00  0.00    +0.000 A 
ATOM     27  C   UNL     1       2.068  -1.420   3.463  0.00  0.00    +0.000 A 
ATOM     28  C   UNL     1       2.718  -1.365   2.244  0.00  0.00    +0.000 A 
ATOM     29  C   UNL     1       2.048  -0.911   1.123  0.00  0.00    +0.005 A 
ENDBRANCH  23  24
ENDBRANCH  18  23
ENDBRANCH  16  19
ENDBRANCH   1  16
TORSDOF 7
