REMARK  Name = ZINC43509950
REMARK  7 active torsions:
REMARK  status: ('A' for Active; 'I' for Inactive)
REMARK    1  A    between atoms: C_1  and  C_2
REMARK    2  A    between atoms: C_8  and  C_32
REMARK    3  A    between atoms: C_12  and  O_23
REMARK    4  A    between atoms: C_19  and  O_22
REMARK    5  A    between atoms: C_26  and  O_31
REMARK    6  A    between atoms: C_28  and  C_29
REMARK    7  A    between atoms: C_28  and  C_30
REMARK                            x       y       z     vdW  Elec       q    Type
REMARK                         _______ _______ _______ _____ _____    ______ ____
ROOT
ATOM      1  C   UNL     1      -0.753   1.361  -0.558  0.00  0.00    +0.011 C 
ATOM      2  C   UNL     1      -0.620  -0.155  -0.443  0.00  0.00    +0.031 C 
ATOM      3  C   UNL     1      -1.995  -0.774  -0.200  0.00  0.00    +0.007 C 
ATOM      4  C   UNL     1      -2.409  -0.614   1.268  0.00  0.00    +0.005 C 
ATOM      5  C   UNL     1      -1.361  -1.327   2.122  0.00  0.00    +0.007 C 
ATOM      6  C   UNL     1      -0.032  -0.593   2.018  0.00  0.00    +0.012 C 
ATOM      7  C   UNL     1       0.419  -0.602   0.557  0.00  0.00    +0.123 C 
ATOM      8  C   UNL     1       1.752   0.157   0.398  0.00  0.00    +0.091 C 
ATOM      9  C   UNL     1       2.405  -0.633  -0.727  0.00  0.00    +0.043 A 
ATOM     10  C   UNL     1       3.404  -0.323  -1.628  0.00  0.00    +0.124 A 
ATOM     11  C   UNL     1       3.806  -1.271  -2.560  0.00  0.00    +0.053 A 
ATOM     12  C   UNL     1       3.197  -2.507  -2.584  0.00  0.00    +0.007 A 
ATOM     13  C   UNL     1       2.186  -2.825  -1.690  0.00  0.00    +0.169 A 
ATOM     14  C   UNL     1       1.787  -1.873  -0.746  0.00  0.00    +0.170 A 
ATOM     15  O   UNL     1       0.832  -1.954   0.225  0.00  0.00    -0.480 OA
ATOM     16  O   UNL     1       1.720  -4.091  -1.897  0.00  0.00    -0.460 OA
ATOM     17  C   UNL     1       2.085  -4.505  -3.225  0.00  0.00    +0.309 C 
ATOM     18  C   UNL     1       3.404  -3.727  -3.464  0.00  0.00    +0.114 C 
ATOM     19  C   UNL     1       1.014  -1.347   2.854  0.00  0.00    +0.013 C 
ATOM     20  C   UNL     1       0.551  -1.418   4.308  0.00  0.00    +0.032 C 
ATOM     21  C   UNL     1      -0.746  -2.210   4.407  0.00  0.00    +0.120 C 
ATOM     22  C   UNL     1      -1.847  -1.626   3.521  0.00  0.00    -0.005 C 
ATOM     23  C   UNL     1      -2.951  -2.708   3.426  0.00  0.00    +0.014 C 
ATOM     24  C   UNL     1      -2.472  -0.408   4.202  0.00  0.00    +0.014 C 
ATOM     25  C   UNL     1      -0.108   0.847   2.518  0.00  0.00    +0.015 C 
ENDROOT
BRANCH  17  26
ATOM     26  O   UNL     1       2.311  -5.913  -3.276  0.00  0.00    -0.357 OA
ATOM     27  H   UNL     1       1.535  -6.444  -3.048  0.00  0.00    +0.214 HD
ENDBRANCH  17  26
BRANCH  10  28
ATOM     28  O   UNL     1       3.992   0.902  -1.606  0.00  0.00    -0.506 OA
ATOM     29  H   UNL     1       4.768   0.955  -1.032  0.00  0.00    +0.292 HD
ENDBRANCH  10  28
BRANCH  21  30
ATOM     30  O   UNL     1      -1.196  -2.214   5.767  0.00  0.00    -0.391 OA
ATOM     31  H   UNL     1      -0.570  -2.611   6.387  0.00  0.00    +0.210 HD
ENDBRANCH  21  30
TORSDOF 3
