REMARK  Name = ZINC24108069
REMARK  13 active torsions:
REMARK  status: ('A' for Active; 'I' for Inactive)
REMARK    1  A    between atoms: C_1  and  C_2
REMARK    2  A    between atoms: C_2  and  O_3
REMARK    3  A    between atoms: O_3  and  C_4
REMARK    4  A    between atoms: C_4  and  C_6
REMARK    5  A    between atoms: C_7  and  C_16
REMARK    6  A    between atoms: C_16  and  S_17
REMARK    7  A    between atoms: S_17  and  C_18
REMARK    8  A    between atoms: C_21  and  C_24
REMARK    9  A    between atoms: N_22  and  N_23
REMARK   10  A    between atoms: C_27  and  O_32
REMARK   11  A    between atoms: C_28  and  O_30
REMARK   12  A    between atoms: O_30  and  C_31
REMARK   13  A    between atoms: O_32  and  C_33
REMARK                            x       y       z     vdW  Elec       q    Type
REMARK                         _______ _______ _______ _____ _____    ______ ____
ROOT
ATOM      1  C   UNL     1      -4.619   0.757   1.428  0.00  0.00    +0.209 A 
ATOM      2  N   UNL     1      -5.242   0.689   0.273  0.00  0.00    -0.121 NA
ATOM      3  N   UNL     1      -6.441   0.260   0.444  0.00  0.00    -0.127 NA
ATOM      4  C   UNL     1      -6.658   0.027   1.717  0.00  0.00    +0.182 A 
ATOM      5  N   UNL     1      -5.495   0.333   2.386  0.00  0.00    -0.224 N 
ENDROOT
BRANCH   4   6
ATOM      6  C   UNL     1      -7.911  -0.475   2.318  0.00  0.00    +0.024 A 
ATOM      7  C   UNL     1      -8.130  -0.344   3.691  0.00  0.00    +0.015 A 
ATOM      8  C   UNL     1      -9.301  -0.813   4.250  0.00  0.00    +0.050 A 
ATOM      9  C   UNL     1     -10.262  -1.415   3.452  0.00  0.00    +0.162 A 
ATOM     10  C   UNL     1     -10.050  -1.550   2.082  0.00  0.00    +0.162 A 
ATOM     11  C   UNL     1      -8.881  -1.076   1.514  0.00  0.00    +0.061 A 
BRANCH  10  12
ATOM     12  O   UNL     1     -10.994  -2.141   1.302  0.00  0.00    -0.491 OA
ATOM     13  C   UNL     1     -10.709  -2.246  -0.094  0.00  0.00    +0.277 C 
ENDBRANCH  10  12
BRANCH   9  14
ATOM     14  O   UNL     1     -11.415  -1.875   4.008  0.00  0.00    -0.491 OA
ATOM     15  C   UNL     1     -11.567  -1.705   5.418  0.00  0.00    +0.277 C 
ENDBRANCH   9  14
ENDBRANCH   4   6
BRANCH   5  16
ATOM     16  N   UNL     1      -5.266   0.235   3.729  0.00  0.00    -0.295 N 
ATOM     17  H   UNL     1      -6.061  -0.124   4.399  0.00  0.00    +0.163 HD
ATOM     18  H   UNL     1      -4.285   0.516   4.142  0.00  0.00    +0.163 HD
ENDBRANCH   5  16
BRANCH   1  19
ATOM     19  S   UNL     1      -2.960   1.290   1.690  0.00  0.00    -0.080 S 
BRANCH  19  20
ATOM     20  C   UNL     1      -2.478   1.667  -0.013  0.00  0.00    +0.114 C 
BRANCH  20  22
ATOM     21  C   UNL     1      -0.031   1.269  -0.185  0.00  0.00    +0.101 A 
ATOM     22  C   UNL     1      -1.053   2.156  -0.035  0.00  0.00    -0.006 A 
ATOM     23  C   UNL     1      -0.776   3.527   0.102  0.00  0.00    +0.029 A 
ATOM     24  C   UNL     1      -1.697   4.596   0.271  0.00  0.00    +0.132 A 
ATOM     25  C   UNL     1      -1.253   5.887   0.385  0.00  0.00    +0.039 A 
ATOM     26  C   UNL     1       0.101   6.195   0.340  0.00  0.00    +0.004 A 
ATOM     27  C   UNL     1       1.024   5.182   0.178  0.00  0.00    +0.016 A 
ATOM     28  C   UNL     1       0.594   3.877   0.061  0.00  0.00    +0.023 A 
ATOM     29  S   UNL     1       1.413   2.317  -0.154  0.00  0.00    -0.081 S 
ATOM     30  F   UNL     1      -3.022   4.338   0.319  0.00  0.00    -0.205 F 
BRANCH  21  31
ATOM     31  C   UNL     1      -0.101  -0.189  -0.339  0.00  0.00    +0.346 C 
ATOM     32  O   UNL     1      -1.179  -0.750  -0.338  0.00  0.00    -0.244 OA
BRANCH  31  33
ATOM     33  O   UNL     1       1.032  -0.906  -0.482  0.00  0.00    -0.461 OA
BRANCH  33  35
ATOM     34  C   UNL     1       2.270  -2.982  -0.779  0.00  0.00    +0.048 C 
ATOM     35  C   UNL     1       0.888  -2.344  -0.630  0.00  0.00    +0.229 C 
ENDBRANCH  33  35
ENDBRANCH  31  33
ENDBRANCH  21  31
ENDBRANCH  20  22
ENDBRANCH  19  20
ENDBRANCH   1  19
TORSDOF 10
