REMARK  Name = ZINC63462918
REMARK  7 active torsions:
REMARK  status: ('A' for Active; 'I' for Inactive)
REMARK    1  A    between atoms: C_1  and  C_2
REMARK    2  A    between atoms: C_2  and  O_3
REMARK    3  A    between atoms: O_3  and  C_4
REMARK    4  A    between atoms: C_6  and  C_19
REMARK    5  A    between atoms: C_9  and  O_10
REMARK    6  A    between atoms: O_10  and  C_11
REMARK    7  A    between atoms: C_11  and  C_12
REMARK                            x       y       z     vdW  Elec       q    Type
REMARK                         _______ _______ _______ _____ _____    ______ ____
ROOT
ATOM      1  C   UNL     1      -1.498  -1.849   0.006  0.00  0.00    +0.162 A 
ATOM      2  C   UNL     1      -0.389  -2.680  -0.003  0.00  0.00    +0.054 A 
ATOM      3  C   UNL     1      -0.553  -4.052  -0.008  0.00  0.00    -0.024 A 
ATOM      4  C   UNL     1      -1.823  -4.600  -0.005  0.00  0.00    +0.009 A 
ATOM      5  C   UNL     1      -2.934  -3.777   0.004  0.00  0.00    +0.050 A 
ATOM      6  C   UNL     1      -2.776  -2.400   0.016  0.00  0.00    +0.162 A 
ENDROOT
BRANCH   3   7
ATOM      7  C   UNL     1       0.654  -4.954  -0.018  0.00  0.00    +0.111 C 
ATOM      8  C   UNL     1       0.902  -5.468  -1.438  0.00  0.00    +0.128 C 
ATOM      9  C   UNL     1       2.022  -6.496  -1.330  0.00  0.00    -0.035 C 
ATOM     10  C   UNL     1       2.961  -6.120  -2.188  0.00  0.00    -0.001 A 
ATOM     11  C   UNL     1       4.229  -6.748  -2.593  0.00  0.00    +0.010 A 
ATOM     12  C   UNL     1       4.971  -6.067  -3.506  0.00  0.00    +0.001 A 
ATOM     13  C   UNL     1       4.583  -4.838  -4.049  0.00  0.00    +0.002 A 
ATOM     14  C   UNL     1       3.432  -4.191  -3.739  0.00  0.00    +0.026 A 
ATOM     15  C   UNL     1       2.565  -4.812  -2.793  0.00  0.00    +0.043 A 
ATOM     16  N   UNL     1       1.389  -4.423  -2.337  0.00  0.00    -0.376 N 
ATOM     17  C   UNL     1       1.975  -7.615  -0.318  0.00  0.00    +0.048 C 
ATOM     18  C   UNL     1       1.596  -6.964   1.025  0.00  0.00    +0.086 C 
ATOM     19  N   UNL     1       0.415  -6.112   0.858  0.00  0.00    -0.307 NA
ATOM     20  H   UNL     1       0.051  -5.819   1.752  0.00  0.00    +0.123 HD
ATOM     21  H   UNL     1       0.928  -3.596  -2.550  0.00  0.00    +0.160 HD
ENDBRANCH   3   7
BRANCH   1  22
ATOM     22  O   UNL     1      -1.339  -0.499   0.012  0.00  0.00    -0.489 OA
BRANCH  22  24
ATOM     23  C   UNL     1      -0.019   1.526   0.010  0.00  0.00    +0.048 C 
ATOM     24  C   UNL     1       0.002  -0.004   0.002  0.00  0.00    +0.226 C 
ENDBRANCH  22  24
ENDBRANCH   1  22
BRANCH   6  25
ATOM     25  O   UNL     1      -3.868  -1.589   0.030  0.00  0.00    -0.484 OA
BRANCH  25  26
ATOM     26  C   UNL     1      -5.148  -2.225   0.039  0.00  0.00    +0.266 C 
BRANCH  26  27
ATOM     27  C   UNL     1      -6.229  -1.175   0.055  0.00  0.00    +0.008 A 
ATOM     28  C   UNL     1      -5.892   0.165   0.053  0.00  0.00    +0.008 A 
ATOM     29  C   UNL     1      -6.884   1.128   0.068  0.00  0.00    +0.000 A 
ATOM     30  C   UNL     1      -8.214   0.751   0.084  0.00  0.00    +0.001 A 
ATOM     31  C   UNL     1      -8.552  -0.589   0.086  0.00  0.00    +0.020 A 
ATOM     32  C   UNL     1      -7.560  -1.553   0.066  0.00  0.00    +0.047 A 
ATOM     33 CL   UNL     1      -7.984  -3.237   0.061  0.00  0.00    -0.083 Cl
ENDBRANCH  26  27
ENDBRANCH  25  26
ENDBRANCH   6  25
TORSDOF 6
