REMARK  Name = ZINC21463544
REMARK  12 active torsions:
REMARK  status: ('A' for Active; 'I' for Inactive)
REMARK    1  A    between atoms: C_1  and  C_2
REMARK    2  A    between atoms: C_2  and  N_3
REMARK    3  A    between atoms: N_3  and  C_4
REMARK    4  A    between atoms: N_3  and  C_6
REMARK    5  A    between atoms: C_4  and  C_5
REMARK    6  A    between atoms: C_6  and  C_8
REMARK    7  A    between atoms: C_6  and  C_27
REMARK    8  A    between atoms: C_8  and  N_9
REMARK    9  A    between atoms: C_10  and  C_12
REMARK   10  A    between atoms: C_12  and  S_13
REMARK   11  A    between atoms: S_13  and  C_14
REMARK   12  A    between atoms: C_17  and  C_20
REMARK                            x       y       z     vdW  Elec       q    Type
REMARK                         _______ _______ _______ _____ _____    ______ ____
ROOT
ATOM      1  N   UNL     1       2.405  -2.167  -2.675  0.00  0.00    -0.316 N 
ATOM      2  C   UNL     1       2.998  -2.502  -3.838  0.00  0.00    +0.223 C 
ATOM      3  O   UNL     1       2.337  -2.958  -4.747  0.00  0.00    -0.275 OA
ATOM      4  H   UNL     1       2.919  -1.734  -1.975  0.00  0.00    +0.149 HD
ENDROOT
BRANCH   1   5
ATOM      5  C   UNL     1       0.984  -2.456  -2.468  0.00  0.00    +0.096 C 
BRANCH   5   6
ATOM      6  C   UNL     1       0.532  -1.864  -1.131  0.00  0.00    +0.016 C 
BRANCH   6   7
ATOM      7  C   UNL     1      -0.952  -2.066  -0.968  0.00  0.00    +0.093 A 
ATOM      8  C   UNL     1      -1.540  -2.921  -0.112  0.00  0.00    +0.043 A 
ATOM      9  C   UNL     1      -2.936  -2.785  -0.292  0.00  0.00    +0.041 A 
ATOM     10  C   UNL     1      -3.117  -1.854  -1.246  0.00  0.00    +0.195 A 
ATOM     11  O   UNL     1      -1.912  -1.419  -1.648  0.00  0.00    -0.469 OA
ENDBRANCH   6   7
BRANCH   6  12
ATOM     12  N   UNL     1       0.837  -0.427  -1.104  0.00  0.00    +0.387 N 
ATOM     13  H   UNL     1       1.833  -0.293  -1.199  0.00  0.00    -0.081 HD
BRANCH  12  15
ATOM     14  C   UNL     1       0.584   1.705  -2.281  0.00  0.00    -0.017 C 
ATOM     15  C   UNL     1       0.144   0.241  -2.213  0.00  0.00    -0.081 C 
ENDBRANCH  12  15
BRANCH  12  16
ATOM     16  C   UNL     1       0.386   0.145   0.172  0.00  0.00    -0.081 C 
ATOM     17  C   UNL     1       1.218  -0.439   1.315  0.00  0.00    -0.017 C 
ENDBRANCH  12  16
ENDBRANCH   6  12
ENDBRANCH   5   6
ENDBRANCH   1   5
BRANCH   2  18
ATOM     18  C   UNL     1       4.483  -2.308  -4.010  0.00  0.00    +0.173 C 
BRANCH  18  19
ATOM     19  S   UNL     1       4.950  -2.704  -5.717  0.00  0.00    -0.077 S 
BRANCH  19  20
ATOM     20  C   UNL     1       6.691  -2.432  -5.756  0.00  0.00    +0.185 A 
ATOM     21  N   UNL     1       7.434  -2.034  -4.746  0.00  0.00    -0.201 NA
ATOM     22  H   UNL     1       7.232  -2.894  -7.713  0.00  0.00    +0.191 HD
ATOM     23  C   UNL     1       8.712  -1.935  -5.138  0.00  0.00    +0.182 A 
ATOM     24  N   UNL     1       8.795  -2.270  -6.406  0.00  0.00    -0.152 NA
ATOM     25  N   UNL     1       7.498  -2.603  -6.827  0.00  0.00    -0.253 N 
BRANCH  23  26
ATOM     26  C   UNL     1       9.847  -1.514  -4.281  0.00  0.00    +0.021 A 
ATOM     27  C   UNL     1       9.630  -1.187  -2.944  0.00  0.00    +0.013 A 
ATOM     28  C   UNL     1      10.689  -0.796  -2.150  0.00  0.00    +0.021 A 
ATOM     29  C   UNL     1      11.966  -0.729  -2.680  0.00  0.00    +0.041 A 
ATOM     30  C   UNL     1      12.187  -1.053  -4.008  0.00  0.00    +0.021 A 
ATOM     31  C   UNL     1      11.136  -1.450  -4.808  0.00  0.00    +0.013 A 
ATOM     32 CL   UNL     1      13.295  -0.237  -1.677  0.00  0.00    -0.084 Cl
ENDBRANCH  23  26
ENDBRANCH  19  20
ENDBRANCH  18  19
ENDBRANCH   2  18
TORSDOF 10
