REMARK  Name = ZINC09043100
REMARK  11 active torsions:
REMARK  status: ('A' for Active; 'I' for Inactive)
REMARK    1  A    between atoms: C_1  and  C_2
REMARK    2  A    between atoms: C_2  and  C_3
REMARK    3  A    between atoms: C_2  and  C_4
REMARK    4  A    between atoms: C_7  and  C_10
REMARK    5  A    between atoms: C_19  and  S_21
REMARK    6  A    between atoms: S_21  and  C_22
REMARK    7  A    between atoms: C_22  and  C_23
REMARK    8  A    between atoms: N_25  and  C_26
REMARK    9  A    between atoms: C_31  and  C_32
REMARK   10  A    between atoms: C_32  and  C_33
REMARK   11  A    between atoms: C_32  and  C_34
REMARK                            x       y       z     vdW  Elec       q    Type
REMARK                         _______ _______ _______ _____ _____    ______ ____
ROOT
ATOM      1  C   UNL     1      -2.731   2.984   4.714  0.00  0.00    +0.004 A 
ATOM      2  C   UNL     1      -3.947   2.495   5.050  0.00  0.00    +0.056 A 
ATOM      3  S   UNL     1      -4.337   3.357   6.561  0.00  0.00    -0.076 S 
ATOM      4  C   UNL     1      -2.874   4.352   6.701  0.00  0.00    +0.117 A 
ATOM      5  C   UNL     1      -2.116   3.990   5.575  0.00  0.00    +0.080 A 
ATOM      6  C   UNL     1      -0.858   4.652   5.431  0.00  0.00    +0.261 A 
ATOM      7  O   UNL     1      -0.132   4.400   4.485  0.00  0.00    -0.267 OA
ATOM      8  N   UNL     1      -0.483   5.556   6.355  0.00  0.00    -0.301 N 
ATOM      9  H   UNL     1       0.370   6.007   6.261  0.00  0.00    +0.171 HD
ATOM     10  C   UNL     1      -1.282   5.850   7.421  0.00  0.00    +0.170 A 
ATOM     11  N   UNL     1      -2.447   5.254   7.577  0.00  0.00    -0.216 NA
ENDROOT
BRANCH   1  15
ATOM     12  C   UNL     1      -0.747   1.628   1.207  0.00  0.00    -0.045 A 
ATOM     13  C   UNL     1      -0.879   2.985   1.443  0.00  0.00    +0.004 A 
ATOM     14  C   UNL     1      -1.527   3.431   2.577  0.00  0.00    +0.009 A 
ATOM     15  C   UNL     1      -2.039   2.511   3.491  0.00  0.00    -0.017 A 
ATOM     16  C   UNL     1      -1.898   1.145   3.251  0.00  0.00    +0.009 A 
ATOM     17  C   UNL     1      -1.253   0.711   2.111  0.00  0.00    +0.004 A 
BRANCH  12  19
ATOM     18  C   UNL     1       1.392   1.673  -0.045  0.00  0.00    +0.012 C 
ATOM     19  C   UNL     1      -0.045   1.148  -0.036  0.00  0.00    +0.013 C 
ATOM     20  C   UNL     1      -0.784   1.664  -1.272  0.00  0.00    +0.012 C 
ENDBRANCH  12  19
ENDBRANCH   1  15
BRANCH  10  21
ATOM     21  S   UNL     1      -0.750   7.042   8.605  0.00  0.00    -0.078 S 
BRANCH  21  22
ATOM     22  C   UNL     1      -2.161   7.011   9.738  0.00  0.00    +0.173 C 
BRANCH  22  23
ATOM     23  C   UNL     1      -1.921   7.983  10.865  0.00  0.00    +0.227 C 
ATOM     24  O   UNL     1      -0.897   8.632  10.899  0.00  0.00    -0.275 OA
ATOM     25  N   UNL     1      -2.845   8.130  11.836  0.00  0.00    -0.285 N 
ATOM     26  H   UNL     1      -3.692   7.662  11.775  0.00  0.00    +0.155 HD
BRANCH  25  27
ATOM     27  C   UNL     1      -2.582   8.960  12.931  0.00  0.00    +0.037 A 
ATOM     28  C   UNL     1      -1.833  10.118  12.764  0.00  0.00    +0.023 A 
ATOM     29  C   UNL     1      -1.580  10.937  13.846  0.00  0.00    +0.002 A 
ATOM     30  C   UNL     1      -2.062  10.601  15.098  0.00  0.00    +0.000 A 
ATOM     31  C   UNL     1      -2.803   9.446  15.269  0.00  0.00    +0.006 A 
ATOM     32  C   UNL     1      -3.064   8.625  14.190  0.00  0.00    -0.024 A 
BRANCH  32  33
ATOM     33  C   UNL     1      -3.871   7.366  14.377  0.00  0.00    +0.015 C 
ATOM     34  C   UNL     1      -3.227   6.505  15.466  0.00  0.00    +0.012 C 
ATOM     35  C   UNL     1      -5.297   7.731  14.793  0.00  0.00    +0.012 C 
ENDBRANCH  32  33
ENDBRANCH  25  27
ENDBRANCH  22  23
ENDBRANCH  21  22
ENDBRANCH  10  21
TORSDOF 7
