REMARK  Name = ZINC35641612
REMARK  10 active torsions:
REMARK  status: ('A' for Active; 'I' for Inactive)
REMARK    1  A    between atoms: C_1  and  C_2
REMARK    2  A    between atoms: C_2  and  O_3
REMARK    3  A    between atoms: O_3  and  C_4
REMARK    4  A    between atoms: C_4  and  C_6
REMARK    5  A    between atoms: C_7  and  C_22
REMARK    6  A    between atoms: N_8  and  C_21
REMARK    7  A    between atoms: C_12  and  C_14
REMARK    8  A    between atoms: C_22  and  N_23
REMARK    9  A    between atoms: N_26  and  C_29
REMARK   10  A    between atoms: C_29  and  C_30
REMARK                            x       y       z     vdW  Elec       q    Type
REMARK                         _______ _______ _______ _____ _____    ______ ____
ROOT
ATOM      1  C   UNL     1       1.670  -2.393  -2.676  0.00  0.00    +0.080 C 
ATOM      2  C   UNL     1       1.896  -3.644  -3.132  0.00  0.00    +0.041 C 
ATOM      3  N   UNL     1       2.467  -3.856  -4.354  0.00  0.00    -0.260 N 
ATOM      4  C   UNL     1       2.841  -2.870  -5.181  0.00  0.00    +0.307 C 
ATOM      5  O   UNL     1       3.341  -3.158  -6.250  0.00  0.00    -0.252 OA
ATOM      6  N   UNL     1       2.679  -1.570  -4.865  0.00  0.00    -0.288 N 
ATOM      7  C   UNL     1       2.065  -1.234  -3.569  0.00  0.00    +0.145 C 
ATOM      8  C   UNL     1       2.684  -5.239  -4.786  0.00  0.00    +0.139 C 
ATOM      9  H   UNL     1       2.957  -0.872  -5.479  0.00  0.00    +0.151 HD
ENDROOT
BRANCH   7  10
ATOM     10  C   UNL     1       3.040  -0.373  -2.808  0.00  0.00    -0.004 A 
ATOM     11  C   UNL     1       4.399  -0.597  -2.927  0.00  0.00    +0.007 A 
ATOM     12  C   UNL     1       5.293   0.193  -2.230  0.00  0.00    +0.000 A 
ATOM     13  C   UNL     1       4.829   1.207  -1.412  0.00  0.00    +0.001 A 
ATOM     14  C   UNL     1       3.471   1.432  -1.293  0.00  0.00    +0.020 A 
ATOM     15  C   UNL     1       2.576   0.645  -1.995  0.00  0.00    +0.046 A 
ATOM     16 CL   UNL     1       0.869   0.930  -1.851  0.00  0.00    -0.083 Cl
ENDBRANCH   7  10
BRANCH   1  17
ATOM     17  C   UNL     1       1.078  -2.172  -1.411  0.00  0.00    +0.339 C 
ATOM     18  O   UNL     1      -0.101  -1.882  -1.333  0.00  0.00    -0.245 OA
BRANCH  17  19
ATOM     19  O   UNL     1       1.821  -2.283  -0.290  0.00  0.00    -0.462 OA
BRANCH  19  21
ATOM     20  C   UNL     1       2.151  -2.185   2.102  0.00  0.00    +0.048 C 
ATOM     21  C   UNL     1       1.136  -2.155   0.958  0.00  0.00    +0.229 C 
ENDBRANCH  19  21
ENDBRANCH  17  19
ENDBRANCH   1  17
BRANCH   2  22
ATOM     22  C   UNL     1       1.513  -4.825  -2.278  0.00  0.00    +0.136 C 
BRANCH  22  23
ATOM     23  N   UNL     1       2.725  -5.548  -1.870  0.00  0.00    -0.300 NA
ATOM     24  C   UNL     1       3.483  -4.782  -0.871  0.00  0.00    +0.066 C 
ATOM     25  C   UNL     1       4.765  -5.540  -0.517  0.00  0.00    -0.063 C 
ATOM     26  N   UNL     1       4.420  -6.865   0.015  0.00  0.00    +0.384 N 
ATOM     27  C   UNL     1       3.684  -7.626  -1.003  0.00  0.00    -0.063 C 
ATOM     28  C   UNL     1       2.394  -6.886  -1.361  0.00  0.00    +0.066 C 
ATOM     29  H   UNL     1       3.844  -6.758   0.836  0.00  0.00    -0.081 HD
BRANCH  26  30
ATOM     30  C   UNL     1       5.650  -7.585   0.371  0.00  0.00    -0.043 C 
BRANCH  30  31
ATOM     31  C   UNL     1       5.294  -8.893   1.029  0.00  0.00    -0.064 A 
ATOM     32  C   UNL     1       5.129  -8.954   2.400  0.00  0.00    +0.002 A 
ATOM     33  C   UNL     1       4.803 -10.154   3.004  0.00  0.00    +0.000 A 
ATOM     34  C   UNL     1       4.639 -11.292   2.236  0.00  0.00    +0.000 A 
ATOM     35  C   UNL     1       4.803 -11.230   0.865  0.00  0.00    +0.000 A 
ATOM     36  C   UNL     1       5.125 -10.030   0.261  0.00  0.00    +0.002 A 
ENDBRANCH  30  31
ENDBRANCH  26  30
ENDBRANCH  22  23
ENDBRANCH   2  22
TORSDOF 8
