REMARK  Name = ZINC00758749
REMARK  7 active torsions:
REMARK  status: ('A' for Active; 'I' for Inactive)
REMARK    1  A    between atoms: C_1  and  C_2
REMARK    2  A    between atoms: C_2  and  C_24
REMARK    3  A    between atoms: C_3  and  C_20
REMARK    4  A    between atoms: C_5  and  C_7
REMARK    5  A    between atoms: N_9  and  C_10
REMARK    6  A    between atoms: C_13  and  S_16
REMARK    7  A    between atoms: S_16  and  N_19
REMARK                            x       y       z     vdW  Elec       q    Type
REMARK                         _______ _______ _______ _____ _____    ______ ____
ROOT
ATOM      1  C   UNL     1       2.336   5.233  -0.095  0.00  0.00    +0.221 C 
ATOM      2  O   UNL     1       1.278   5.827  -0.082  0.00  0.00    -0.275 OA
ATOM      3  N   UNL     1       2.356   3.889  -0.001  0.00  0.00    -0.285 N 
ATOM      4  H   UNL     1       3.202   3.419   0.057  0.00  0.00    +0.155 HD
ENDROOT
BRANCH   3   5
ATOM      5  C   UNL     1       1.155   3.171   0.015  0.00  0.00    +0.034 A 
ATOM      6  C   UNL     1       1.081   1.924  -0.592  0.00  0.00    +0.025 A 
ATOM      7  C   UNL     1      -0.106   1.219  -0.575  0.00  0.00    +0.030 A 
ATOM      8  C   UNL     1      -1.222   1.754   0.042  0.00  0.00    +0.105 A 
ATOM      9  C   UNL     1      -1.151   2.993   0.652  0.00  0.00    +0.030 A 
ATOM     10  C   UNL     1       0.034   3.704   0.639  0.00  0.00    +0.025 A 
BRANCH   8  11
ATOM     11  S   UNL     1      -2.737   0.854   0.055  0.00  0.00    +0.056 S 
ATOM     12  O   UNL     1      -3.776   1.810   0.220  0.00  0.00    -0.153 OA
ATOM     13  O   UNL     1      -2.689  -0.037  -1.051  0.00  0.00    -0.153 OA
BRANCH  11  14
ATOM     14  N   UNL     1      -2.736  -0.085   1.419  0.00  0.00    -0.204 NA
ATOM     15  H   UNL     1      -3.574  -0.310   1.853  0.00  0.00    +0.144 HD
ATOM     16  H   UNL     1      -1.898  -0.409   1.784  0.00  0.00    +0.144 HD
ENDBRANCH  11  14
ENDBRANCH   8  11
ENDBRANCH   3   5
BRANCH   1  20
ATOM     17  C   UNL     1       2.146   8.152  -0.293  0.00  0.00    +0.012 C 
ATOM     18  C   UNL     1       3.540   7.522  -0.321  0.00  0.00    -0.016 C 
ATOM     19  C   UNL     1       3.915   6.693  -1.551  0.00  0.00    +0.033 C 
ATOM     20  C   UNL     1       3.628   5.998  -0.217  0.00  0.00    +0.089 C 
ATOM     21  C   UNL     1       4.648   8.341   0.344  0.00  0.00    +0.012 C 
BRANCH  19  22
ATOM     22  C   UNL     1       5.348   6.745  -2.014  0.00  0.00    +0.010 C 
ATOM     23  C   UNL     1       5.632   7.174  -3.222  0.00  0.00    +0.103 C 
ATOM     24 CL   UNL     1       4.357   7.682  -4.285  0.00  0.00    -0.071 Cl
ATOM     25 CL   UNL     1       7.283   7.234  -3.756  0.00  0.00    -0.071 Cl
ENDBRANCH  19  22
ENDBRANCH   1  20
TORSDOF 5
