REMARK  Name = ZINC33633710
REMARK  13 active torsions:
REMARK  status: ('A' for Active; 'I' for Inactive)
REMARK    1  A    between atoms: C_1  and  C_2
REMARK    2  A    between atoms: C_2  and  C_3
REMARK    3  A    between atoms: C_3  and  C_4
REMARK    4  A    between atoms: C_4  and  C_5
REMARK    5  A    between atoms: C_5  and  O_6
REMARK    6  A    between atoms: O_6  and  C_7
REMARK    7  A    between atoms: C_10  and  C_15
REMARK    8  A    between atoms: C_12  and  O_13
REMARK    9  A    between atoms: O_13  and  C_14
REMARK   10  A    between atoms: N_19  and  C_33
REMARK   11  A    between atoms: N_21  and  S_22
REMARK   12  A    between atoms: S_22  and  C_25
REMARK   13  A    between atoms: C_33  and  C_34
REMARK                            x       y       z     vdW  Elec       q    Type
REMARK                         _______ _______ _______ _____ _____    ______ ____
ROOT
ATOM      1  C   UNL     1      -7.638  -6.298  -2.039  0.00  0.00    +0.028 C 
ATOM      2  C   UNL     1      -8.825  -5.761  -1.658  0.00  0.00    +0.078 C 
ATOM      3  C   UNL     1     -10.035  -6.433  -1.148  0.00  0.00    +0.259 C 
ATOM      4  O   UNL     1     -10.082  -7.641  -1.010  0.00  0.00    -0.269 OA
ATOM      5  N   UNL     1     -11.067  -5.663  -0.848  0.00  0.00    -0.245 N 
ATOM      6  C   UNL     1     -10.994  -4.294  -1.011  0.00  0.00    +0.189 C 
ATOM      7  N   UNL     1     -11.909  -3.398  -0.766  0.00  0.00    -0.105 NA
ATOM      8  S   UNL     1      -9.338  -4.050  -1.633  0.00  0.00    -0.047 S 
ENDROOT
BRANCH   1  12
ATOM      9  C   UNL     1      -4.373  -3.760  -2.992  0.00  0.00    +0.162 A 
ATOM     10  C   UNL     1      -5.426  -3.278  -2.224  0.00  0.00    +0.050 A 
ATOM     11  C   UNL     1      -6.488  -4.098  -1.912  0.00  0.00    +0.012 A 
ATOM     12  C   UNL     1      -6.508  -5.421  -2.370  0.00  0.00    -0.020 A 
ATOM     13  C   UNL     1      -5.446  -5.905  -3.144  0.00  0.00    +0.057 A 
ATOM     14  C   UNL     1      -4.388  -5.074  -3.456  0.00  0.00    +0.162 A 
BRANCH  14  15
ATOM     15  O   UNL     1      -3.358  -5.540  -4.212  0.00  0.00    -0.491 OA
ATOM     16  C   UNL     1      -3.439  -6.896  -4.653  0.00  0.00    +0.277 C 
ENDBRANCH  14  15
BRANCH   9  17
ATOM     17  O   UNL     1      -3.329  -2.946  -3.296  0.00  0.00    -0.488 OA
BRANCH  17  18
ATOM     18  C   UNL     1      -3.377  -1.611  -2.788  0.00  0.00    +0.229 C 
BRANCH  18  19
ATOM     19  C   UNL     1      -2.125  -0.851  -3.231  0.00  0.00    +0.041 C 
BRANCH  19  20
ATOM     20  C   UNL     1      -2.177   0.578  -2.688  0.00  0.00    +0.003 C 
BRANCH  20  22
ATOM     21  C   UNL     1      -0.977   2.767  -2.587  0.00  0.00    +0.004 C 
ATOM     22  C   UNL     1      -0.925   1.338  -3.130  0.00  0.00    -0.003 C 
ENDBRANCH  20  22
ENDBRANCH  19  20
ENDBRANCH  18  19
ENDBRANCH  17  18
ENDBRANCH   9  17
ENDBRANCH   1  12
BRANCH   7  23
ATOM     23  S   UNL     1     -13.511  -3.816  -0.811  0.00  0.00    +0.101 S 
ATOM     24  O   UNL     1     -13.740  -4.409  -2.082  0.00  0.00    -0.146 OA
ATOM     25  O   UNL     1     -13.787  -4.493   0.407  0.00  0.00    -0.146 OA
BRANCH  23  26
ATOM     26  C   UNL     1     -14.441  -2.320  -0.778  0.00  0.00    +0.113 A 
ATOM     27  C   UNL     1     -14.823  -1.771   0.432  0.00  0.00    +0.032 A 
ATOM     28  C   UNL     1     -15.552  -0.597   0.459  0.00  0.00    +0.040 A 
ATOM     29  C   UNL     1     -15.900   0.029  -0.726  0.00  0.00    +0.124 A 
ATOM     30  C   UNL     1     -15.516  -0.522  -1.937  0.00  0.00    +0.040 A 
ATOM     31  C   UNL     1     -14.783  -1.693  -1.962  0.00  0.00    +0.032 A 
ATOM     32  F   UNL     1     -16.613   1.176  -0.701  0.00  0.00    -0.205 F 
ENDBRANCH  23  26
ENDBRANCH   7  23
BRANCH   5  33
ATOM     33  C   UNL     1     -12.300  -6.268  -0.336  0.00  0.00    +0.112 C 
ATOM     34  C   UNL     1     -12.292  -6.227   1.193  0.00  0.00    +0.025 C 
ENDBRANCH   5  33
TORSDOF 10
