REMARK  Name = ZINC15675814
REMARK  4 active torsions:
REMARK  status: ('A' for Active; 'I' for Inactive)
REMARK    1  A    between atoms: C_1  and  C_2
REMARK    2  A    between atoms: C_5  and  C_8
REMARK    3  A    between atoms: C_10  and  C_13
REMARK    4  A    between atoms: N_26  and  C_27
REMARK                            x       y       z     vdW  Elec       q    Type
REMARK                         _______ _______ _______ _____ _____    ______ ____
ROOT
ATOM      1  C   UNL     1       0.655  -8.486   1.897  0.00  0.00    +0.172 C 
ATOM      2  C   UNL     1       1.811  -9.389   1.447  0.00  0.00    +0.087 C 
ATOM      3  C   UNL     1       1.686  -9.636  -0.034  0.00  0.00    +0.040 A 
ATOM      4  C   UNL     1       0.562  -9.440  -0.756  0.00  0.00    +0.054 A 
ATOM      5  N   UNL     1       0.822  -9.766  -2.025  0.00  0.00    -0.348 N 
ATOM      6  C   UNL     1       2.067 -10.155  -2.120  0.00  0.00    +0.171 A 
ATOM      7  N   UNL     1       2.639 -10.087  -0.896  0.00  0.00    -0.349 N 
ATOM      8  H   UNL     1       3.556 -10.315  -0.675  0.00  0.00    +0.166 HD
ATOM      9  C   UNL     1      -0.733  -8.930  -0.171  0.00  0.00    +0.165 C 
ATOM     10  N   UNL     1      -0.597  -8.972   1.298  0.00  0.00    -0.267 N 
ATOM     11  C   UNL     1      -1.594  -9.444   2.072  0.00  0.00    +0.307 C 
ATOM     12  O   UNL     1      -1.430  -9.562   3.271  0.00  0.00    -0.252 OA
ATOM     13  N   UNL     1      -2.774  -9.786   1.517  0.00  0.00    -0.269 N 
ATOM     14  H   UNL     1      -2.881  -9.765   0.553  0.00  0.00    +0.156 HD
ATOM     15  H   UNL     1       0.189  -9.721  -2.758  0.00  0.00    +0.166 HD
ENDROOT
BRANCH  13  16
ATOM     16  C   UNL     1      -3.845 -10.171   2.331  0.00  0.00    +0.035 A 
ATOM     17  C   UNL     1      -4.006  -9.600   3.586  0.00  0.00    +0.023 A 
ATOM     18  C   UNL     1      -5.064  -9.982   4.387  0.00  0.00    +0.002 A 
ATOM     19  C   UNL     1      -5.963 -10.933   3.940  0.00  0.00    +0.000 A 
ATOM     20  C   UNL     1      -5.805 -11.505   2.691  0.00  0.00    +0.002 A 
ATOM     21  C   UNL     1      -4.753 -11.122   1.883  0.00  0.00    +0.023 A 
ENDBRANCH  13  16
BRANCH   1  24
ATOM     22  C   UNL     1       1.435  -4.967   1.477  0.00  0.00    +0.202 A 
ATOM     23  N   UNL     1       1.297  -6.088   2.207  0.00  0.00    -0.190 NA
ATOM     24  C   UNL     1       0.915  -7.072   1.445  0.00  0.00    +0.249 A 
ATOM     25  O   UNL     1       0.793  -6.616   0.192  0.00  0.00    -0.336 OA
ATOM     26  N   UNL     1       1.131  -5.238   0.232  0.00  0.00    -0.056 NA
BRANCH  22  31
ATOM     27  C   UNL     1       3.061   0.177   3.495  0.00  0.00    +0.044 C 
ATOM     28  C   UNL     1       2.636  -1.169   2.967  0.00  0.00    -0.050 A 
ATOM     29  C   UNL     1       2.343  -1.321   1.624  0.00  0.00    +0.004 A 
ATOM     30  C   UNL     1       1.953  -2.551   1.135  0.00  0.00    +0.012 A 
ATOM     31  C   UNL     1       1.854  -3.641   1.997  0.00  0.00    +0.022 A 
ATOM     32  C   UNL     1       2.150  -3.482   3.349  0.00  0.00    +0.012 A 
ATOM     33  C   UNL     1       2.545  -2.249   3.826  0.00  0.00    +0.004 A 
ENDBRANCH  22  31
ENDBRANCH   1  24
TORSDOF 3
