REMARK  Name = ZINC04773023
REMARK  6 active torsions:
REMARK  status: ('A' for Active; 'I' for Inactive)
REMARK    1  A    between atoms: C_1  and  O_2
REMARK    2  A    between atoms: O_2  and  C_3
REMARK    3  A    between atoms: C_5  and  S_27
REMARK    4  A    between atoms: C_7  and  N_23
REMARK    5  A    between atoms: N_23  and  C_24
REMARK    6  A    between atoms: C_24  and  N_26
REMARK                            x       y       z     vdW  Elec       q    Type
REMARK                         _______ _______ _______ _____ _____    ______ ____
ROOT
ATOM      1  C   UNL     1      -0.860   6.231  -2.383  0.00  0.00    +0.265 C 
ATOM      2  C   UNL     1       0.665   6.193  -2.517  0.00  0.00    +0.123 C 
ATOM      3  C   UNL     1       1.249   5.476  -1.296  0.00  0.00    +0.133 C 
ATOM      4  C   UNL     1       0.643   4.072  -1.194  0.00  0.00    +0.227 C 
ATOM      5  C   UNL     1      -0.876   4.162  -1.156  0.00  0.00    +0.201 C 
ATOM      6  O   UNL     1      -1.354   4.895  -2.287  0.00  0.00    -0.340 OA
ATOM      7  C   UNL     1      -1.526   2.782  -1.176  0.00  0.00    +0.264 C 
ATOM      8  O   UNL     1      -1.203   2.056   0.030  0.00  0.00    -0.486 OA
ATOM      9  C   UNL     1      -0.017   1.380   0.010  0.00  0.00    +0.162 A 
ATOM     10  C   UNL     1       0.002  -0.004   0.002  0.00  0.00    +0.049 A 
ATOM     11  C   UNL     1       1.214  -0.672  -0.011  0.00  0.00    +0.004 A 
ATOM     12  C   UNL     1       2.400   0.038  -0.015  0.00  0.00    +0.004 A 
ATOM     13  C   UNL     1       2.384   1.421  -0.009  0.00  0.00    +0.049 A 
ATOM     14  C   UNL     1       1.173   2.093   0.002  0.00  0.00    +0.163 A 
ATOM     15  O   UNL     1       1.137   3.454   0.000  0.00  0.00    -0.481 OA
ENDROOT
BRANCH   1  17
ATOM     16  C   UNL     1      -2.626   7.143  -1.042  0.00  0.00    +0.197 C 
ATOM     17  O   UNL     1      -1.218   6.959  -1.206  0.00  0.00    -0.353 OA
ENDBRANCH   1  17
BRANCH   3  18
ATOM     18  N   UNL     1       2.703   5.372  -1.440  0.00  0.00    -0.319 N 
ATOM     19  H   UNL     1       3.098   4.568  -1.813  0.00  0.00    +0.148 HD
BRANCH  18  20
ATOM     20  C   UNL     1       3.493   6.394  -1.054  0.00  0.00    +0.128 C 
ATOM     21  S   UNL     1       2.797   7.813  -0.395  0.00  0.00    -0.019 S 
BRANCH  20  22
ATOM     22  N   UNL     1       4.831   6.298  -1.185  0.00  0.00    -0.341 N 
ATOM     23  H   UNL     1       5.226   5.494  -1.558  0.00  0.00    +0.144 HD
ATOM     24  H   UNL     1       5.400   7.033  -0.907  0.00  0.00    +0.144 HD
ENDBRANCH  20  22
ENDBRANCH  18  20
ENDBRANCH   3  18
BRANCH   2  25
ATOM     25  S   UNL     1       1.312   7.886  -2.596  0.00  0.00    -0.168 S 
ATOM     26  H   UNL     1       0.722   8.409  -3.685  0.00  0.00    +0.102 HD
ENDBRANCH   2  25
TORSDOF 5
