REMARK  Name = ZINC09549316
REMARK  6 active torsions:
REMARK  status: ('A' for Active; 'I' for Inactive)
REMARK    1  A    between atoms: C_3  and  N_21
REMARK    2  A    between atoms: C_6  and  C_7
REMARK    3  A    between atoms: C_7  and  C_8
REMARK    4  A    between atoms: N_10  and  C_11
REMARK    5  A    between atoms: N_21  and  S_22
REMARK    6  A    between atoms: S_22  and  C_25
REMARK                            x       y       z     vdW  Elec       q    Type
REMARK                         _______ _______ _______ _____ _____    ______ ____
ROOT
ATOM      1  C   UNL     1       4.807  -4.814   1.196  0.00  0.00    +0.006 A 
ATOM      2  C   UNL     1       4.457  -6.136   1.387  0.00  0.00    +0.025 A 
ATOM      3  C   UNL     1       4.336  -6.986   0.295  0.00  0.00    +0.048 A 
ATOM      4  C   UNL     1       4.563  -6.502  -0.987  0.00  0.00    +0.025 A 
ATOM      5  C   UNL     1       4.907  -5.177  -1.171  0.00  0.00    +0.006 A 
ATOM      6  C   UNL     1       5.027  -4.333  -0.082  0.00  0.00    -0.039 A 
ENDROOT
BRANCH   3   7
ATOM      7  N   UNL     1       3.988  -8.325   0.486  0.00  0.00    -0.216 N 
ATOM      8  H   UNL     1       3.317  -8.737  -0.080  0.00  0.00    +0.174 HD
BRANCH   7   9
ATOM      9  S   UNL     1       4.722  -9.210   1.678  0.00  0.00    +0.072 S 
ATOM     10  O   UNL     1       4.612  -8.450   2.874  0.00  0.00    -0.150 OA
ATOM     11  O   UNL     1       4.220 -10.535   1.569  0.00  0.00    -0.150 OA
BRANCH   9  12
ATOM     12  C   UNL     1       6.439  -9.288   1.287  0.00  0.00    +0.110 A 
ATOM     13  C   UNL     1       6.906 -10.259   0.421  0.00  0.00    +0.030 A 
ATOM     14  C   UNL     1       8.251 -10.319   0.109  0.00  0.00    +0.023 A 
ATOM     15  C   UNL     1       9.132  -9.413   0.672  0.00  0.00    +0.059 A 
ATOM     16  C   UNL     1       8.665  -8.444   1.544  0.00  0.00    +0.061 A 
ATOM     17  C   UNL     1       7.317  -8.383   1.851  0.00  0.00    +0.050 A 
ATOM     18 CL   UNL     1       9.769  -7.306   2.251  0.00  0.00    -0.082 Cl
ATOM     19 CL   UNL     1      10.823  -9.491   0.286  0.00  0.00    -0.082 Cl
ENDBRANCH   9  12
ENDBRANCH   7   9
ENDBRANCH   3   7
BRANCH   6  20
ATOM     20  C   UNL     1       5.403  -2.889  -0.288  0.00  0.00    +0.131 C 
BRANCH  20  21
ATOM     21  C   UNL     1       4.153  -2.066  -0.470  0.00  0.00    +0.222 C 
ATOM     22  O   UNL     1       3.065  -2.600  -0.437  0.00  0.00    -0.275 OA
ATOM     23  N   UNL     1       4.246  -0.736  -0.671  0.00  0.00    -0.285 N 
ATOM     24  H   UNL     1       5.116  -0.320  -0.773  0.00  0.00    +0.155 HD
BRANCH  23  25
ATOM     25  C   UNL     1       3.085   0.045  -0.732  0.00  0.00    +0.037 A 
ATOM     26  C   UNL     1       1.979  -0.292   0.036  0.00  0.00    +0.027 A 
ATOM     27  C   UNL     1       0.833   0.477  -0.025  0.00  0.00    +0.051 A 
ATOM     28  C   UNL     1       0.783   1.588  -0.853  0.00  0.00    +0.162 A 
ATOM     29  C   UNL     1       1.890   1.931  -1.622  0.00  0.00    +0.164 A 
ATOM     30  C   UNL     1       3.039   1.157  -1.561  0.00  0.00    +0.072 A 
ATOM     31  O   UNL     1       1.863   3.023  -2.434  0.00  0.00    -0.485 OA
ATOM     32  C   UNL     1       0.573   3.557  -2.752  0.00  0.00    +0.270 C 
ATOM     33  C   UNL     1      -0.243   3.648  -1.456  0.00  0.00    +0.270 C 
ATOM     34  O   UNL     1      -0.358   2.330  -0.907  0.00  0.00    -0.485 OA
ENDBRANCH  23  25
ENDBRANCH  20  21
ENDBRANCH   6  20
TORSDOF 6
