REMARK  Name = ZINC28056605
REMARK  4 active torsions:
REMARK  status: ('A' for Active; 'I' for Inactive)
REMARK    1  A    between atoms: C_1  and  O_2
REMARK    2  A    between atoms: O_2  and  C_3
REMARK    3  A    between atoms: C_7  and  C_9
REMARK    4  A    between atoms: C_20  and  C_22
REMARK                            x       y       z     vdW  Elec       q    Type
REMARK                         _______ _______ _______ _____ _____    ______ ____
ROOT
ATOM      1  C   UNL     1       1.081   6.139  -2.160  0.00  0.00    +0.174 C 
ATOM      2  C   UNL     1      -0.186   5.851  -1.392  0.00  0.00    +0.025 C 
ATOM      3  C   UNL     1      -1.397   6.022  -1.925  0.00  0.00    +0.050 C 
ATOM      4  C   UNL     1      -2.584   5.718  -1.091  0.00  0.00    +0.038 A 
ATOM      5  C   UNL     1      -3.841   5.536  -1.653  0.00  0.00    +0.013 A 
ATOM      6  C   UNL     1      -4.920   5.260  -0.834  0.00  0.00    +0.001 A 
ATOM      7  C   UNL     1      -4.750   5.165   0.536  0.00  0.00    +0.004 A 
ATOM      8  C   UNL     1      -3.502   5.344   1.104  0.00  0.00    +0.046 A 
ATOM      9  C   UNL     1      -2.414   5.620   0.297  0.00  0.00    +0.131 A 
ATOM     10  O   UNL     1      -1.172   5.800   0.814  0.00  0.00    -0.479 OA
ATOM     11  C   UNL     1      -0.070   5.348   0.029  0.00  0.00    +0.234 C 
ATOM     12  N   UNL     1      -1.581   6.483  -3.234  0.00  0.00    -0.282 N 
ATOM     13  C   UNL     1      -0.481   7.033  -3.872  0.00  0.00    +0.240 A 
ATOM     14  N   UNL     1       0.774   6.883  -3.373  0.00  0.00    -0.201 N 
ATOM     15  N   UNL     1       1.609   7.567  -4.256  0.00  0.00    -0.042 NA
ATOM     16  N   UNL     1       0.847   8.051  -5.183  0.00  0.00    -0.021 NA
ATOM     17  N   UNL     1      -0.384   7.738  -4.963  0.00  0.00    -0.092 NA
ATOM     18  H   UNL     1      -2.567   6.401  -3.713  0.00  0.00    +0.155 HD
ENDROOT
BRANCH  11  19
ATOM     19  C   UNL     1      -0.050   3.841   0.022  0.00  0.00    -0.002 A 
ATOM     20  C   UNL     1       1.135   3.164   0.245  0.00  0.00    +0.007 A 
ATOM     21  C   UNL     1       1.154   1.782   0.238  0.00  0.00    +0.001 A 
ATOM     22  C   UNL     1      -0.012   1.076   0.008  0.00  0.00    +0.015 A 
ATOM     23  C   UNL     1      -1.197   1.752  -0.220  0.00  0.00    +0.018 A 
ATOM     24  C   UNL     1      -1.216   3.136  -0.208  0.00  0.00    +0.022 A 
ATOM     25 BR   UNL     1      -2.791   0.787  -0.542  0.00  0.00    -0.050 Br
ENDBRANCH  11  19
BRANCH   1  30
ATOM     26  C   UNL     1       3.631   3.361  -2.407  0.00  0.00    +0.120 A 
ATOM     27  C   UNL     1       2.962   2.445  -3.207  0.00  0.00    +0.045 A 
ATOM     28  C   UNL     1       1.690   2.728  -3.663  0.00  0.00    +0.004 A 
ATOM     29  C   UNL     1       1.082   3.923  -3.324  0.00  0.00    +0.006 A 
ATOM     30  C   UNL     1       1.746   4.837  -2.527  0.00  0.00    -0.015 A 
ATOM     31  C   UNL     1       3.021   4.561  -2.073  0.00  0.00    +0.051 A 
BRANCH  26  33
ATOM     32  C   UNL     1       5.451   1.833  -2.346  0.00  0.00    +0.277 C 
ATOM     33  O   UNL     1       4.883   3.085  -1.958  0.00  0.00    -0.495 OA
ENDBRANCH  26  33
ENDBRANCH   1  30
TORSDOF 3
