REMARK  Name = ZINC39596134
REMARK  8 active torsions:
REMARK  status: ('A' for Active; 'I' for Inactive)
REMARK    1  A    between atoms: C_1  and  C_2
REMARK    2  A    between atoms: C_2  and  C_4
REMARK    3  A    between atoms: C_2  and  O_27
REMARK    4  A    between atoms: C_4  and  N_5
REMARK    5  A    between atoms: C_6  and  C_8
REMARK    6  A    between atoms: C_19  and  C_21
REMARK    7  A    between atoms: N_25  and  C_26
REMARK    8  A    between atoms: O_27  and  C_28
REMARK                            x       y       z     vdW  Elec       q    Type
REMARK                         _______ _______ _______ _____ _____    ______ ____
ROOT
ATOM      1  C   UNL     1       1.315  -3.417   2.481  0.00  0.00    +0.100 C 
ATOM      2  C   UNL     1       2.089  -3.856   1.218  0.00  0.00    +0.121 C 
ATOM      3  N   UNL     1       3.378  -4.378   1.731  0.00  0.00    -0.295 N 
ATOM      4  C   UNL     1       3.011  -5.115   2.964  0.00  0.00    +0.115 C 
ATOM      5  C   UNL     1       1.921  -4.249   3.624  0.00  0.00    -0.004 C 
ATOM      6  C   UNL     1       0.852  -5.135   4.256  0.00  0.00    -0.010 C 
ATOM      7  C   UNL     1       1.464  -5.909   5.427  0.00  0.00    -0.082 C 
ATOM      8  N   UNL     1       1.993  -4.963   6.418  0.00  0.00    +0.379 N 
ATOM      9  C   UNL     1       3.084  -4.178   5.828  0.00  0.00    -0.082 C 
ATOM     10  C   UNL     1       2.540  -3.332   4.674  0.00  0.00    -0.010 C 
ATOM     11  C   UNL     1       4.605  -4.220   1.197  0.00  0.00    +0.263 C 
ATOM     12  O   UNL     1       5.576  -4.704   1.748  0.00  0.00    -0.268 OA
ATOM     13  H   UNL     1       1.255  -4.342   6.714  0.00  0.00    -0.086 HD
ATOM     14  H   UNL     1       2.340  -5.474   7.216  0.00  0.00    -0.086 HD
ENDROOT
BRANCH  11  15
ATOM     15  C   UNL     1       4.771  -3.464  -0.049  0.00  0.00    +0.104 A 
ATOM     16  C   UNL     1       3.762  -3.062  -0.899  0.00  0.00    +0.032 A 
ATOM     17  C   UNL     1       4.365  -2.373  -1.956  0.00  0.00    +0.020 A 
ATOM     18  C   UNL     1       5.702  -2.366  -1.738  0.00  0.00    +0.086 A 
ATOM     19  N   UNL     1       5.961  -3.021  -0.580  0.00  0.00    -0.346 N 
ATOM     20  C   UNL     1       7.287  -3.226   0.007  0.00  0.00    +0.149 C 
ENDBRANCH  11  15
BRANCH   1  22
ATOM     21  N   UNL     1       0.640  -1.266   3.500  0.00  0.00    -0.312 N 
ATOM     22  C   UNL     1       1.520  -1.946   2.737  0.00  0.00    +0.218 C 
ATOM     23  O   UNL     1       2.475  -1.374   2.257  0.00  0.00    -0.275 OA
ATOM     24  H   UNL     1      -0.124  -1.724   3.884  0.00  0.00    +0.149 HD
BRANCH  21  25
ATOM     25  C   UNL     1       0.839   0.164   3.749  0.00  0.00    +0.148 C 
BRANCH  25  27
ATOM     26  C   UNL     1      -0.084   2.182   4.897  0.00  0.00    +0.053 C 
ATOM     27  C   UNL     1      -0.291   0.688   4.637  0.00  0.00    +0.187 C 
BRANCH  27  28
ATOM     28  O   UNL     1      -1.544   0.489   3.980  0.00  0.00    -0.488 OA
BRANCH  28  29
ATOM     29  C   UNL     1      -2.618   0.215   4.769  0.00  0.00    +0.121 A 
ATOM     30  C   UNL     1      -3.834  -0.123   4.194  0.00  0.00    +0.048 A 
ATOM     31  C   UNL     1      -4.923  -0.400   4.996  0.00  0.00    +0.042 A 
ATOM     32  C   UNL     1      -4.802  -0.340   6.374  0.00  0.00    +0.124 A 
ATOM     33  C   UNL     1      -3.589  -0.002   6.950  0.00  0.00    +0.042 A 
ATOM     34  C   UNL     1      -2.496   0.269   6.150  0.00  0.00    +0.048 A 
ATOM     35  F   UNL     1      -5.869  -0.611   7.158  0.00  0.00    -0.205 F 
ENDBRANCH  28  29
ENDBRANCH  27  28
ENDBRANCH  25  27
ENDBRANCH  21  25
ENDBRANCH   1  22
TORSDOF 6
