REMARK  Name = ZINC33862084
REMARK  14 active torsions:
REMARK  status: ('A' for Active; 'I' for Inactive)
REMARK    1  A    between atoms: C_1  and  C_2
REMARK    2  A    between atoms: C_4  and  N_9
REMARK    3  A    between atoms: C_10  and  N_11
REMARK    4  A    between atoms: C_13  and  C_37
REMARK    5  A    between atoms: C_19  and  S_20
REMARK    6  A    between atoms: S_20  and  C_21
REMARK    7  A    between atoms: C_21  and  C_22
REMARK    8  A    between atoms: N_24  and  C_25
REMARK    9  A    between atoms: C_25  and  C_26
REMARK   10  A    between atoms: C_26  and  C_27
REMARK   11  A    between atoms: C_30  and  O_35
REMARK   12  A    between atoms: C_31  and  O_33
REMARK   13  A    between atoms: O_33  and  C_34
REMARK   14  A    between atoms: O_35  and  C_36
REMARK                            x       y       z     vdW  Elec       q    Type
REMARK                         _______ _______ _______ _____ _____    ______ ____
ROOT
ATOM      1  N   UNL     1      -0.153  -2.007  -2.681  0.00  0.00    -0.276 N 
ATOM      2  C   UNL     1      -1.126  -2.908  -2.829  0.00  0.00    +0.115 A 
ATOM      3  C   UNL     1      -1.001  -3.871  -3.848  0.00  0.00    +0.079 A 
ATOM      4  C   UNL     1      -1.796  -4.949  -4.295  0.00  0.00    +0.072 A 
ATOM      5  N   UNL     1      -1.190  -5.522  -5.295  0.00  0.00    -0.177 NA
ATOM      6  N   UNL     1       0.018  -4.864  -5.555  0.00  0.00    -0.260 N 
ATOM      7  H   UNL     1       0.654  -5.096  -6.250  0.00  0.00    +0.191 HD
ATOM      8  C   UNL     1       0.147  -3.839  -4.665  0.00  0.00    +0.162 A 
ATOM      9  N   UNL     1       1.070  -2.903  -4.447  0.00  0.00    -0.204 NA
ATOM     10  C   UNL     1       0.914  -2.012  -3.484  0.00  0.00    +0.177 A 
ATOM     11  C   UNL     1      -3.123  -5.365  -3.714  0.00  0.00    +0.068 C 
ENDROOT
BRANCH   1  15
ATOM     12  C   UNL     1      -0.611   2.701  -1.392  0.00  0.00    +0.045 C 
ATOM     13  C   UNL     1      -0.478   1.244  -1.030  0.00  0.00    -0.030 A 
ATOM     14  C   UNL     1      -0.377   0.293  -2.026  0.00  0.00    +0.031 A 
ATOM     15  C   UNL     1      -0.254  -1.053  -1.690  0.00  0.00    +0.050 A 
ATOM     16  C   UNL     1      -0.235  -1.433  -0.350  0.00  0.00    +0.028 A 
ATOM     17  C   UNL     1      -0.336  -0.475   0.638  0.00  0.00    +0.022 A 
ATOM     18  C   UNL     1      -0.452   0.862   0.300  0.00  0.00    +0.044 A 
ATOM     19 CL   UNL     1      -0.572   2.063   1.547  0.00  0.00    -0.083 Cl
ENDBRANCH   1  15
BRANCH   2  20
ATOM     20  N   UNL     1      -2.231  -2.896  -2.001  0.00  0.00    -0.344 N 
ATOM     21  H   UNL     1      -2.250  -2.313  -1.226  0.00  0.00    +0.144 HD
ATOM     22  H   UNL     1      -2.988  -3.471  -2.194  0.00  0.00    +0.144 HD
ENDBRANCH   2  20
BRANCH  10  23
ATOM     23  S   UNL     1       2.163  -0.792  -3.245  0.00  0.00    -0.078 S 
BRANCH  23  24
ATOM     24  C   UNL     1       3.393  -1.167  -4.524  0.00  0.00    +0.173 C 
BRANCH  24  25
ATOM     25  C   UNL     1       4.532  -0.184  -4.429  0.00  0.00    +0.223 C 
ATOM     26  O   UNL     1       4.514   0.684  -3.583  0.00  0.00    -0.275 OA
ATOM     27  N   UNL     1       5.569  -0.269  -5.286  0.00  0.00    -0.314 N 
ATOM     28  H   UNL     1       5.582  -0.964  -5.963  0.00  0.00    +0.149 HD
BRANCH  27  29
ATOM     29  C   UNL     1       6.675   0.686  -5.194  0.00  0.00    +0.109 C 
BRANCH  29  30
ATOM     30  C   UNL     1       7.713   0.370  -6.273  0.00  0.00    +0.054 C 
BRANCH  30  31
ATOM     31  C   UNL     1       8.851   1.353  -6.179  0.00  0.00    -0.042 A 
ATOM     32  C   UNL     1       8.801   2.537  -6.892  0.00  0.00    +0.007 A 
ATOM     33  C   UNL     1       9.843   3.442  -6.809  0.00  0.00    +0.049 A 
ATOM     34  C   UNL     1      10.940   3.164  -6.009  0.00  0.00    +0.161 A 
ATOM     35  C   UNL     1      10.990   1.973  -5.291  0.00  0.00    +0.162 A 
ATOM     36  C   UNL     1       9.940   1.073  -5.375  0.00  0.00    +0.053 A 
BRANCH  35  37
ATOM     37  O   UNL     1      12.064   1.696  -4.505  0.00  0.00    -0.491 OA
ATOM     38  C   UNL     1      12.047   0.455  -3.797  0.00  0.00    +0.277 C 
ENDBRANCH  35  37
BRANCH  34  39
ATOM     39  O   UNL     1      11.966   4.053  -5.926  0.00  0.00    -0.491 OA
ATOM     40  C   UNL     1      11.846   5.255  -6.691  0.00  0.00    +0.277 C 
ENDBRANCH  34  39
ENDBRANCH  30  31
ENDBRANCH  29  30
ENDBRANCH  27  29
ENDBRANCH  24  25
ENDBRANCH  23  24
ENDBRANCH  10  23
TORSDOF 10
