REMARK  Name = ZINC63374133
REMARK  10 active torsions:
REMARK  status: ('A' for Active; 'I' for Inactive)
REMARK    1  A    between atoms: C_1  and  C_2
REMARK    2  A    between atoms: C_2  and  C_3
REMARK    3  A    between atoms: C_3  and  O_4
REMARK    4  A    between atoms: O_4  and  C_5
REMARK    5  A    between atoms: C_8  and  C_14
REMARK    6  A    between atoms: C_10  and  O_11
REMARK    7  A    between atoms: O_11  and  C_12
REMARK    8  A    between atoms: C_12  and  C_13
REMARK    9  A    between atoms: N_20  and  C_35
REMARK   10  A    between atoms: C_23  and  C_34
REMARK                            x       y       z     vdW  Elec       q    Type
REMARK                         _______ _______ _______ _____ _____    ______ ____
ROOT
ATOM      1  C   UNL     1       3.312  -4.484   5.565  0.00  0.00    +0.065 C 
ATOM      2  C   UNL     1       2.667  -4.083   6.907  0.00  0.00    +0.123 C 
ATOM      3  N   UNL     1       3.676  -3.373   7.697  0.00  0.00    -0.268 N 
ATOM      4  C   UNL     1       3.604  -2.138   8.212  0.00  0.00    +0.317 C 
ATOM      5  O   UNL     1       2.591  -1.466   8.222  0.00  0.00    -0.252 OA
ATOM      6  N   UNL     1       4.777  -1.730   8.716  0.00  0.00    -0.192 N 
ATOM      7  C   UNL     1       5.713  -2.699   8.646  0.00  0.00    +0.253 C 
ATOM      8  O   UNL     1       6.873  -2.624   8.987  0.00  0.00    -0.272 OA
ATOM      9  C   UNL     1       5.011  -3.900   8.052  0.00  0.00    +0.137 C 
ATOM     10  C   UNL     1       5.695  -4.345   6.761  0.00  0.00    +0.139 C 
ATOM     11  C   UNL     1       4.748  -4.026   5.612  0.00  0.00    -0.027 C 
ATOM     12  C   UNL     1       5.447  -3.291   4.750  0.00  0.00    -0.000 A 
ATOM     13  C   UNL     1       5.108  -2.758   3.421  0.00  0.00    +0.010 A 
ATOM     14  C   UNL     1       6.069  -2.016   2.810  0.00  0.00    +0.001 A 
ATOM     15  C   UNL     1       7.318  -1.755   3.382  0.00  0.00    +0.002 A 
ATOM     16  C   UNL     1       7.718  -2.212   4.596  0.00  0.00    +0.026 A 
ATOM     17  C   UNL     1       6.795  -3.011   5.332  0.00  0.00    +0.043 A 
ATOM     18  N   UNL     1       6.925  -3.596   6.502  0.00  0.00    -0.375 N 
ATOM     19  C   UNL     1       4.908  -5.042   9.066  0.00  0.00    +0.044 C 
ATOM     20  H   UNL     1       7.694  -3.545   7.091  0.00  0.00    +0.160 HD
ENDROOT
BRANCH   1  24
ATOM     21  C   UNL     1       1.274  -2.560   2.335  0.00  0.00    +0.162 A 
ATOM     22  C   UNL     1       1.862  -1.803   3.335  0.00  0.00    +0.050 A 
ATOM     23  C   UNL     1       2.520  -2.428   4.378  0.00  0.00    +0.008 A 
ATOM     24  C   UNL     1       2.593  -3.808   4.426  0.00  0.00    -0.035 A 
ATOM     25  C   UNL     1       2.008  -4.569   3.431  0.00  0.00    +0.053 A 
ATOM     26  C   UNL     1       1.342  -3.949   2.386  0.00  0.00    +0.162 A 
BRANCH  21  27
ATOM     27  O   UNL     1       0.625  -1.947   1.308  0.00  0.00    -0.488 OA
BRANCH  27  28
ATOM     28  C   UNL     1       0.595  -0.518   1.321  0.00  0.00    +0.229 C 
BRANCH  28  30
ATOM     29  C   UNL     1      -0.204   1.516   0.112  0.00  0.00    +0.007 C 
ATOM     30  C   UNL     1      -0.172  -0.013   0.098  0.00  0.00    +0.038 C 
ENDBRANCH  28  30
ENDBRANCH  27  28
ENDBRANCH  21  27
BRANCH  26  31
ATOM     31  O   UNL     1       0.761  -4.696   1.409  0.00  0.00    -0.489 OA
BRANCH  31  32
ATOM     32  C   UNL     1       0.871  -6.116   1.526  0.00  0.00    +0.226 C 
ATOM     33  C   UNL     1       0.162  -6.782   0.345  0.00  0.00    +0.048 C 
ENDBRANCH  31  32
ENDBRANCH  26  31
ENDBRANCH   1  24
BRANCH   6  34
ATOM     34  C   UNL     1       5.004  -0.453   9.249  0.00  0.00    +0.045 A 
ATOM     35  C   UNL     1       6.216  -0.160   9.859  0.00  0.00    +0.024 A 
ATOM     36  C   UNL     1       6.437   1.099  10.383  0.00  0.00    +0.002 A 
ATOM     37  C   UNL     1       5.452   2.066  10.302  0.00  0.00    +0.000 A 
ATOM     38  C   UNL     1       4.244   1.777   9.695  0.00  0.00    +0.002 A 
ATOM     39  C   UNL     1       4.019   0.522   9.163  0.00  0.00    +0.024 A 
ENDBRANCH   6  34
TORSDOF 7
