REMARK  Name = ZINC28060384
REMARK  3 active torsions:
REMARK  status: ('A' for Active; 'I' for Inactive)
REMARK    1  A    between atoms: C_1  and  C_2
REMARK    2  A    between atoms: C_6  and  C_8
REMARK    3  A    between atoms: C_25  and  C_27
REMARK                            x       y       z     vdW  Elec       q    Type
REMARK                         _______ _______ _______ _____ _____    ______ ____
ROOT
ATOM      1  C   UNL     1       1.245   2.020   0.001  0.00  0.00    +0.234 C 
ATOM      2  C   UNL     1       2.107   1.352   1.049  0.00  0.00    +0.026 C 
ATOM      3  C   UNL     1       1.922   0.057   1.313  0.00  0.00    +0.050 C 
ATOM      4  C   UNL     1       0.851  -0.666   0.586  0.00  0.00    +0.038 A 
ATOM      5  C   UNL     1       0.806  -2.054   0.550  0.00  0.00    +0.013 A 
ATOM      6  C   UNL     1      -0.214  -2.685  -0.136  0.00  0.00    +0.001 A 
ATOM      7  C   UNL     1      -1.184  -1.941  -0.785  0.00  0.00    +0.004 A 
ATOM      8  C   UNL     1      -1.146  -0.559  -0.755  0.00  0.00    +0.046 A 
ATOM      9  C   UNL     1      -0.131   0.086  -0.072  0.00  0.00    +0.131 A 
ATOM     10  O   UNL     1      -0.058   1.440  -0.021  0.00  0.00    -0.479 OA
ATOM     11  N   UNL     1       2.707  -0.636   2.242  0.00  0.00    -0.282 N 
ATOM     12  C   UNL     1       3.857  -0.010   2.696  0.00  0.00    +0.240 A 
ATOM     13  N   UNL     1       4.877  -0.467   3.362  0.00  0.00    -0.092 NA
ATOM     14  N   UNL     1       5.735   0.474   3.565  0.00  0.00    -0.021 NA
ATOM     15  N   UNL     1       5.319   1.584   3.046  0.00  0.00    -0.042 NA
ATOM     16  N   UNL     1       4.081   1.310   2.465  0.00  0.00    -0.201 N 
ATOM     17  C   UNL     1       3.156   2.178   1.750  0.00  0.00    +0.181 C 
ATOM     18  H   UNL     1       2.402  -1.636   2.583  0.00  0.00    +0.155 HD
ENDROOT
BRANCH   1  24
ATOM     19  C   UNL     1       3.885   3.907  -3.809  0.00  0.00    +0.044 C 
ATOM     20  C   UNL     1       3.151   2.754  -3.174  0.00  0.00    -0.050 A 
ATOM     21  C   UNL     1       3.067   1.542  -3.833  0.00  0.00    +0.003 A 
ATOM     22  C   UNL     1       2.393   0.484  -3.251  0.00  0.00    +0.001 A 
ATOM     23  C   UNL     1       1.807   0.638  -2.008  0.00  0.00    +0.007 A 
ATOM     24  C   UNL     1       1.887   1.851  -1.352  0.00  0.00    -0.003 A 
ATOM     25  C   UNL     1       2.562   2.909  -1.934  0.00  0.00    +0.011 A 
ENDBRANCH   1  24
BRANCH  17  26
ATOM     26  C   UNL     1       2.487   3.109   2.729  0.00  0.00    +0.019 A 
ATOM     27  C   UNL     1       2.518   4.463   2.775  0.00  0.00    +0.013 A 
ATOM     28  C   UNL     1       1.817   5.116   3.772  0.00  0.00    +0.008 A 
ATOM     29  C   UNL     1       1.129   4.382   4.680  0.00  0.00    +0.045 A 
ATOM     30  S   UNL     1       1.456   2.715   4.131  0.00  0.00    -0.099 S 
ENDBRANCH  17  26
TORSDOF 2
