REMARK  Name = ZINC51317229
REMARK  4 active torsions:
REMARK  status: ('A' for Active; 'I' for Inactive)
REMARK    1  A    between atoms: C_3  and  N_9
REMARK    2  A    between atoms: C_10  and  C_12
REMARK    3  A    between atoms: C_12  and  S_13
REMARK    4  A    between atoms: S_13  and  C_14
REMARK                            x       y       z     vdW  Elec       q    Type
REMARK                         _______ _______ _______ _____ _____    ______ ____
ROOT
ATOM      1  C   UNL     1       4.862   4.236  -0.238  0.00  0.00    +0.173 C 
ENDROOT
BRANCH   1   3
ATOM      2  N   UNL     1       3.585   2.128  -0.021  0.00  0.00    -0.284 N 
ATOM      3  C   UNL     1       3.568   3.473  -0.116  0.00  0.00    +0.228 C 
ATOM      4  O   UNL     1       2.512   4.069  -0.103  0.00  0.00    -0.275 OA
ATOM      5  H   UNL     1       4.430   1.657   0.049  0.00  0.00    +0.155 HD
BRANCH   2   8
ATOM      6  C   UNL     1       0.065   1.244  -0.621  0.00  0.00    +0.040 A 
ATOM      7  C   UNL     1       1.250   1.954  -0.618  0.00  0.00    +0.027 A 
ATOM      8  C   UNL     1       2.381   1.411  -0.024  0.00  0.00    +0.052 A 
ATOM      9  C   UNL     1       2.319   0.155   0.567  0.00  0.00    +0.065 A 
ATOM     10  C   UNL     1       1.131  -0.551   0.562  0.00  0.00    +0.060 A 
ATOM     11  C   UNL     1       0.004  -0.007  -0.031  0.00  0.00    +0.125 A 
ATOM     12  F   UNL     1      -1.157  -0.698  -0.034  0.00  0.00    -0.205 F 
ATOM     13 CL   UNL     1       3.731  -0.527   1.311  0.00  0.00    -0.082 Cl
ENDBRANCH   2   8
ENDBRANCH   1   3
BRANCH   1  14
ATOM     14  S   UNL     1       4.509   6.011  -0.346  0.00  0.00    -0.078 S 
BRANCH  14  15
ATOM     15  C   UNL     1       6.101   6.755  -0.483  0.00  0.00    +0.170 A 
ATOM     16  N   UNL     1       6.180   8.115  -0.578  0.00  0.00    -0.301 N 
ATOM     17  H   UNL     1       5.374   8.655  -0.570  0.00  0.00    +0.171 HD
ATOM     18  C   UNL     1       7.397   8.701  -0.683  0.00  0.00    +0.266 A 
ATOM     19  O   UNL     1       7.503   9.913  -0.769  0.00  0.00    -0.267 OA
ATOM     20  C   UNL     1       8.524   7.883  -0.689  0.00  0.00    +0.102 A 
ATOM     21  C   UNL     1       8.419   6.484  -0.590  0.00  0.00    +0.086 A 
ATOM     22  N   UNL     1       7.153   5.982  -0.483  0.00  0.00    -0.223 NA
ATOM     23  C   UNL     1       9.635   5.785  -0.610  0.00  0.00    +0.036 A 
ATOM     24  C   UNL     1      10.802   6.455  -0.718  0.00  0.00    +0.048 A 
ATOM     25  S   UNL     1      10.272   8.158  -0.803  0.00  0.00    -0.090 S 
ENDBRANCH  14  15
ENDBRANCH   1  14
TORSDOF 4
