REMARK  Name = ZINC09233518
REMARK  2 active torsions:
REMARK  status: ('A' for Active; 'I' for Inactive)
REMARK    1  A    between atoms: N_19  and  C_22
REMARK    2  A    between atoms: C_23  and  C_31
REMARK                            x       y       z     vdW  Elec       q    Type
REMARK                         _______ _______ _______ _____ _____    ______ ____
ROOT
ATOM      1  C   UNL     1       2.225   8.274   1.022  0.00  0.00    +0.000 A 
ATOM      2  C   UNL     1       2.355   9.627   0.763  0.00  0.00    +0.002 A 
ATOM      3  C   UNL     1       3.575  10.150   0.389  0.00  0.00    +0.023 A 
ATOM      4  C   UNL     1       4.687   9.319   0.268  0.00  0.00    +0.036 A 
ATOM      5  C   UNL     1       4.543   7.960   0.530  0.00  0.00    -0.027 A 
ATOM      6  C   UNL     1       3.324   7.442   0.904  0.00  0.00    +0.004 A 
ATOM      7  C   UNL     1       5.902   7.354   0.314  0.00  0.00    +0.053 C 
ATOM      8  C   UNL     1       5.865   6.273  -0.773  0.00  0.00    +0.089 C 
ATOM      9  C   UNL     1       6.875   5.196  -0.291  0.00  0.00    +0.074 C 
ATOM     10  C   UNL     1       7.427   5.729   1.044  0.00  0.00    -0.054 C 
ATOM     11  C   UNL     1       5.334   5.848   2.119  0.00  0.00    -0.076 C 
ATOM     12  C   UNL     1       6.074   4.680   2.800  0.00  0.00    -0.020 C 
ATOM     13  C   UNL     1       7.435   4.592   2.082  0.00  0.00    -0.016 C 
ATOM     14  C   UNL     1       6.000   3.991  -0.029  0.00  0.00    +0.229 C 
ATOM     15  O   UNL     1       6.391   2.915   0.370  0.00  0.00    -0.275 OA
ATOM     16  N   UNL     1       4.727   4.297  -0.304  0.00  0.00    -0.203 N 
ATOM     17  C   UNL     1       4.538   5.549  -0.735  0.00  0.00    +0.230 C 
ATOM     18  O   UNL     1       3.469   6.029  -1.045  0.00  0.00    -0.275 OA
ATOM     19  C   UNL     1       6.783   8.506  -0.088  0.00  0.00    +0.212 C 
ATOM     20  O   UNL     1       7.964   8.454  -0.358  0.00  0.00    -0.277 OA
ATOM     21  N   UNL     1       6.006   9.606  -0.090  0.00  0.00    -0.286 N 
ATOM     22  H   UNL     1       6.325  10.494  -0.314  0.00  0.00    +0.155 HD
ATOM     23  N   UNL     1       6.408   6.649   1.495  0.00  0.00    +0.395 N 
ATOM     24  H   UNL     1       6.792   7.318   2.172  0.00  0.00    -0.079 HD
ENDROOT
BRANCH  16  25
ATOM     25  C   UNL     1       3.686   3.385  -0.159  0.00  0.00    +0.099 A 
ATOM     26  C   UNL     1       3.187   2.492  -1.094  0.00  0.00    +0.084 A 
ATOM     27  C   UNL     1       2.083   1.640  -0.689  0.00  0.00    -0.018 A 
ATOM     28  C   UNL     1       1.656   1.818   0.581  0.00  0.00    -0.004 A 
ATOM     29  S   UNL     1       2.697   3.092   1.233  0.00  0.00    -0.076 S 
ATOM     30  C   UNL     1       0.544   1.088   1.270  0.00  0.00    +0.043 C 
ATOM     31  C   UNL     1      -0.292   0.364   0.204  0.00  0.00    +0.005 C 
ATOM     32  C   UNL     1       0.652  -0.388  -0.737  0.00  0.00    +0.005 C 
ATOM     33  C   UNL     1       1.429   0.609  -1.600  0.00  0.00    +0.037 C 
BRANCH  26  34
ATOM     34  C   UNL     1       3.741   2.412  -2.413  0.00  0.00    +0.102 C 
ATOM     35  N   UNL     1       4.180   2.349  -3.458  0.00  0.00    -0.191 NA
ENDBRANCH  26  34
ENDBRANCH  16  25
TORSDOF 2
