REMARK  Name = ZINC35201077
REMARK  12 active torsions:
REMARK  status: ('A' for Active; 'I' for Inactive)
REMARK    1  A    between atoms: C_1  and  C_2
REMARK    2  A    between atoms: C_2  and  C_3
REMARK    3  A    between atoms: C_8  and  N_9
REMARK    4  A    between atoms: N_12  and  C_13
REMARK    5  A    between atoms: C_13  and  C_15
REMARK    6  A    between atoms: C_13  and  C_16
REMARK    7  A    between atoms: C_19  and  S_30
REMARK    8  A    between atoms: N_20  and  C_21
REMARK    9  A    between atoms: C_24  and  N_27
REMARK   10  A    between atoms: S_30  and  C_31
REMARK   11  A    between atoms: C_31  and  C_32
REMARK   12  A    between atoms: C_36  and  C_38
REMARK                            x       y       z     vdW  Elec       q    Type
REMARK                         _______ _______ _______ _____ _____    ______ ____
ROOT
ATOM      1  C   UNL     1      -5.314   0.206   4.948  0.00  0.00    +0.159 A 
ATOM      2  N   UNL     1      -6.151   0.370   3.962  0.00  0.00    -0.131 NA
ATOM      3  N   UNL     1      -7.110   1.147   4.321  0.00  0.00    -0.122 NA
ATOM      4  C   UNL     1      -6.937   1.526   5.566  0.00  0.00    +0.196 A 
ATOM      5  N   UNL     1      -5.787   0.932   6.009  0.00  0.00    -0.273 N 
ENDROOT
BRANCH   5   6
ATOM      6  C   UNL     1      -5.210   1.046   7.282  0.00  0.00    +0.050 A 
ATOM      7  C   UNL     1      -5.113  -0.070   8.103  0.00  0.00    +0.028 A 
ATOM      8  C   UNL     1      -4.545   0.045   9.357  0.00  0.00    +0.035 A 
ATOM      9  C   UNL     1      -4.073   1.269   9.794  0.00  0.00    +0.126 A 
ATOM     10  C   UNL     1      -4.169   2.382   8.979  0.00  0.00    +0.035 A 
ATOM     11  C   UNL     1      -4.731   2.272   7.722  0.00  0.00    +0.028 A 
BRANCH   9  12
ATOM     12  N   UNL     1      -3.465   1.389  11.139  0.00  0.00    +0.056 N 
ATOM     13  O   UNL     1      -3.381   0.417  11.853  0.00  0.00    -0.126 OA
ATOM     14  O   UNL     1      -3.053   2.459  11.523  0.00  0.00    -0.126 OA
ENDBRANCH   9  12
ENDBRANCH   5   6
BRANCH   1  15
ATOM     15  C   UNL     1      -4.061  -0.631   4.926  0.00  0.00    +0.140 C 
ATOM     16  C   UNL     1      -4.437  -2.113   4.993  0.00  0.00    +0.036 C 
BRANCH  15  20
ATOM     17  N   UNL     1      -1.309  -0.339   2.505  0.00  0.00    -0.269 N 
ATOM     18  C   UNL     1      -1.990  -0.578   3.643  0.00  0.00    +0.304 C 
ATOM     19  O   UNL     1      -1.404  -0.981   4.629  0.00  0.00    -0.252 OA
ATOM     20  N   UNL     1      -3.321  -0.371   3.689  0.00  0.00    -0.290 N 
ATOM     21  H   UNL     1      -1.765   0.044   1.739  0.00  0.00    +0.156 HD
ATOM     22  H   UNL     1      -3.789  -0.050   2.902  0.00  0.00    +0.151 HD
BRANCH  17  28
ATOM     23  C   UNL     1       0.600  -1.101   1.237  0.00  0.00    -0.026 A 
ATOM     24  C   UNL     1       1.947  -1.394   1.163  0.00  0.00    +0.005 A 
ATOM     25  C   UNL     1       2.753  -1.237   2.276  0.00  0.00    +0.000 A 
ATOM     26  C   UNL     1       2.212  -0.786   3.466  0.00  0.00    +0.002 A 
ATOM     27  C   UNL     1       0.865  -0.491   3.546  0.00  0.00    +0.023 A 
ATOM     28  C   UNL     1       0.055  -0.642   2.429  0.00  0.00    +0.038 A 
BRANCH  23  30
ATOM     29  C   UNL     1      -0.394   0.062  -0.715  0.00  0.00    +0.009 C 
ATOM     30  C   UNL     1      -0.277  -1.273   0.023  0.00  0.00    +0.033 C 
ENDBRANCH  23  30
ENDBRANCH  17  28
ENDBRANCH  15  20
ENDBRANCH   1  15
BRANCH   4  31
ATOM     31  S   UNL     1      -7.991   2.591   6.494  0.00  0.00    -0.081 S 
BRANCH  31  32
ATOM     32  C   UNL     1      -9.321   3.010   5.334  0.00  0.00    +0.112 C 
BRANCH  32  33
ATOM     33  C   UNL     1     -10.305   3.930   6.010  0.00  0.00    -0.037 A 
ATOM     34  C   UNL     1     -11.381   3.403   6.700  0.00  0.00    +0.004 A 
ATOM     35  C   UNL     1     -12.284   4.246   7.320  0.00  0.00    +0.001 A 
ATOM     36  C   UNL     1     -12.111   5.616   7.250  0.00  0.00    +0.003 A 
ATOM     37  C   UNL     1     -11.035   6.143   6.561  0.00  0.00    -0.050 A 
ATOM     38  C   UNL     1     -10.130   5.299   5.944  0.00  0.00    +0.007 A 
ATOM     39  C   UNL     1     -10.847   7.636   6.484  0.00  0.00    +0.044 C 
ENDBRANCH  32  33
ENDBRANCH  31  32
ENDBRANCH   4  31
TORSDOF 9
