REMARK  Name = ZINC08626668
REMARK  8 active torsions:
REMARK  status: ('A' for Active; 'I' for Inactive)
REMARK    1  A    between atoms: C_8  and  C_12
REMARK    2  A    between atoms: C_12  and  O_14
REMARK    3  A    between atoms: O_14  and  N_15
REMARK    4  A    between atoms: C_16  and  C_17
REMARK    5  A    between atoms: C_20  and  O_23
REMARK    6  A    between atoms: O_23  and  C_24
REMARK    7  A    between atoms: C_27  and  C_33
REMARK    8  A    between atoms: C_29  and  N_30
REMARK                            x       y       z     vdW  Elec       q    Type
REMARK                         _______ _______ _______ _____ _____    ______ ____
ROOT
ATOM      1  C   UNL     1       4.951  -8.315   0.676  0.00  0.00    +0.018 A 
ATOM      2  C   UNL     1       3.727  -8.973   0.548  0.00  0.00    +0.015 A 
ATOM      3  C   UNL     1       3.682 -10.350   0.562  0.00  0.00    +0.047 A 
ATOM      4  C   UNL     1       4.853 -11.083   0.705  0.00  0.00    +0.129 A 
ATOM      5  C   UNL     1       6.073 -10.432   0.833  0.00  0.00    +0.047 A 
ATOM      6  C   UNL     1       6.126  -9.055   0.814  0.00  0.00    +0.015 A 
ENDROOT
BRANCH   1   8
ATOM      7  N   UNL     1       3.906  -6.147   0.532  0.00  0.00    -0.059 NA
ATOM      8  C   UNL     1       5.003  -6.837   0.661  0.00  0.00    +0.163 C 
ATOM      9  N   UNL     1       6.218  -6.186   0.782  0.00  0.00    -0.340 N 
ATOM     10  H   UNL     1       6.252  -5.217   0.772  0.00  0.00    +0.144 HD
ATOM     11  H   UNL     1       7.036  -6.699   0.878  0.00  0.00    +0.144 HD
BRANCH   7  12
ATOM     12  O   UNL     1       3.956  -4.732   0.517  0.00  0.00    -0.310 OA
BRANCH  12  13
ATOM     13  C   UNL     1       2.753  -4.143   0.379  0.00  0.00    +0.373 C 
ATOM     14  O   UNL     1       1.750  -4.824   0.281  0.00  0.00    -0.242 OA
BRANCH  13  22
ATOM     15  C   UNL     1       0.207   1.446   0.225  0.00  0.00    +0.001 A 
ATOM     16  C   UNL     1       1.403   2.146   0.148  0.00  0.00    +0.004 A 
ATOM     17  C   UNL     1       2.605   1.476   0.055  0.00  0.00    +0.047 A 
ATOM     18  C   UNL     1       2.622   0.087   0.044  0.00  0.00    +0.139 A 
ATOM     19  C   UNL     1       1.411  -0.622   0.151  0.00  0.00    +0.018 A 
ATOM     20  C   UNL     1       0.200   0.081   0.222  0.00  0.00    +0.011 A 
ATOM     21  C   UNL     1       1.425  -2.039   0.205  0.00  0.00    +0.033 A 
ATOM     22  C   UNL     1       2.652  -2.676   0.347  0.00  0.00    +0.146 A 
ATOM     23  C   UNL     1       3.848  -1.822   0.464  0.00  0.00    +0.352 A 
ATOM     24  O   UNL     1       4.851  -2.219   1.027  0.00  0.00    -0.244 OA
ATOM     25  O   UNL     1       3.794  -0.583  -0.075  0.00  0.00    -0.422 OA
ENDBRANCH  13  22
ENDBRANCH  12  13
ENDBRANCH   7  12
ENDBRANCH   1   8
BRANCH   4  26
ATOM     26  O   UNL     1       4.805 -12.440   0.719  0.00  0.00    -0.454 OA
BRANCH  26  27
ATOM     27  C   UNL     1       5.112 -13.077   1.879  0.00  0.00    +0.159 A 
ATOM     28  C   UNL     1       5.334 -12.344   3.037  0.00  0.00    +0.049 A 
ATOM     29  C   UNL     1       5.645 -12.994   4.215  0.00  0.00    +0.016 A 
ATOM     30  C   UNL     1       5.735 -14.374   4.242  0.00  0.00    +0.057 A 
ATOM     31  C   UNL     1       5.514 -15.106   3.091  0.00  0.00    +0.048 A 
ATOM     32  C   UNL     1       5.197 -14.461   1.911  0.00  0.00    +0.169 A 
BRANCH  30  33
ATOM     33  C   UNL     1       6.074 -15.080   5.529  0.00  0.00    +0.417 C 
ATOM     34  F   UNL     1       6.252 -14.136   6.547  0.00  0.00    -0.166 F 
ATOM     35  F   UNL     1       5.032 -15.947   5.875  0.00  0.00    -0.166 F 
ATOM     36  F   UNL     1       7.254 -15.813   5.362  0.00  0.00    -0.166 F 
ENDBRANCH  30  33
BRANCH  32  37
ATOM     37  N   UNL     1       4.954 -15.247   0.680  0.00  0.00    +0.060 N 
ATOM     38  O   UNL     1       5.028 -16.453   0.708  0.00  0.00    -0.126 OA
ATOM     39  O   UNL     1       4.681 -14.682  -0.354  0.00  0.00    -0.126 OA
ENDBRANCH  32  37
ENDBRANCH  26  27
ENDBRANCH   4  26
TORSDOF 8
