REMARK  Name = ZINC39898873
REMARK  11 active torsions:
REMARK  status: ('A' for Active; 'I' for Inactive)
REMARK    1  A    between atoms: C_1  and  C_2
REMARK    2  A    between atoms: C_2  and  C_3
REMARK    3  A    between atoms: C_3  and  C_4
REMARK    4  A    between atoms: C_4  and  C_5
REMARK    5  A    between atoms: C_5  and  O_6
REMARK    6  A    between atoms: O_6  and  C_7
REMARK    7  A    between atoms: C_11  and  C_13
REMARK    8  A    between atoms: C_16  and  C_31
REMARK    9  A    between atoms: N_23  and  C_24
REMARK   10  A    between atoms: C_24  and  C_25
REMARK   11  A    between atoms: C_36  and  O_37
REMARK                            x       y       z     vdW  Elec       q    Type
REMARK                         _______ _______ _______ _____ _____    ______ ____
ROOT
ATOM      1  C   UNL     1       2.812  -8.020  -4.835  0.00  0.00    +0.142 C 
ATOM      2  C   UNL     1       4.194  -8.523  -4.522  0.00  0.00    +0.035 A 
ATOM      3  C   UNL     1       5.235  -8.610  -3.591  0.00  0.00    +0.102 A 
ATOM      4  N   UNL     1       6.212  -9.293  -4.154  0.00  0.00    -0.173 NA
ATOM      5  N   UNL     1       5.892  -9.645  -5.348  0.00  0.00    -0.272 N 
ATOM      6  H   UNL     1       6.458 -10.155  -5.949  0.00  0.00    +0.189 HD
ATOM      7  C   UNL     1       4.638  -9.195  -5.645  0.00  0.00    +0.126 A 
ATOM      8  C   UNL     1       3.586  -9.139  -6.667  0.00  0.00    +0.266 C 
ATOM      9  O   UNL     1       3.666  -9.638  -7.773  0.00  0.00    -0.268 OA
ATOM     10  N   UNL     1       2.519  -8.459  -6.206  0.00  0.00    -0.281 N 
ENDROOT
BRANCH   3  11
ATOM     11  C   UNL     1       5.238  -8.039  -2.221  0.00  0.00    +0.045 A 
ATOM     12  C   UNL     1       4.086  -7.446  -1.708  0.00  0.00    +0.033 A 
ATOM     13  C   UNL     1       4.094  -6.916  -0.432  0.00  0.00    +0.042 A 
ATOM     14  C   UNL     1       5.243  -6.971   0.338  0.00  0.00    +0.023 A 
ATOM     15  C   UNL     1       6.391  -7.556  -0.163  0.00  0.00    +0.047 A 
ATOM     16  C   UNL     1       6.394  -8.098  -1.438  0.00  0.00    +0.126 A 
ATOM     17 CL   UNL     1       2.659  -6.177   0.206  0.00  0.00    -0.084 Cl
BRANCH  16  18
ATOM     18  O   UNL     1       7.520  -8.679  -1.929  0.00  0.00    -0.506 OA
ATOM     19  H   UNL     1       8.106  -8.068  -2.397  0.00  0.00    +0.292 HD
ENDBRANCH  16  18
ENDBRANCH   3  11
BRANCH   1  24
ATOM     20  C   UNL     1       1.963  -4.511  -3.723  0.00  0.00    +0.121 A 
ATOM     21  C   UNL     1       2.713  -3.752  -4.609  0.00  0.00    +0.045 A 
ATOM     22  C   UNL     1       3.492  -4.378  -5.564  0.00  0.00    +0.004 A 
ATOM     23  C   UNL     1       3.523  -5.758  -5.636  0.00  0.00    +0.006 A 
ATOM     24  C   UNL     1       2.776  -6.516  -4.754  0.00  0.00    -0.019 A 
ATOM     25  C   UNL     1       2.000  -5.895  -3.794  0.00  0.00    +0.051 A 
BRANCH  20  26
ATOM     26  O   UNL     1       1.196  -3.898  -2.782  0.00  0.00    -0.492 OA
BRANCH  26  27
ATOM     27  C   UNL     1       1.206  -2.469  -2.768  0.00  0.00    +0.229 C 
BRANCH  27  28
ATOM     28  C   UNL     1       0.292  -1.964  -1.650  0.00  0.00    +0.041 C 
BRANCH  28  29
ATOM     29  C   UNL     1       0.303  -0.434  -1.635  0.00  0.00    +0.003 C 
BRANCH  29  31
ATOM     30  C   UNL     1      -0.601   1.601  -0.501  0.00  0.00    +0.004 C 
ATOM     31  C   UNL     1      -0.612   0.072  -0.517  0.00  0.00    -0.003 C 
ENDBRANCH  29  31
ENDBRANCH  28  29
ENDBRANCH  27  28
ENDBRANCH  26  27
ENDBRANCH  20  26
ENDBRANCH   1  24
BRANCH  10  32
ATOM     32  C   UNL     1       1.280  -8.201  -6.944  0.00  0.00    +0.144 C 
BRANCH  32  33
ATOM     33  C   UNL     1       1.407  -6.905  -7.701  0.00  0.00    -0.030 A 
ATOM     34  C   UNL     1       1.033  -5.716  -7.104  0.00  0.00    +0.005 A 
ATOM     35  C   UNL     1       1.149  -4.527  -7.799  0.00  0.00    +0.000 A 
ATOM     36  C   UNL     1       1.640  -4.527  -9.091  0.00  0.00    +0.000 A 
ATOM     37  C   UNL     1       2.015  -5.716  -9.688  0.00  0.00    +0.000 A 
ATOM     38  C   UNL     1       1.903  -6.904  -8.992  0.00  0.00    +0.005 A 
ENDBRANCH  32  33
ENDBRANCH  10  32
TORSDOF 10
