REMARK  Name = ZINC64651167
REMARK  5 active torsions:
REMARK  status: ('A' for Active; 'I' for Inactive)
REMARK    1  A    between atoms: C_6  and  C_11
REMARK    2  A    between atoms: N_13  and  C_14
REMARK    3  A    between atoms: C_14  and  C_15
REMARK    4  A    between atoms: N_20  and  C_22
REMARK    5  A    between atoms: C_22  and  C_23
REMARK                            x       y       z     vdW  Elec       q    Type
REMARK                         _______ _______ _______ _____ _____    ______ ____
ROOT
ATOM      1  C   UNL     1       3.331  -6.036   2.823  0.00  0.00    -0.011 C 
ATOM      2  C   UNL     1       1.807  -6.188   2.833  0.00  0.00    +0.001 C 
ATOM      3  C   UNL     1       1.450  -7.671   2.704  0.00  0.00    -0.018 C 
ATOM      4  C   UNL     1       2.118  -8.451   3.840  0.00  0.00    -0.079 C 
ATOM      5  N   UNL     1       3.574  -8.288   3.760  0.00  0.00    +0.382 N 
ATOM      6  C   UNL     1       3.930  -6.877   3.953  0.00  0.00    -0.074 C 
ATOM      7  H   UNL     1       3.897  -8.593   2.854  0.00  0.00    -0.082 HD
ENDROOT
BRANCH   1   8
ATOM      8  C   UNL     1       3.700  -4.566   3.029  0.00  0.00    +0.106 C 
BRANCH   8  11
ATOM      9  C   UNL     1       3.442  -2.449   1.850  0.00  0.00    +0.239 C 
ATOM     10  O   UNL     1       4.026  -1.903   2.762  0.00  0.00    -0.273 OA
ATOM     11  N   UNL     1       3.228  -3.779   1.887  0.00  0.00    -0.313 N 
ATOM     12  H   UNL     1       2.761  -4.216   1.157  0.00  0.00    +0.149 HD
BRANCH   9  18
ATOM     13  C   UNL     1      -0.425   1.535   0.876  0.00  0.00    +0.001 A 
ATOM     14  C   UNL     1       0.701   2.355   1.028  0.00  0.00    +0.002 A 
ATOM     15  C   UNL     1       1.961   1.870   1.035  0.00  0.00    +0.026 A 
ATOM     16  C   UNL     1       2.195   0.475   0.884  0.00  0.00    +0.043 A 
ATOM     17  N   UNL     1       3.302  -0.226   0.857  0.00  0.00    -0.370 N 
ATOM     18  C   UNL     1       2.956  -1.640   0.675  0.00  0.00    +0.190 C 
ATOM     19  C   UNL     1       1.447  -1.690   0.594  0.00  0.00    +0.016 C 
ATOM     20  C   UNL     1       1.022  -0.412   0.722  0.00  0.00    -0.004 A 
ATOM     21  C   UNL     1      -0.314   0.195   0.726  0.00  0.00    +0.010 A 
ATOM     22  H   UNL     1       4.200   0.131   0.943  0.00  0.00    +0.161 HD
ENDBRANCH   9  18
ENDBRANCH   8  11
ENDBRANCH   1   8
BRANCH   5  23
ATOM     23  C   UNL     1       4.214  -9.100   4.803  0.00  0.00    -0.045 C 
BRANCH  23  24
ATOM     24  C   UNL     1       5.702  -9.259   4.485  0.00  0.00    +0.117 C 
ATOM     25  N   UNL     1       6.363  -7.951   4.381  0.00  0.00    -0.333 N 
ATOM     26  C   UNL     1       6.932  -7.611   3.154  0.00  0.00    +0.042 A 
ATOM     27  C   UNL     1       7.602  -6.409   2.867  0.00  0.00    +0.024 A 
ATOM     28  C   UNL     1       8.130  -6.167   1.620  0.00  0.00    +0.002 A 
ATOM     29  C   UNL     1       8.018  -7.099   0.605  0.00  0.00    +0.001 A 
ATOM     30  C   UNL     1       7.363  -8.293   0.859  0.00  0.00    +0.016 A 
ATOM     31  C   UNL     1       6.836  -8.534   2.107  0.00  0.00    +0.030 A 
ATOM     32  S   UNL     1       5.948  -9.918   2.787  0.00  0.00    -0.103 S 
ATOM     33  H   UNL     1       6.402  -7.345   5.138  0.00  0.00    +0.147 HD
ENDBRANCH  23  24
ENDBRANCH   5  23
TORSDOF 5
