REMARK  Name = ZINC01945005
REMARK  2 active torsions:
REMARK  status: ('A' for Active; 'I' for Inactive)
REMARK    1  A    between atoms: C_1  and  C_2
REMARK    2  A    between atoms: C_2  and  N_3
REMARK                            x       y       z     vdW  Elec       q    Type
REMARK                         _______ _______ _______ _____ _____    ______ ____
ROOT
ATOM      1  N   UNL     1      -6.484   0.270  -0.651  0.00  0.00    -0.211 N 
ATOM      2  C   UNL     1      -5.184   0.422  -1.002  0.00  0.00    +0.279 A 
ATOM      3  O   UNL     1      -4.800   0.274  -2.149  0.00  0.00    -0.265 OA
ATOM      4  C   UNL     1      -4.288   0.771   0.067  0.00  0.00    +0.079 A 
ATOM      5  C   UNL     1      -2.859   0.990  -0.041  0.00  0.00    -0.023 A 
ATOM      6  C   UNL     1      -2.205   1.311   1.102  0.00  0.00    -0.004 A 
ATOM      7  S   UNL     1      -3.457   1.336   2.360  0.00  0.00    -0.071 S 
ATOM      8  C   UNL     1      -4.847   0.917   1.356  0.00  0.00    +0.138 A 
ATOM      9  N   UNL     1      -6.136   0.753   1.636  0.00  0.00    -0.123 NA
ATOM     10  N   UNL     1      -6.930   0.439   0.660  0.00  0.00    -0.062 NA
ATOM     11  C   UNL     1      -0.738   1.584   1.266  0.00  0.00    +0.043 C 
ATOM     12  C   UNL     1      -0.013   1.086   0.008  0.00  0.00    +0.005 C 
ATOM     13  C   UNL     1      -0.760   1.597  -1.227  0.00  0.00    +0.005 C 
ATOM     14  C   UNL     1      -2.100   0.873  -1.360  0.00  0.00    +0.037 C 
ENDROOT
BRANCH   1  16
ATOM     15  C   UNL     1      -7.561  -1.609  -1.788  0.00  0.00    +0.029 C 
ATOM     16  C   UNL     1      -7.457  -0.086  -1.687  0.00  0.00    +0.146 C 
ENDBRANCH   1  16
TORSDOF 1
