REMARK  Name = ZINC35993364
REMARK  11 active torsions:
REMARK  status: ('A' for Active; 'I' for Inactive)
REMARK    1  A    between atoms: C_1  and  C_2
REMARK    2  A    between atoms: C_2  and  O_3
REMARK    3  A    between atoms: O_3  and  C_4
REMARK    4  A    between atoms: C_4  and  C_6
REMARK    5  A    between atoms: C_7  and  C_22
REMARK    6  A    between atoms: N_8  and  C_21
REMARK    7  A    between atoms: C_12  and  C_14
REMARK    8  A    between atoms: C_19  and  C_20
REMARK    9  A    between atoms: C_22  and  N_23
REMARK   10  A    between atoms: C_27  and  C_30
REMARK   11  A    between atoms: C_31  and  C_33
REMARK                            x       y       z     vdW  Elec       q    Type
REMARK                         _______ _______ _______ _____ _____    ______ ____
ROOT
ATOM      1  C   UNL     1       0.139  -1.516  -0.330  0.00  0.00    +0.080 C 
ATOM      2  C   UNL     1       0.546  -2.728  -0.765  0.00  0.00    +0.041 C 
ATOM      3  N   UNL     1       1.487  -2.844  -1.748  0.00  0.00    -0.260 N 
ATOM      4  C   UNL     1       2.069  -1.796  -2.346  0.00  0.00    +0.307 C 
ATOM      5  O   UNL     1       2.897  -2.000  -3.212  0.00  0.00    -0.252 OA
ATOM      6  N   UNL     1       1.766  -0.524  -2.019  0.00  0.00    -0.288 N 
ATOM      7  C   UNL     1       0.757  -0.291  -0.973  0.00  0.00    +0.144 C 
ATOM      8  C   UNL     1       1.882  -4.189  -2.172  0.00  0.00    +0.139 C 
ATOM      9  H   UNL     1       2.201   0.220  -2.465  0.00  0.00    +0.151 HD
ENDROOT
BRANCH   7  10
ATOM     10  C   UNL     1      -0.356   0.532  -1.569  0.00  0.00    -0.020 A 
ATOM     11  C   UNL     1      -0.740   0.328  -2.882  0.00  0.00    +0.006 A 
ATOM     12  C   UNL     1      -1.760   1.083  -3.429  0.00  0.00    +0.000 A 
ATOM     13  C   UNL     1      -2.397   2.042  -2.663  0.00  0.00    +0.000 A 
ATOM     14  C   UNL     1      -2.014   2.245  -1.351  0.00  0.00    +0.004 A 
ATOM     15  C   UNL     1      -0.996   1.487  -0.802  0.00  0.00    -0.045 A 
ATOM     16  C   UNL     1      -0.582   1.705   0.630  0.00  0.00    +0.044 C 
ENDBRANCH   7  10
BRANCH   1  17
ATOM     17  C   UNL     1      -0.836  -1.395   0.688  0.00  0.00    +0.339 C 
ATOM     18  O   UNL     1      -1.980  -1.093   0.402  0.00  0.00    -0.245 OA
BRANCH  17  19
ATOM     19  O   UNL     1      -0.498  -1.613   1.976  0.00  0.00    -0.462 OA
BRANCH  19  21
ATOM     20  C   UNL     1      -0.968  -1.730   4.343  0.00  0.00    +0.048 C 
ATOM     21  C   UNL     1      -1.555  -1.584   2.938  0.00  0.00    +0.229 C 
ENDBRANCH  19  21
ENDBRANCH  17  19
ENDBRANCH   1  17
BRANCH   2  22
ATOM     22  C   UNL     1      -0.047  -3.972  -0.157  0.00  0.00    +0.136 C 
BRANCH  22  23
ATOM     23  N   UNL     1      -0.820  -4.695  -1.175  0.00  0.00    -0.294 NA
ATOM     24  C   UNL     1      -1.990  -3.914  -1.601  0.00  0.00    +0.104 C 
ATOM     25  C   UNL     1      -2.664  -4.615  -2.786  0.00  0.00    +0.124 C 
ATOM     26  N   UNL     1      -2.951  -6.006  -2.404  0.00  0.00    -0.292 N 
ATOM     27  C   UNL     1      -1.858  -6.812  -1.839  0.00  0.00    +0.087 C 
ATOM     28  C   UNL     1      -1.215  -6.025  -0.692  0.00  0.00    +0.107 C 
ATOM     29  C   UNL     1      -2.415  -8.135  -1.310  0.00  0.00    +0.029 C 
ATOM     30  C   UNL     1      -4.182  -6.529  -2.568  0.00  0.00    +0.247 C 
ATOM     31  O   UNL     1      -4.432  -7.640  -2.145  0.00  0.00    -0.270 OA
BRANCH  30  32
ATOM     32  C   UNL     1      -5.228  -5.750  -3.261  0.00  0.00    +0.037 A 
ATOM     33  C   UNL     1      -4.874  -4.792  -4.214  0.00  0.00    +0.016 A 
ATOM     34  C   UNL     1      -5.854  -4.068  -4.858  0.00  0.00    +0.039 A 
ATOM     35  C   UNL     1      -7.190  -4.290  -4.562  0.00  0.00    +0.123 A 
ATOM     36  C   UNL     1      -7.548  -5.240  -3.618  0.00  0.00    +0.039 A 
ATOM     37  C   UNL     1      -6.576  -5.973  -2.972  0.00  0.00    +0.016 A 
ATOM     38  F   UNL     1      -8.147  -3.577  -5.196  0.00  0.00    -0.205 F 
ENDBRANCH  30  32
ENDBRANCH  22  23
ENDBRANCH   2  22
TORSDOF 7
