REMARK  Name = ZINC63991055
REMARK  8 active torsions:
REMARK  status: ('A' for Active; 'I' for Inactive)
REMARK    1  A    between atoms: C_1  and  C_2
REMARK    2  A    between atoms: C_4  and  C_10
REMARK    3  A    between atoms: C_5  and  N_8
REMARK    4  A    between atoms: N_8  and  C_9
REMARK    5  A    between atoms: N_12  and  C_13
REMARK    6  A    between atoms: C_13  and  C_15
REMARK    7  A    between atoms: C_13  and  C_16
REMARK    8  A    between atoms: C_19  and  C_22
REMARK                            x       y       z     vdW  Elec       q    Type
REMARK                         _______ _______ _______ _____ _____    ______ ____
ROOT
ATOM      1  C   UNL     1      -0.532   1.652  -4.125  0.00  0.00    +0.134 C 
ATOM      2  C   UNL     1      -1.795   0.965  -4.648  0.00  0.00    +0.036 C 
ENDROOT
BRANCH   1   3
ATOM      3  C   UNL     1      -0.760   3.141  -4.062  0.00  0.00    +0.105 A 
ATOM      4  N   UNL     1      -0.511   4.015  -5.062  0.00  0.00    -0.342 N 
ATOM      5  H   UNL     1      -0.158   3.802  -5.940  0.00  0.00    +0.167 HD
ATOM      6  C   UNL     1      -0.854   5.266  -4.600  0.00  0.00    +0.064 A 
ATOM      7  C   UNL     1      -1.301   5.098  -3.326  0.00  0.00    +0.110 A 
ATOM      8  N   UNL     1      -1.235   3.793  -3.036  0.00  0.00    -0.348 N 
ATOM      9  H   UNL     1      -1.497   3.393  -2.191  0.00  0.00    +0.167 HD
BRANCH   6  10
ATOM     10  C   UNL     1      -0.755   6.541  -5.342  0.00  0.00    -0.000 A 
ATOM     11  C   UNL     1      -0.278   6.553  -6.653  0.00  0.00    +0.010 A 
ATOM     12  C   UNL     1      -0.188   7.747  -7.340  0.00  0.00    +0.001 A 
ATOM     13  C   UNL     1      -0.569   8.929  -6.731  0.00  0.00    +0.000 A 
ATOM     14  C   UNL     1      -1.042   8.924  -5.431  0.00  0.00    +0.001 A 
ATOM     15  C   UNL     1      -1.143   7.737  -4.736  0.00  0.00    +0.010 A 
ENDBRANCH   6  10
ENDBRANCH   1   3
BRANCH   1  18
ATOM     16  C   UNL     1       0.491   0.015  -2.639  0.00  0.00    +0.244 C 
ATOM     17  O   UNL     1       0.956  -0.543  -3.619  0.00  0.00    -0.270 OA
ATOM     18  N   UNL     1      -0.222   1.149  -2.785  0.00  0.00    -0.302 N 
ATOM     19  H   UNL     1      -0.530   1.632  -2.002  0.00  0.00    +0.150 HD
BRANCH  16  22
ATOM     20  C   UNL     1      -1.535  -1.556  -1.327  0.00  0.00    +0.030 C 
ATOM     21  C   UNL     1      -0.082  -1.698  -0.868  0.00  0.00    +0.099 C 
ATOM     22  C   UNL     1       0.699  -0.523  -1.361  0.00  0.00    +0.060 C 
ATOM     23  C   UNL     1       1.635   0.005  -0.496  0.00  0.00    +0.086 C 
ATOM     24  S   UNL     1       1.496  -0.994   0.974  0.00  0.00    -0.028 S 
ATOM     25  N   UNL     1      -0.054  -1.811   0.611  0.00  0.00    -0.251 NA
ATOM     26  H   UNL     1      -0.830  -1.317   1.027  0.00  0.00    +0.136 HD
BRANCH  23  27
ATOM     27  N   UNL     1       2.484   1.061  -0.718  0.00  0.00    -0.340 N 
ATOM     28  C   UNL     1       3.418   1.482   0.329  0.00  0.00    +0.126 C 
ATOM     29  H   UNL     1       2.465   1.528  -1.568  0.00  0.00    +0.146 HD
ENDBRANCH  23  27
ENDBRANCH  16  22
ENDBRANCH   1  18
TORSDOF 5
