REMARK  Name = ZINC35668767
REMARK  3 active torsions:
REMARK  status: ('A' for Active; 'I' for Inactive)
REMARK    1  A    between atoms: C_2  and  C_13
REMARK    2  A    between atoms: C_3  and  N_10
REMARK    3  A    between atoms: C_25  and  O_27
REMARK                            x       y       z     vdW  Elec       q    Type
REMARK                         _______ _______ _______ _____ _____    ______ ____
ROOT
ATOM      1  C   UNL     1       1.018   3.384   1.068  0.00  0.00    +0.226 C 
ATOM      2  N   UNL     1      -0.358   3.884   0.892  0.00  0.00    -0.313 N 
ATOM      3  C   UNL     1      -0.656   4.426  -0.338  0.00  0.00    +0.080 A 
ATOM      4  C   UNL     1       0.333   4.967  -1.168  0.00  0.00    +0.068 A 
ATOM      5  C   UNL     1      -0.131   5.490  -2.440  0.00  0.00    -0.023 A 
ATOM      6  C   UNL     1      -1.465   5.384  -2.638  0.00  0.00    -0.005 A 
ATOM      7  S   UNL     1      -2.080   4.609  -1.167  0.00  0.00    -0.078 S 
ATOM      8  C   UNL     1      -2.236   5.831  -3.840  0.00  0.00    +0.043 C 
ATOM      9  C   UNL     1      -1.343   6.769  -4.666  0.00  0.00    +0.005 C 
ATOM     10  C   UNL     1       0.034   6.120  -4.834  0.00  0.00    +0.005 C 
ATOM     11  C   UNL     1       0.773   6.113  -3.494  0.00  0.00    +0.037 C 
ATOM     12  C   UNL     1       1.730   4.957  -0.665  0.00  0.00    +0.220 C 
ATOM     13  N   UNL     1       1.988   4.233   0.389  0.00  0.00    -0.223 NA
ATOM     14  H   UNL     1      -1.016   3.834   1.603  0.00  0.00    +0.149 HD
ENDROOT
BRANCH   1  16
ATOM     15  C   UNL     1      -0.043   1.250   0.304  0.00  0.00    +0.059 A 
ATOM     16  C   UNL     1       1.109   1.988   0.509  0.00  0.00    +0.028 A 
ATOM     17  C   UNL     1       2.343   1.447   0.201  0.00  0.00    +0.137 A 
ATOM     18  C   UNL     1       2.431   0.166  -0.313  0.00  0.00    +0.082 A 
ATOM     19  C   UNL     1       1.282  -0.578  -0.520  0.00  0.00    +0.168 A 
ATOM     20  C   UNL     1       0.038  -0.034  -0.210  0.00  0.00    +0.167 A 
ATOM     21  O   UNL     1      -0.926  -0.955  -0.501  0.00  0.00    -0.453 OA
ATOM     22  C   UNL     1      -0.294  -1.911  -1.372  0.00  0.00    +0.466 C 
ATOM     23  O   UNL     1       1.097  -1.840  -1.006  0.00  0.00    -0.453 OA
BRANCH  17  24
ATOM     24  N   UNL     1       3.572   2.241   0.421  0.00  0.00    +0.057 N 
ATOM     25  O   UNL     1       4.472   2.198  -0.385  0.00  0.00    -0.126 OA
ATOM     26  O   UNL     1       3.677   2.933   1.407  0.00  0.00    -0.126 OA
ENDBRANCH  17  24
ENDBRANCH   1  16
BRANCH  12  27
ATOM     27  O   UNL     1       2.701   5.674  -1.278  0.00  0.00    -0.492 OA
ATOM     28  H   UNL     1       3.571   5.592  -0.864  0.00  0.00    +0.294 HD
ENDBRANCH  12  27
TORSDOF 3
