REMARK  Name = ZINC21760887
REMARK  12 active torsions:
REMARK  status: ('A' for Active; 'I' for Inactive)
REMARK    1  A    between atoms: C_1  and  C_2
REMARK    2  A    between atoms: C_2  and  C_3
REMARK    3  A    between atoms: C_3  and  C_5
REMARK    4  A    between atoms: C_3  and  S_14
REMARK    5  A    between atoms: C_10  and  C_13
REMARK    6  A    between atoms: S_14  and  C_15
REMARK    7  A    between atoms: N_28  and  C_29
REMARK    8  A    between atoms: C_29  and  C_30
REMARK    9  A    between atoms: C_30  and  C_31
REMARK   10  A    between atoms: C_31  and  N_32
REMARK   11  A    between atoms: N_32  and  C_33
REMARK   12  A    between atoms: N_32  and  C_34
REMARK                            x       y       z     vdW  Elec       q    Type
REMARK                         _______ _______ _______ _____ _____    ______ ____
ROOT
ATOM      1  C   UNL     1      -0.298  -0.149   2.990  0.00  0.00    +0.173 A 
ATOM      2  N   UNL     1       0.241  -0.587   4.110  0.00  0.00    -0.216 NA
ATOM      3  C   UNL     1       1.193   0.106   4.723  0.00  0.00    +0.117 A 
ATOM      4  C   UNL     1       1.673   1.326   4.218  0.00  0.00    +0.076 A 
ATOM      5  C   UNL     1       2.723   1.976   5.005  0.00  0.00    -0.023 A 
ATOM      6  C   UNL     1       3.123   1.347   6.128  0.00  0.00    -0.004 A 
ATOM      7  S   UNL     1       2.141  -0.127   6.206  0.00  0.00    -0.073 S 
ATOM      8  C   UNL     1       4.171   1.801   7.098  0.00  0.00    +0.043 C 
ATOM      9  C   UNL     1       4.996   2.913   6.435  0.00  0.00    +0.005 C 
ATOM     10  C   UNL     1       4.036   3.927   5.805  0.00  0.00    +0.005 C 
ATOM     11  C   UNL     1       3.348   3.305   4.590  0.00  0.00    +0.037 C 
ATOM     12  C   UNL     1       1.073   1.775   2.998  0.00  0.00    +0.263 A 
ATOM     13  O   UNL     1       1.426   2.823   2.485  0.00  0.00    -0.267 OA
ATOM     14  N   UNL     1       0.114   1.024   2.427  0.00  0.00    -0.287 N 
ENDROOT
BRANCH   1  15
ATOM     15  S   UNL     1      -1.563  -1.093   2.207  0.00  0.00    -0.075 S 
BRANCH  15  16
ATOM     16  C   UNL     1      -1.585  -2.545   3.286  0.00  0.00    +0.140 C 
BRANCH  16  17
ATOM     17  C   UNL     1      -2.128  -2.159   4.638  0.00  0.00    +0.232 C 
ATOM     18  O   UNL     1      -2.866  -1.202   4.744  0.00  0.00    -0.274 OA
ATOM     19  N   UNL     1      -1.793  -2.876   5.729  0.00  0.00    -0.267 N 
ATOM     20  C   UNL     1      -2.295  -2.518   6.980  0.00  0.00    +0.168 A 
ATOM     21  C   UNL     1      -3.164  -1.433   7.271  0.00  0.00    +0.091 A 
ATOM     22  C   UNL     1      -3.353  -1.516   8.608  0.00  0.00    +0.136 A 
ATOM     23  O   UNL     1      -2.640  -2.570   9.031  0.00  0.00    -0.358 OA
ATOM     24  N   UNL     1      -2.065  -3.117   8.119  0.00  0.00    -0.063 NA
ATOM     25  C   UNL     1      -4.199  -0.602   9.457  0.00  0.00    +0.089 C 
ATOM     26  H   UNL     1      -1.123  -3.743   5.632  0.00  0.00    +0.156 HD
ENDBRANCH  16  17
BRANCH  16  28
ATOM     27  C   UNL     1      -1.849  -4.118   1.363  0.00  0.00    +0.005 C 
ATOM     28  C   UNL     1      -2.475  -3.626   2.669  0.00  0.00    +0.020 C 
ENDBRANCH  16  28
ENDBRANCH  15  16
ENDBRANCH   1  15
BRANCH  14  29
ATOM     29  C   UNL     1      -0.505   1.478   1.179  0.00  0.00    +0.125 C 
BRANCH  29  30
ATOM     30  C   UNL     1       0.283   0.928  -0.011  0.00  0.00    +0.003 C 
BRANCH  30  31
ATOM     31  C   UNL     1      -0.364   1.402  -1.314  0.00  0.00    -0.078 C 
BRANCH  31  32
ATOM     32  N   UNL     1       0.394   0.874  -2.457  0.00  0.00    +0.376 N 
ATOM     33  C   UNL     1       0.289  -0.590  -2.527  0.00  0.00    -0.097 C 
ATOM     34  C   UNL     1      -0.048   1.494  -3.713  0.00  0.00    -0.097 C 
ATOM     35  H   UNL     1       1.453   1.130  -2.308  0.00  0.00    -0.083 HD
ENDBRANCH  31  32
ENDBRANCH  30  31
ENDBRANCH  29  30
ENDBRANCH  14  29
TORSDOF 8
