REMARK  Name = ZINC15449140
REMARK  15 active torsions:
REMARK  status: ('A' for Active; 'I' for Inactive)
REMARK    1  A    between atoms: C_1  and  N_69
REMARK    2  A    between atoms: C_2  and  C_3
REMARK    3  A    between atoms: C_2  and  N_69
REMARK    4  A    between atoms: C_6  and  O_11
REMARK    5  A    between atoms: C_8  and  O_9
REMARK    6  A    between atoms: O_9  and  C_10
REMARK    7  A    between atoms: O_11  and  C_12
REMARK    8  A    between atoms: C_13  and  C_14
REMARK    9  A    between atoms: C_13  and  N_69
REMARK   10  A    between atoms: N_16  and  C_17
REMARK   11  A    between atoms: C_17  and  C_18
REMARK   12  A    between atoms: C_18  and  C_20
REMARK   13  A    between atoms: C_18  and  C_28
REMARK   14  A    between atoms: C_23  and  O_26
REMARK   15  A    between atoms: O_26  and  C_27
REMARK                            x       y       z     vdW  Elec       q    Type
REMARK                         _______ _______ _______ _____ _____    ______ ____
ROOT
ATOM      1  C   UNL     1       4.425  -0.156   2.010  0.00  0.00    +0.117 C 
ENDROOT
BRANCH   1   4
ATOM      2  C   UNL     1       2.163  -0.149   1.104  0.00  0.00    +0.196 C 
ATOM      3  O   UNL     1       2.574   0.494   0.162  0.00  0.00    -0.278 OA
ATOM      4  N   UNL     1       3.009  -0.524   2.084  0.00  0.00    -0.316 N 
ATOM      5  H   UNL     1       2.680  -1.038   2.838  0.00  0.00    +0.149 HD
BRANCH   2   6
ATOM      6  C   UNL     1       0.706  -0.527   1.180  0.00  0.00    +0.019 C 
BRANCH   6   8
ATOM      7  C   UNL     1      -0.018   1.465   0.010  0.00  0.00    -0.095 C 
ATOM      8  N   UNL     1       0.017  -0.013  -0.021  0.00  0.00    +0.386 N 
ATOM      9  H   UNL     1       0.530  -0.317  -0.857  0.00  0.00    -0.081 HD
BRANCH   8  10
ATOM     10  C   UNL     1      -1.360  -0.549  -0.083  0.00  0.00    -0.039 C 
BRANCH  10  11
ATOM     11  C   UNL     1      -1.962  -0.191  -1.417  0.00  0.00    -0.022 A 
ATOM     12  C   UNL     1      -2.840   0.872  -1.515  0.00  0.00    +0.009 A 
ATOM     13  C   UNL     1      -3.394   1.202  -2.737  0.00  0.00    +0.046 A 
ATOM     14  C   UNL     1      -3.069   0.468  -3.869  0.00  0.00    +0.124 A 
ATOM     15  C   UNL     1      -2.188  -0.598  -3.773  0.00  0.00    +0.091 A 
ATOM     16  C   UNL     1      -1.629  -0.925  -2.546  0.00  0.00    +0.125 A 
BRANCH  16  17
ATOM     17  O   UNL     1      -0.761  -1.966  -2.450  0.00  0.00    -0.495 OA
ATOM     18  C   UNL     1      -0.465  -2.677  -3.653  0.00  0.00    +0.277 C 
ENDBRANCH  16  17
BRANCH  14  19
ATOM     19  O   UNL     1      -3.613   0.794  -5.071  0.00  0.00    -0.495 OA
ATOM     20  C   UNL     1      -4.512   1.904  -5.096  0.00  0.00    +0.277 C 
ENDBRANCH  14  19
ENDBRANCH  10  11
ENDBRANCH   8  10
ENDBRANCH   6   8
ENDBRANCH   2   6
ENDBRANCH   1   4
BRANCH   1  21
ATOM     21  C   UNL     1       5.158  -0.701   3.237  0.00  0.00    +0.068 C 
BRANCH  21  22
ATOM     22  C   UNL     1       4.634  -0.024   4.478  0.00  0.00    -0.013 A 
ATOM     23  C   UNL     1       4.669   1.291   4.745  0.00  0.00    +0.088 A 
ATOM     24  N   UNL     1       4.097   1.535   5.963  0.00  0.00    -0.360 N 
ATOM     25  H   UNL     1       4.004   2.411   6.370  0.00  0.00    +0.165 HD
ATOM     26  C   UNL     1       3.678   0.352   6.529  0.00  0.00    +0.047 A 
ATOM     27  C   UNL     1       3.996  -0.677   5.623  0.00  0.00    +0.003 A 
ATOM     28  C   UNL     1       3.684  -2.001   5.936  0.00  0.00    +0.010 A 
ATOM     29  C   UNL     1       3.070  -2.292   7.122  0.00  0.00    +0.001 A 
ATOM     30  C   UNL     1       2.755  -1.281   8.019  0.00  0.00    +0.002 A 
ATOM     31  C   UNL     1       3.054   0.033   7.730  0.00  0.00    +0.026 A 
ENDBRANCH  21  22
BRANCH  21  32
ATOM     32  C   UNL     1       6.634  -0.430   3.102  0.00  0.00    -0.038 A 
ATOM     33  C   UNL     1       7.089   0.871   2.985  0.00  0.00    +0.008 A 
ATOM     34  C   UNL     1       8.442   1.123   2.867  0.00  0.00    +0.046 A 
ATOM     35  C   UNL     1       9.344   0.069   2.854  0.00  0.00    +0.120 A 
ATOM     36  C   UNL     1       8.885  -1.235   2.966  0.00  0.00    +0.046 A 
ATOM     37  C   UNL     1       7.531  -1.482   3.090  0.00  0.00    +0.008 A 
BRANCH  35  38
ATOM     38  O   UNL     1      10.675   0.314   2.731  0.00  0.00    -0.495 OA
ATOM     39  C   UNL     1      11.076   1.681   2.620  0.00  0.00    +0.277 C 
ENDBRANCH  35  38
ENDBRANCH  21  32
ENDBRANCH   1  21
TORSDOF 11
