REMARK  Name = ZINC39478865
REMARK  10 active torsions:
REMARK  status: ('A' for Active; 'I' for Inactive)
REMARK    1  A    between atoms: C_1  and  C_2
REMARK    2  A    between atoms: C_2  and  C_3
REMARK    3  A    between atoms: C_2  and  C_4
REMARK    4  A    between atoms: C_4  and  C_5
REMARK    5  A    between atoms: C_5  and  C_7
REMARK    6  A    between atoms: C_5  and  N_10
REMARK    7  A    between atoms: N_10  and  C_11
REMARK    8  A    between atoms: C_11  and  C_12
REMARK    9  A    between atoms: C_17  and  C_18
REMARK   10  A    between atoms: C_21  and  C_24
REMARK                            x       y       z     vdW  Elec       q    Type
REMARK                         _______ _______ _______ _____ _____    ______ ____
ROOT
ATOM      1  C   UNL     1       4.022   2.986  -0.726  0.00  0.00    +0.066 C 
ATOM      2  C   UNL     1       3.276   3.615   0.434  0.00  0.00    +0.115 C 
ATOM      3  N   UNL     1       4.174   4.177   1.177  0.00  0.00    -0.161 NA
ATOM      4  N   UNL     1       5.460   4.014   0.672  0.00  0.00    -0.153 NA
ATOM      5  C   UNL     1       5.471   3.330  -0.444  0.00  0.00    +0.077 C 
ENDROOT
BRANCH   5   6
ATOM      6  C   UNL     1       6.643   2.969  -1.255  0.00  0.00    -0.001 A 
ATOM      7  C   UNL     1       6.479   2.231  -2.434  0.00  0.00    +0.010 A 
ATOM      8  C   UNL     1       7.572   1.895  -3.189  0.00  0.00    +0.009 A 
ATOM      9  C   UNL     1       8.849   2.287  -2.784  0.00  0.00    -0.018 A 
ATOM     10  C   UNL     1       9.015   3.023  -1.609  0.00  0.00    +0.009 A 
ATOM     11  C   UNL     1       7.923   3.366  -0.854  0.00  0.00    +0.010 A 
BRANCH   9  12
ATOM     12  C   UNL     1      10.030   1.922  -3.601  0.00  0.00    -0.018 A 
ATOM     13  C   UNL     1       9.868   1.192  -4.778  0.00  0.00    +0.008 A 
ATOM     14  C   UNL     1      10.971   0.856  -5.536  0.00  0.00    +0.001 A 
ATOM     15  C   UNL     1      12.236   1.241  -5.129  0.00  0.00    +0.000 A 
ATOM     16  C   UNL     1      12.403   1.965  -3.963  0.00  0.00    +0.001 A 
ATOM     17  C   UNL     1      11.307   2.312  -3.200  0.00  0.00    +0.008 A 
ENDBRANCH   9  12
ENDBRANCH   5   6
BRANCH   1  18
ATOM     18  C   UNL     1       3.820   1.470  -0.738  0.00  0.00    -0.066 C 
BRANCH  18  19
ATOM     19  N   UNL     1       2.424   1.164  -1.079  0.00  0.00    +0.387 N 
ATOM     20  H   UNL     1       2.211   1.540  -1.991  0.00  0.00    -0.085 HD
ATOM     21  H   UNL     1       1.812   1.579  -0.393  0.00  0.00    -0.085 HD
BRANCH  19  22
ATOM     22  C   UNL     1       2.230  -0.292  -1.091  0.00  0.00    +0.016 C 
BRANCH  22  23
ATOM     23  C   UNL     1       3.009  -0.893  -2.233  0.00  0.00    +0.196 C 
ATOM     24  O   UNL     1       3.661  -0.179  -2.965  0.00  0.00    -0.278 OA
ATOM     25  N   UNL     1       2.980  -2.224  -2.441  0.00  0.00    -0.331 N 
ATOM     26  H   UNL     1       2.459  -2.796  -1.855  0.00  0.00    +0.145 HD
ATOM     27  H   UNL     1       3.481  -2.611  -3.176  0.00  0.00    +0.145 HD
ENDBRANCH  22  23
BRANCH  22  28
ATOM     28  C   UNL     1       0.743  -0.607  -1.265  0.00  0.00    -0.004 C 
BRANCH  28  30
ATOM     29  C   UNL     1      -1.529  -0.315  -0.268  0.00  0.00    +0.007 C 
ATOM     30  C   UNL     1      -0.029  -0.115  -0.040  0.00  0.00    -0.018 C 
ATOM     31  C   UNL     1       0.409  -0.909   1.192  0.00  0.00    +0.007 C 
ENDBRANCH  28  30
ENDBRANCH  22  28
ENDBRANCH  19  22
ENDBRANCH  18  19
ENDBRANCH   1  18
TORSDOF 8
