REMARK  Name = ZINC39550558
REMARK  5 active torsions:
REMARK  status: ('A' for Active; 'I' for Inactive)
REMARK    1  A    between atoms: C_4  and  C_7
REMARK    2  A    between atoms: C_8  and  C_23
REMARK    3  A    between atoms: C_11  and  C_13
REMARK    4  A    between atoms: C_26  and  S_29
REMARK    5  A    between atoms: S_29  and  C_32
REMARK                            x       y       z     vdW  Elec       q    Type
REMARK                         _______ _______ _______ _____ _____    ______ ____
ROOT
ATOM      1  C   UNL     1       3.697  -0.687  -0.037  0.00  0.00    +0.097 A 
ATOM      2  C   UNL     1       3.970  -1.891   0.591  0.00  0.00    +0.074 A 
ATOM      3  N   UNL     1       5.285  -2.186   0.311  0.00  0.00    -0.337 N 
ATOM      4  H   UNL     1       5.776  -2.967   0.610  0.00  0.00    +0.167 HD
ATOM      5  C   UNL     1       5.769  -1.172  -0.465  0.00  0.00    +0.139 A 
ATOM      6  N   UNL     1       4.814  -0.292  -0.669  0.00  0.00    -0.227 NA
ENDROOT
BRANCH   5   7
ATOM      7  C   UNL     1       7.145  -1.082  -0.996  0.00  0.00    +0.018 A 
ATOM      8  C   UNL     1       8.071  -2.102  -0.712  0.00  0.00    +0.012 A 
ATOM      9  C   UNL     1       9.340  -2.042  -1.188  0.00  0.00    +0.009 A 
ATOM     10  C   UNL     1       9.745  -0.950  -1.978  0.00  0.00    -0.018 A 
ATOM     11  C   UNL     1      11.053  -0.866  -2.482  0.00  0.00    +0.008 A 
ATOM     12  C   UNL     1      11.416   0.203  -3.243  0.00  0.00    +0.001 A 
ATOM     13  C   UNL     1      10.508   1.220  -3.532  0.00  0.00    +0.001 A 
ATOM     14  C   UNL     1       9.232   1.174  -3.060  0.00  0.00    +0.008 A 
ATOM     15  C   UNL     1       8.821   0.085  -2.271  0.00  0.00    -0.017 A 
ATOM     16  C   UNL     1       7.511   0.003  -1.774  0.00  0.00    +0.020 A 
ENDBRANCH   5   7
BRANCH   1  20
ATOM     17  C   UNL     1      -0.017   1.379   0.010  0.00  0.00    +0.000 A 
ATOM     18  C   UNL     1       1.169   2.093   0.002  0.00  0.00    +0.001 A 
ATOM     19  C   UNL     1       2.377   1.427  -0.013  0.00  0.00    +0.010 A 
ATOM     20  C   UNL     1       2.403   0.033  -0.021  0.00  0.00    +0.002 A 
ATOM     21  C   UNL     1       1.205  -0.680  -0.013  0.00  0.00    +0.010 A 
ATOM     22  C   UNL     1       0.002  -0.004   0.002  0.00  0.00    +0.001 A 
ENDBRANCH   1  20
BRANCH   2  23
ATOM     23  C   UNL     1       3.036  -2.698   1.399  0.00  0.00    +0.001 A 
ATOM     24  C   UNL     1       2.216  -2.082   2.348  0.00  0.00    +0.012 A 
ATOM     25  C   UNL     1       1.345  -2.842   3.099  0.00  0.00    +0.028 A 
ATOM     26  C   UNL     1       1.282  -4.213   2.916  0.00  0.00    +0.094 A 
ATOM     27  C   UNL     1       2.091  -4.830   1.978  0.00  0.00    +0.028 A 
ATOM     28  C   UNL     1       2.963  -4.081   1.215  0.00  0.00    +0.012 A 
BRANCH  26  29
ATOM     29  S   UNL     1       0.166  -5.176   3.881  0.00  0.00    +0.025 S 
ATOM     30  O   UNL     1       0.686  -6.498   3.904  0.00  0.00    -0.164 OA
ATOM     31  O   UNL     1      -0.087  -4.437   5.067  0.00  0.00    -0.164 OA
BRANCH  29  32
ATOM     32  C   UNL     1      -1.357  -5.250   2.998  0.00  0.00    +0.094 A 
ATOM     33  C   UNL     1      -2.324  -4.284   3.207  0.00  0.00    +0.027 A 
ATOM     34  C   UNL     1      -3.519  -4.342   2.514  0.00  0.00    +0.002 A 
ATOM     35  C   UNL     1      -3.747  -5.365   1.613  0.00  0.00    +0.000 A 
ATOM     36  C   UNL     1      -2.779  -6.330   1.403  0.00  0.00    +0.002 A 
ATOM     37  C   UNL     1      -1.582  -6.269   2.092  0.00  0.00    +0.027 A 
ENDBRANCH  29  32
ENDBRANCH  26  29
ENDBRANCH   2  23
TORSDOF 5
