REMARK  Name = ZINC04440641
REMARK  1 active torsions:
REMARK  status: ('A' for Active; 'I' for Inactive)
REMARK    1  A    between atoms: C_19  and  O_20
REMARK                            x       y       z     vdW  Elec       q    Type
REMARK                         _______ _______ _______ _____ _____    ______ ____
ROOT
ATOM      1  C   UNL     1      -0.017   1.378   0.010  0.00  0.00    +0.000 A 
ATOM      2  C   UNL     1       1.165   2.099   0.002  0.00  0.00    +0.001 A 
ATOM      3  C   UNL     1       2.376   1.435  -0.030  0.00  0.00    +0.010 A 
ATOM      4  C   UNL     1       2.397   0.048  -0.056  0.00  0.00    +0.003 A 
ATOM      5  C   UNL     1       1.204  -0.683  -0.014  0.00  0.00    -0.037 A 
ATOM      6  C   UNL     1       0.002  -0.004   0.002  0.00  0.00    +0.004 A 
ATOM      7  C   UNL     1       1.222  -2.185   0.060  0.00  0.00    +0.047 C 
ATOM      8  C   UNL     1       2.369  -2.795  -0.744  0.00  0.00    +0.007 C 
ATOM      9  C   UNL     1       2.062  -2.677  -2.239  0.00  0.00    +0.012 C 
ATOM     10  C   UNL     1       0.762  -3.421  -2.552  0.00  0.00    +0.001 C 
ATOM     11  C   UNL     1       0.917  -4.897  -2.180  0.00  0.00    +0.000 C 
ATOM     12  C   UNL     1       1.227  -5.017  -0.686  0.00  0.00    +0.001 C 
ATOM     13  C   UNL     1       2.526  -4.271  -0.373  0.00  0.00    +0.012 C 
ATOM     14  C   UNL     1       3.647  -2.060  -0.436  0.00  0.00    +0.047 A 
ATOM     15  C   UNL     1       3.658  -0.718  -0.123  0.00  0.00    +0.073 A 
ATOM     16  N   UNL     1       4.939  -0.355   0.078  0.00  0.00    -0.273 N 
ATOM     17  H   UNL     1       5.254   0.535   0.302  0.00  0.00    +0.189 HD
ATOM     18  N   UNL     1       5.738  -1.498  -0.095  0.00  0.00    -0.135 NA
ATOM     19  C   UNL     1       4.958  -2.512  -0.403  0.00  0.00    +0.236 A 
ENDROOT
BRANCH  19  20
ATOM     20  O   UNL     1       5.367  -3.786  -0.646  0.00  0.00    -0.491 OA
ATOM     21  H   UNL     1       5.573  -3.962  -1.574  0.00  0.00    +0.294 HD
ENDBRANCH  19  20
TORSDOF 1
