REMARK  Name = ZINC63384176
REMARK  8 active torsions:
REMARK  status: ('A' for Active; 'I' for Inactive)
REMARK    1  A    between atoms: C_1  and  S_2
REMARK    2  A    between atoms: S_2  and  C_3
REMARK    3  A    between atoms: C_3  and  C_4
REMARK    4  A    between atoms: C_4  and  C_5
REMARK    5  A    between atoms: C_5  and  C_7
REMARK    6  A    between atoms: C_5  and  N_16
REMARK    7  A    between atoms: N_9  and  C_10
REMARK    8  A    between atoms: C_17  and  C_19
REMARK                            x       y       z     vdW  Elec       q    Type
REMARK                         _______ _______ _______ _____ _____    ______ ____
ROOT
ATOM      1  C   UNL     1       0.194  -0.127  -5.733  0.00  0.00    +0.167 C 
ATOM      2  C   UNL     1      -1.296  -0.434  -5.487  0.00  0.00    +0.065 C 
ATOM      3  C   UNL     1      -1.758  -1.315  -6.620  0.00  0.00    -0.034 C 
ATOM      4  C   UNL     1      -2.400  -2.480  -6.602  0.00  0.00    -0.001 A 
ATOM      5  C   UNL     1      -2.968  -3.265  -5.495  0.00  0.00    +0.010 A 
ATOM      6  C   UNL     1      -3.555  -4.444  -5.835  0.00  0.00    +0.001 A 
ATOM      7  C   UNL     1      -3.630  -4.914  -7.149  0.00  0.00    +0.002 A 
ATOM      8  C   UNL     1      -3.140  -4.254  -8.229  0.00  0.00    +0.026 A 
ATOM      9  C   UNL     1      -2.508  -2.998  -7.999  0.00  0.00    +0.043 A 
ATOM     10  N   UNL     1      -1.979  -2.157  -8.837  0.00  0.00    -0.375 N 
ATOM     11  C   UNL     1      -1.522  -0.985  -8.088  0.00  0.00    +0.131 C 
ATOM     12  C   UNL     1      -0.025  -0.739  -8.264  0.00  0.00    +0.134 C 
ATOM     13  N   UNL     1       0.616  -0.852  -6.938  0.00  0.00    -0.276 N 
ATOM     14  C   UNL     1       1.627  -1.738  -7.026  0.00  0.00    +0.248 C 
ATOM     15  O   UNL     1       2.427  -1.971  -6.141  0.00  0.00    -0.270 OA
ATOM     16  C   UNL     1       1.621  -2.379  -8.342  0.00  0.00    +0.042 A 
ATOM     17  C   UNL     1       0.605  -1.779  -9.131  0.00  0.00    -0.013 A 
ATOM     18  C   UNL     1       0.352  -2.172 -10.426  0.00  0.00    +0.006 A 
ATOM     19  C   UNL     1       1.147  -3.191 -10.944  0.00  0.00    +0.000 A 
ATOM     20  C   UNL     1       2.147  -3.783 -10.199  0.00  0.00    +0.001 A 
ATOM     21  C   UNL     1       2.420  -3.399  -8.865  0.00  0.00    +0.013 A 
ATOM     22  H   UNL     1      -1.899  -2.284  -9.796  0.00  0.00    +0.160 HD
ENDROOT
BRANCH   1  24
ATOM     23  N   UNL     1       1.103  -1.897  -4.263  0.00  0.00    -0.302 N 
ATOM     24  C   UNL     1       1.010  -0.583  -4.552  0.00  0.00    +0.235 C 
ATOM     25  O   UNL     1       1.584   0.231  -3.860  0.00  0.00    -0.274 OA
ATOM     26  H   UNL     1       0.644  -2.548  -4.817  0.00  0.00    +0.150 HD
BRANCH  23  27
ATOM     27  C   UNL     1       1.896  -2.341  -3.115  0.00  0.00    +0.160 C 
BRANCH  27  28
ATOM     28  C   UNL     1       2.352  -3.760  -3.338  0.00  0.00    +0.234 C 
ATOM     29  O   UNL     1       2.045  -4.343  -4.356  0.00  0.00    -0.274 OA
ATOM     30  N   UNL     1       3.102  -4.380  -2.406  0.00  0.00    -0.311 N 
ATOM     31  H   UNL     1       3.348  -3.914  -1.591  0.00  0.00    +0.149 HD
BRANCH  30  32
ATOM     32  C   UNL     1       3.546  -5.760  -2.622  0.00  0.00    +0.073 C 
ATOM     33  C   UNL     1       2.448  -6.725  -2.171  0.00  0.00    +0.022 C 
ATOM     34  C   UNL     1       2.911  -8.166  -2.397  0.00  0.00    +0.002 C 
ATOM     35  C   UNL     1       4.183  -8.426  -1.588  0.00  0.00    +0.000 C 
ATOM     36  C   UNL     1       5.281  -7.460  -2.039  0.00  0.00    +0.002 C 
ATOM     37  C   UNL     1       4.818  -6.020  -1.813  0.00  0.00    +0.022 C 
ENDBRANCH  30  32
ENDBRANCH  27  28
BRANCH  27  38
ATOM     38  C   UNL     1       1.041  -2.273  -1.848  0.00  0.00    +0.042 C 
BRANCH  38  39
ATOM     39  C   UNL     1       0.682  -0.815  -1.552  0.00  0.00    +0.071 C 
BRANCH  39  41
ATOM     40  C   UNL     1      -0.667   1.036   0.158  0.00  0.00    +0.084 C 
ATOM     41  S   UNL     1      -0.331  -0.735  -0.050  0.00  0.00    -0.164 S 
ENDBRANCH  39  41
ENDBRANCH  38  39
ENDBRANCH  27  38
ENDBRANCH  23  27
ENDBRANCH   1  24
TORSDOF 7
