REMARK  Name = ZINC40569131
REMARK  9 active torsions:
REMARK  status: ('A' for Active; 'I' for Inactive)
REMARK    1  A    between atoms: C_1  and  C_2
REMARK    2  A    between atoms: C_2  and  C_3
REMARK    3  A    between atoms: C_3  and  C_4
REMARK    4  A    between atoms: N_10  and  C_11
REMARK    5  A    between atoms: C_12  and  C_20
REMARK    6  A    between atoms: C_14  and  C_18
REMARK    7  A    between atoms: C_15  and  N_17
REMARK    8  A    between atoms: C_25  and  O_26
REMARK    9  A    between atoms: O_26  and  C_27
REMARK                            x       y       z     vdW  Elec       q    Type
REMARK                         _______ _______ _______ _____ _____    ______ ____
ROOT
ATOM      1  C   UNL     1       0.644  -2.023  -1.077  0.00  0.00    +0.025 A 
ATOM      2  C   UNL     1      -0.370  -2.699  -1.658  0.00  0.00    +0.068 A 
ATOM      3  C   UNL     1      -0.260  -4.090  -1.860  0.00  0.00    +0.141 A 
ATOM      4  C   UNL     1       0.891  -4.734  -1.456  0.00  0.00    +0.072 A 
ATOM      5  C   UNL     1       1.917  -3.991  -0.858  0.00  0.00    +0.259 A 
ATOM      6  O   UNL     1       2.942  -4.548  -0.497  0.00  0.00    -0.267 OA
ATOM      7  N   UNL     1       1.777  -2.664  -0.687  0.00  0.00    -0.315 N 
ATOM      8  C   UNL     1       2.861  -1.898  -0.066  0.00  0.00    +0.152 C 
ATOM      9  C   UNL     1       1.051  -6.217  -1.651  0.00  0.00    +0.107 C 
ATOM     10  C   UNL     1       0.038  -6.721  -2.641  0.00  0.00    +0.098 C 
ATOM     11  C   UNL     1      -1.047  -5.982  -2.974  0.00  0.00    +0.199 C 
ATOM     12  O   UNL     1      -1.272  -4.769  -2.440  0.00  0.00    -0.441 OA
ENDROOT
BRANCH   9  13
ATOM     13  C   UNL     1       0.849  -6.918  -0.333  0.00  0.00    +0.007 A 
ATOM     14  C   UNL     1      -0.355  -6.801   0.336  0.00  0.00    +0.008 A 
ATOM     15  C   UNL     1      -0.541  -7.444   1.546  0.00  0.00    +0.001 A 
ATOM     16  C   UNL     1       0.477  -8.206   2.089  0.00  0.00    +0.004 A 
ATOM     17  C   UNL     1       1.681  -8.328   1.425  0.00  0.00    +0.046 A 
ATOM     18  C   UNL     1       1.869  -7.688   0.208  0.00  0.00    +0.124 A 
BRANCH  18  19
ATOM     19  O   UNL     1       3.051  -7.810  -0.451  0.00  0.00    -0.495 OA
ATOM     20  C   UNL     1       4.056  -8.618   0.165  0.00  0.00    +0.277 C 
ENDBRANCH  18  19
ENDBRANCH   9  13
BRANCH  11  21
ATOM     21  N   UNL     1      -1.943  -6.487  -3.883  0.00  0.00    -0.328 N 
ATOM     22  H   UNL     1      -1.795  -7.361  -4.277  0.00  0.00    +0.145 HD
ATOM     23  H   UNL     1      -2.725  -5.970  -4.132  0.00  0.00    +0.145 HD
ENDBRANCH  11  21
BRANCH  10  24
ATOM     24  C   UNL     1       0.224  -8.007  -3.244  0.00  0.00    +0.101 C 
ATOM     25  N   UNL     1       0.371  -9.027  -3.722  0.00  0.00    -0.191 NA
ENDBRANCH  10  24
BRANCH   1  26
ATOM     26  C   UNL     1       0.520  -0.536  -0.863  0.00  0.00    +0.053 C 
BRANCH  26  28
ATOM     27  C   UNL     1       0.947   1.712  -1.867  0.00  0.00    +0.004 C 
ATOM     28  C   UNL     1       1.073   0.202  -2.084  0.00  0.00    +0.003 C 
ENDBRANCH  26  28
ENDBRANCH   1  26
TORSDOF 6
