REMARK  Name = ZINC65164305
REMARK  2 active torsions:
REMARK  status: ('A' for Active; 'I' for Inactive)
REMARK    1  A    between atoms: C_6  and  S_7
REMARK    2  A    between atoms: S_7  and  N_10
REMARK                            x       y       z     vdW  Elec       q    Type
REMARK                         _______ _______ _______ _____ _____    ______ ____
ROOT
ATOM      1  S   UNL     1      -1.512  -0.905   0.012  0.00  0.00    +0.061 S 
ATOM      2  O   UNL     1      -1.218  -2.186   0.553  0.00  0.00    -0.153 OA
ATOM      3  O   UNL     1      -2.493  -0.046   0.577  0.00  0.00    -0.153 OA
ENDROOT
BRANCH   1   4
ATOM      4  N   UNL     1      -1.948  -1.147  -1.567  0.00  0.00    -0.170 NA
ATOM      5  C   UNL     1      -2.787  -0.169  -2.275  0.00  0.00    +0.116 C 
ATOM      6  C   UNL     1      -1.980   0.443  -3.428  0.00  0.00    +0.072 C 
ATOM      7  C   UNL     1      -1.263  -0.662  -4.159  0.00  0.00    +0.041 A 
ATOM      8  N   UNL     1      -0.719  -0.631  -5.407  0.00  0.00    -0.348 N 
ATOM      9  C   UNL     1      -0.179  -1.851  -5.635  0.00  0.00    +0.197 A 
ATOM     10  N   UNL     1      -0.380  -2.602  -4.583  0.00  0.00    -0.239 NA
ATOM     11  C   UNL     1      -1.044  -1.899  -3.664  0.00  0.00    +0.078 A 
ATOM     12  H   UNL     1      -0.718   0.123  -6.018  0.00  0.00    +0.166 HD
ATOM     13  C   UNL     1      -1.499  -2.346  -2.299  0.00  0.00    +0.166 C 
ENDBRANCH   1   4
BRANCH   1  19
ATOM     14  C   UNL     1      -0.017   1.378   0.010  0.00  0.00    +0.029 A 
ATOM     15  C   UNL     1       1.171   2.086   0.002  0.00  0.00    +0.017 A 
ATOM     16  C   UNL     1       2.378   1.411  -0.013  0.00  0.00    +0.018 A 
ATOM     17  C   UNL     1       2.396   0.027  -0.021  0.00  0.00    +0.017 A 
ATOM     18  C   UNL     1       1.208  -0.679  -0.013  0.00  0.00    +0.029 A 
ATOM     19  C   UNL     1       0.002  -0.004   0.002  0.00  0.00    +0.106 A 
ATOM     20 BR   UNL     1       4.003   2.378  -0.024  0.00  0.00    -0.050 Br
ENDBRANCH   1  19
TORSDOF 2
