REMARK  Name = ZINC00909907
REMARK  10 active torsions:
REMARK  status: ('A' for Active; 'I' for Inactive)
REMARK    1  A    between atoms: C_1  and  C_2
REMARK    2  A    between atoms: C_2  and  C_3
REMARK    3  A    between atoms: C_3  and  C_4
REMARK    4  A    between atoms: C_3  and  C_5
REMARK    5  A    between atoms: C_3  and  N_6
REMARK    6  A    between atoms: C_7  and  C_11
REMARK    7  A    between atoms: C_11  and  C_13
REMARK    8  A    between atoms: C_11  and  N_27
REMARK    9  A    between atoms: C_17  and  C_26
REMARK   10  A    between atoms: C_19  and  C_25
REMARK                            x       y       z     vdW  Elec       q    Type
REMARK                         _______ _______ _______ _____ _____    ______ ____
ROOT
ATOM      1  C   UNL     1       1.010   1.276   2.941  0.00  0.00    +0.179 C 
ENDROOT
BRANCH   1   2
ATOM      2  C   UNL     1       2.318   1.968   3.227  0.00  0.00    +0.045 A 
ATOM      3  C   UNL     1       3.359   1.825   2.371  0.00  0.00    +0.021 A 
ATOM      4  C   UNL     1       4.615   2.514   2.675  0.00  0.00    -0.001 A 
ATOM      5  C   UNL     1       5.723   2.408   1.828  0.00  0.00    +0.013 A 
ATOM      6  C   UNL     1       6.881   3.058   2.143  0.00  0.00    -0.050 A 
ATOM      7  C   UNL     1       6.970   3.825   3.297  0.00  0.00    +0.008 A 
ATOM      8  C   UNL     1       5.891   3.945   4.146  0.00  0.00    -0.026 A 
ATOM      9  C   UNL     1       4.700   3.290   3.846  0.00  0.00    +0.052 A 
ATOM     10  N   UNL     1       3.606   3.391   4.678  0.00  0.00    -0.322 N 
ATOM     11  H   UNL     1       3.668   3.943   5.510  0.00  0.00    +0.169 HD
ATOM     12  C   UNL     1       2.455   2.758   4.388  0.00  0.00    +0.255 A 
ATOM     13  O   UNL     1       1.508   2.870   5.146  0.00  0.00    -0.268 OA
ATOM     14  C   UNL     1       6.000   4.780   5.395  0.00  0.00    +0.046 C 
ATOM     15  C   UNL     1       8.075   2.944   1.230  0.00  0.00    +0.044 C 
ENDBRANCH   1   2
BRANCH   1  16
ATOM     16  N   UNL     1       0.634   0.444   4.092  0.00  0.00    -0.315 N 
ATOM     17  C   UNL     1       1.719  -0.498   4.443  0.00  0.00    +0.111 C 
ATOM     18  C   UNL     1       0.945  -1.710   5.009  0.00  0.00    +0.056 C 
ATOM     19  C   UNL     1      -0.406  -1.592   4.333  0.00  0.00    -0.025 A 
ATOM     20  C   UNL     1      -0.515  -0.307   3.815  0.00  0.00    +0.034 A 
ATOM     21  C   UNL     1      -1.675   0.052   3.130  0.00  0.00    +0.023 A 
ATOM     22  C   UNL     1      -2.700  -0.859   2.977  0.00  0.00    +0.002 A 
ATOM     23  C   UNL     1      -2.584  -2.133   3.501  0.00  0.00    +0.000 A 
ATOM     24  C   UNL     1      -1.435  -2.497   4.179  0.00  0.00    +0.005 A 
ENDBRANCH   1  16
BRANCH   1  26
ATOM     25  N   UNL     1      -0.623   2.615   1.511  0.00  0.00    -0.222 N 
ATOM     26  C   UNL     1      -0.061   2.307   2.694  0.00  0.00    +0.177 A 
ATOM     27  N   UNL     1      -0.624   3.079   3.591  0.00  0.00    -0.111 NA
ATOM     28  N   UNL     1      -1.492   3.818   2.990  0.00  0.00    -0.023 NA
ATOM     29  N   UNL     1      -1.494   3.540   1.733  0.00  0.00    -0.043 NA
BRANCH  25  30
ATOM     30  C   UNL     1      -0.308   2.010   0.214  0.00  0.00    +0.062 C 
ATOM     31  C   UNL     1      -0.678   0.525   0.241  0.00  0.00    +0.036 C 
ATOM     32  C   UNL     1       1.188   2.157  -0.068  0.00  0.00    +0.036 C 
BRANCH  30  34
ATOM     33  C   UNL     1      -0.777   2.082  -2.239  0.00  0.00    +0.006 C 
ATOM     34  C   UNL     1      -1.106   2.714  -0.885  0.00  0.00    +0.026 C 
ENDBRANCH  30  34
ENDBRANCH  25  30
ENDBRANCH   1  26
TORSDOF 5
