REMARK  Name = ZINC09522052
REMARK  6 active torsions:
REMARK  status: ('A' for Active; 'I' for Inactive)
REMARK    1  A    between atoms: C_1  and  O_2
REMARK    2  A    between atoms: O_2  and  C_3
REMARK    3  A    between atoms: C_6  and  C_8
REMARK    4  A    between atoms: C_12  and  N_13
REMARK    5  A    between atoms: C_14  and  C_16
REMARK    6  A    between atoms: C_16  and  C_17
REMARK                            x       y       z     vdW  Elec       q    Type
REMARK                         _______ _______ _______ _____ _____    ______ ____
ROOT
ATOM      1  C   UNL     1       9.641  -1.855   0.625  0.00  0.00    +0.069 A 
ATOM      2  C   UNL     1      10.361  -2.278  -0.570  0.00  0.00    -0.023 A 
ATOM      3  C   UNL     1       9.600  -2.400  -1.679  0.00  0.00    -0.004 A 
ATOM      4  S   UNL     1       7.960  -1.982  -1.155  0.00  0.00    -0.077 S 
ATOM      5  C   UNL     1       8.276  -1.642   0.513  0.00  0.00    +0.084 A 
ATOM      6  C   UNL     1      10.044  -2.788  -3.054  0.00  0.00    +0.043 C 
ATOM      7  C   UNL     1      10.914  -4.050  -2.969  0.00  0.00    +0.005 C 
ATOM      8  C   UNL     1      12.366  -3.622  -2.780  0.00  0.00    +0.001 C 
ATOM      9  C   UNL     1      12.433  -2.335  -1.961  0.00  0.00    +0.005 C 
ATOM     10  C   UNL     1      11.858  -2.561  -0.567  0.00  0.00    +0.037 C 
ENDROOT
BRANCH   1  14
ATOM     11  C   UNL     1      11.492  -0.286   3.387  0.00  0.00    +0.407 C 
ATOM     12  O   UNL     1      11.603  -1.214   4.162  0.00  0.00    -0.226 OA
ATOM     13  N   UNL     1      10.852  -0.460   2.214  0.00  0.00    -0.217 N 
ATOM     14  C   UNL     1      10.336  -1.665   1.900  0.00  0.00    +0.255 C 
ATOM     15  O   UNL     1      10.448  -2.596   2.677  0.00  0.00    -0.270 OA
ATOM     16  H   UNL     1      10.764   0.281   1.595  0.00  0.00    +0.161 HD
BRANCH  11  18
ATOM     17  C   UNL     1      12.682   1.033   4.981  0.00  0.00    +0.282 C 
ATOM     18  O   UNL     1      12.007   0.918   3.700  0.00  0.00    -0.453 OA
ENDBRANCH  11  18
ENDBRANCH   1  14
BRANCH   5  19
ATOM     19  N   UNL     1       7.382  -1.247   1.497  0.00  0.00    -0.279 N 
ATOM     20  C   UNL     1       6.078  -1.085   1.196  0.00  0.00    +0.222 C 
ATOM     21  O   UNL     1       5.687  -1.283   0.066  0.00  0.00    -0.275 OA
ATOM     22  H   UNL     1       7.695  -1.089   2.401  0.00  0.00    +0.155 HD
BRANCH  20  23
ATOM     23  C   UNL     1       5.107  -0.655   2.265  0.00  0.00    +0.131 C 
BRANCH  23  24
ATOM     24  C   UNL     1       3.725  -0.548   1.674  0.00  0.00    -0.035 A 
ATOM     25  C   UNL     1       2.885  -1.646   1.677  0.00  0.00    +0.008 A 
ATOM     26  C   UNL     1       1.617  -1.553   1.135  0.00  0.00    +0.050 A 
ATOM     27  C   UNL     1       1.183  -0.356   0.589  0.00  0.00    +0.166 A 
ATOM     28  C   UNL     1       2.028   0.751   0.586  0.00  0.00    +0.166 A 
ATOM     29  C   UNL     1       3.298   0.650   1.131  0.00  0.00    +0.053 A 
ATOM     30  O   UNL     1       1.376   1.797  -0.001  0.00  0.00    -0.453 OA
ATOM     31  C   UNL     1      -0.018   1.436   0.010  0.00  0.00    +0.466 C 
ATOM     32  O   UNL     1       0.002  -0.004   0.002  0.00  0.00    -0.453 OA
ENDBRANCH  23  24
ENDBRANCH  20  23
ENDBRANCH   5  19
TORSDOF 5
