REMARK  Name = ZINC44905523
REMARK  12 active torsions:
REMARK  status: ('A' for Active; 'I' for Inactive)
REMARK    1  A    between atoms: C_1  and  C_2
REMARK    2  A    between atoms: C_2  and  O_3
REMARK    3  A    between atoms: O_3  and  C_4
REMARK    4  A    between atoms: C_7  and  C_13
REMARK    5  A    between atoms: C_9  and  O_10
REMARK    6  A    between atoms: O_10  and  C_11
REMARK    7  A    between atoms: C_11  and  C_12
REMARK    8  A    between atoms: C_13  and  C_15
REMARK    9  A    between atoms: C_13  and  N_16
REMARK   10  A    between atoms: C_17  and  C_19
REMARK   11  A    between atoms: N_24  and  C_26
REMARK   12  A    between atoms: C_26  and  C_27
REMARK                            x       y       z     vdW  Elec       q    Type
REMARK                         _______ _______ _______ _____ _____    ______ ____
ROOT
ATOM      1  N   UNL     1      -0.145  -6.683  -1.431  0.00  0.00    -0.309 N 
ATOM      2  C   UNL     1      -0.488  -7.884  -1.938  0.00  0.00    +0.215 C 
ATOM      3  O   UNL     1       0.240  -8.435  -2.736  0.00  0.00    -0.276 OA
ATOM      4  H   UNL     1      -0.727  -6.242  -0.792  0.00  0.00    +0.149 HD
ENDROOT
BRANCH   2   5
ATOM      5  C   UNL     1      -1.776  -8.541  -1.514  0.00  0.00    +0.058 C 
ATOM      6  C   UNL     1      -1.757  -8.774   0.000  0.00  0.00    +0.009 C 
ATOM      7  C   UNL     1      -3.034  -9.512   0.409  0.00  0.00    -0.018 C 
ATOM      8  C   UNL     1      -3.135 -10.821  -0.377  0.00  0.00    -0.078 C 
ATOM      9  N   UNL     1      -3.176 -10.530  -1.815  0.00  0.00    +0.383 N 
ATOM     10  C   UNL     1      -1.924  -9.886  -2.229  0.00  0.00    -0.066 C 
ATOM     11  H   UNL     1      -3.950  -9.913  -2.011  0.00  0.00    -0.081 HD
BRANCH   9  12
ATOM     12  C   UNL     1      -3.351 -11.782  -2.562  0.00  0.00    -0.043 C 
BRANCH  12  13
ATOM     13  C   UNL     1      -4.697 -12.377  -2.236  0.00  0.00    -0.064 A 
ATOM     14  C   UNL     1      -4.826 -13.255  -1.176  0.00  0.00    +0.003 A 
ATOM     15  C   UNL     1      -6.060 -13.801  -0.877  0.00  0.00    +0.020 A 
ATOM     16  C   UNL     1      -7.166 -13.469  -1.639  0.00  0.00    +0.041 A 
ATOM     17  C   UNL     1      -7.036 -12.591  -2.700  0.00  0.00    +0.020 A 
ATOM     18  C   UNL     1      -5.803 -12.041  -2.995  0.00  0.00    +0.003 A 
ATOM     19 CL   UNL     1      -8.716 -14.155  -1.265  0.00  0.00    -0.084 Cl
ENDBRANCH  12  13
ENDBRANCH   9  12
ENDBRANCH   2   5
BRANCH   1  20
ATOM     20  C   UNL     1       1.107  -6.044  -1.844  0.00  0.00    +0.100 C 
ATOM     21  C   UNL     1       2.257  -6.572  -0.983  0.00  0.00    +0.033 C 
BRANCH  20  25
ATOM     22  C   UNL     1       0.777  -1.811  -1.336  0.00  0.00    +0.162 A 
ATOM     23  C   UNL     1       0.243  -2.669  -0.388  0.00  0.00    +0.050 A 
ATOM     24  C   UNL     1       0.352  -4.037  -0.555  0.00  0.00    +0.009 A 
ATOM     25  C   UNL     1       0.992  -4.552  -1.667  0.00  0.00    -0.024 A 
ATOM     26  C   UNL     1       1.526  -3.702  -2.616  0.00  0.00    +0.055 A 
ATOM     27  C   UNL     1       1.416  -2.330  -2.458  0.00  0.00    +0.162 A 
BRANCH  22  28
ATOM     28  O   UNL     1       0.671  -0.465  -1.174  0.00  0.00    -0.489 OA
BRANCH  28  30
ATOM     29  C   UNL     1      -0.019   1.526   0.010  0.00  0.00    +0.048 C 
ATOM     30  C   UNL     1       0.002  -0.004   0.002  0.00  0.00    +0.226 C 
ENDBRANCH  28  30
ENDBRANCH  22  28
BRANCH  27  31
ATOM     31  O   UNL     1       1.936  -1.492  -3.394  0.00  0.00    -0.489 OA
BRANCH  31  32
ATOM     32  C   UNL     1       2.578  -2.095  -4.520  0.00  0.00    +0.226 C 
ATOM     33  C   UNL     1       3.096  -1.002  -5.457  0.00  0.00    +0.048 C 
ENDBRANCH  31  32
ENDBRANCH  27  31
ENDBRANCH  20  25
ENDBRANCH   1  20
TORSDOF 9
