REMARK  Name = ZINC48998342
REMARK  13 active torsions:
REMARK  status: ('A' for Active; 'I' for Inactive)
REMARK    1  A    between atoms: C_1  and  C_2
REMARK    2  A    between atoms: C_2  and  C_4
REMARK    3  A    between atoms: C_2  and  CA_12
REMARK    4  A    between atoms: C_4  and  C_5
REMARK    5  A    between atoms: C_8  and  O_11
REMARK    6  A    between atoms: CA_12  and  C_14
REMARK    7  A    between atoms: CA_12  and  N_42
REMARK    8  A    between atoms: N_16  and  CA_17
REMARK    9  A    between atoms: CA_17  and  C_19
REMARK   10  A    between atoms: CA_17  and  C_39
REMARK   11  A    between atoms: C_21  and  O_38
REMARK   12  A    between atoms: C_23  and  O_37
REMARK   13  A    between atoms: C_25  and  N_28
REMARK                            x       y       z     vdW  Elec       q    Type
REMARK                         _______ _______ _______ _____ _____    ______ ____
ROOT
ATOM      1  CA  UNL     1       4.465  -0.084   0.458  0.00  0.00    +0.218 C 
ENDROOT
BRANCH   1   2
ATOM      2  C   UNL     1       5.422  -1.212   0.069  0.00  0.00    +0.183 C 
ATOM      3  C   UNL     1       6.879  -0.721   0.169  0.00  0.00    +0.178 C 
ATOM      4  C   UNL     1       7.446  -0.923  -1.257  0.00  0.00    +0.195 C 
ATOM      5  C   UNL     1       6.474  -1.976  -1.847  0.00  0.00    +0.255 C 
ATOM      6  O   UNL     1       5.191  -1.601  -1.295  0.00  0.00    -0.345 OA
BRANCH   5   7
ATOM      7  N   UNL     1       6.453  -1.896  -3.310  0.00  0.00    -0.271 N 
ATOM      8  C   UNL     1       5.979  -0.768  -3.921  0.00  0.00    +0.098 A 
ATOM      9  C   UNL     1       5.960  -0.694  -5.269  0.00  0.00    +0.088 A 
ATOM     10  C   UNL     1       6.435  -1.793  -6.025  0.00  0.00    +0.254 A 
ATOM     11  O   UNL     1       6.429  -1.750  -7.242  0.00  0.00    -0.268 OA
ATOM     12  N   UNL     1       6.895  -2.887  -5.385  0.00  0.00    -0.275 N 
ATOM     13  H   UNL     1       7.222  -3.644  -5.896  0.00  0.00    +0.173 HD
ATOM     14  C   UNL     1       6.907  -2.932  -4.040  0.00  0.00    +0.331 A 
ATOM     15  O   UNL     1       7.329  -3.923  -3.477  0.00  0.00    -0.246 OA
ENDBRANCH   5   7
BRANCH   4  16
ATOM     16  O   UNL     1       8.781  -1.431  -1.208  0.00  0.00    -0.385 OA
ATOM     17  H   UNL     1       9.409  -0.844  -0.765  0.00  0.00    +0.210 HD
ENDBRANCH   4  16
BRANCH   3  18
ATOM     18  O   UNL     1       7.608  -1.506   1.116  0.00  0.00    -0.386 OA
ATOM     19  H   UNL     1       8.532  -1.241   1.219  0.00  0.00    +0.210 HD
ENDBRANCH   3  18
ENDBRANCH   1   2
BRANCH   1  22
ATOM     20  C   UNL     1       2.156   0.011   1.231  0.00  0.00    +0.199 C 
ATOM     21  O   UNL     1       2.453   0.972   1.908  0.00  0.00    -0.278 OA
ATOM     22  N   UNL     1       3.090  -0.591   0.468  0.00  0.00    -0.302 N 
ATOM     23  H   UNL     1       2.853  -1.359  -0.073  0.00  0.00    +0.150 HD
BRANCH  20  24
ATOM     24  CA  UNL     1       0.742  -0.511   1.242  0.00  0.00    +0.016 C 
BRANCH  24  25
ATOM     25  N   UNL     1       0.054  -0.037   2.450  0.00  0.00    +0.386 N 
ATOM     26  H1  UNL     1      -0.892  -0.386   2.457  0.00  0.00    -0.089 HD
ATOM     27  H2  UNL     1       0.542  -0.371   3.268  0.00  0.00    -0.089 HD
ATOM     28  H3  UNL     1       0.041   0.972   2.456  0.00  0.00    -0.089 HD
ENDBRANCH  24  25
BRANCH  24  30
ATOM     29  C   UNL     1      -0.019   1.526   0.010  0.00  0.00    +0.006 C 
ATOM     30  C   UNL     1       0.002  -0.004   0.002  0.00  0.00    -0.014 C 
BRANCH  30  31
ATOM     31  C   UNL     1      -1.433  -0.534   0.013  0.00  0.00    +0.055 C 
BRANCH  31  32
ATOM     32  C   UNL     1      -2.125  -0.137  -1.266  0.00  0.00    +0.016 A 
ATOM     33  C   UNL     1      -2.716   1.109  -1.364  0.00  0.00    +0.025 A 
ATOM     34  C   UNL     1      -3.350   1.466  -2.543  0.00  0.00    +0.048 A 
ATOM     35  C   UNL     1      -3.365   0.549  -3.589  0.00  0.00    +0.133 A 
ATOM     36  C   UNL     1      -2.750  -0.682  -3.416  0.00  0.00    +0.128 A 
ATOM     37  N   UNL     1      -2.153  -0.981  -2.279  0.00  0.00    -0.361 N 
ATOM     38  H   UNL     1      -1.726  -1.847  -2.184  0.00  0.00    +0.165 HD
BRANCH  35  39
ATOM     39  O   UNL     1      -3.975   0.855  -4.765  0.00  0.00    -0.505 OA
ATOM     40  H   UNL     1      -3.394   1.279  -5.411  0.00  0.00    +0.292 HD
ENDBRANCH  35  39
ENDBRANCH  31  32
ENDBRANCH  30  31
ENDBRANCH  24  30
ENDBRANCH  20  24
ENDBRANCH   1  22
BRANCH   1  41
ATOM     41  C   UNL     1       4.579   1.038  -0.542  0.00  0.00    +0.378 C 
ATOM     42  O   UNL     1       5.385   1.935  -0.362  0.00  0.00    -0.244 OA
ATOM     43  OXT UNL     1       3.865   1.049  -1.530  0.00  0.00    -0.244 OA
ENDBRANCH   1  41
TORSDOF 12
