REMARK  Name = ZINC36806116
REMARK  9 active torsions:
REMARK  status: ('A' for Active; 'I' for Inactive)
REMARK    1  A    between atoms: C_1  and  C_2
REMARK    2  A    between atoms: C_3  and  C_12
REMARK    3  A    between atoms: C_12  and  C_14
REMARK    4  A    between atoms: C_14  and  C_16
REMARK    5  A    between atoms: C_14  and  S_17
REMARK    6  A    between atoms: S_17  and  C_18
REMARK    7  A    between atoms: C_21  and  C_30
REMARK    8  A    between atoms: N_22  and  C_23
REMARK    9  A    between atoms: C_23  and  C_24
REMARK                            x       y       z     vdW  Elec       q    Type
REMARK                         _______ _______ _______ _____ _____    ______ ____
ROOT
ATOM      1  C   UNL     1       0.828   3.444  -4.220  0.00  0.00    +0.193 A 
ATOM      2  N   UNL     1       0.817   4.327  -3.249  0.00  0.00    -0.122 NA
ATOM      3  N   UNL     1       1.141   5.485  -3.702  0.00  0.00    -0.128 NA
ATOM      4  C   UNL     1       1.380   5.413  -4.991  0.00  0.00    +0.167 A 
ATOM      5  N   UNL     1       1.193   4.102  -5.363  0.00  0.00    -0.300 N 
ENDROOT
BRANCH   4   6
ATOM      6  C   UNL     1       1.780   6.527  -5.874  0.00  0.00    +0.044 A 
ATOM      7  C   UNL     1       2.774   6.512  -6.799  0.00  0.00    +0.095 A 
ATOM      8  N   UNL     1       2.845   7.726  -7.419  0.00  0.00    -0.360 N 
ATOM      9  H   UNL     1       3.477   7.957  -8.117  0.00  0.00    +0.165 HD
ATOM     10  C   UNL     1       1.887   8.577  -6.909  0.00  0.00    +0.047 A 
ATOM     11  C   UNL     1       1.175   7.869  -5.927  0.00  0.00    +0.010 A 
ATOM     12  C   UNL     1       0.131   8.486  -5.240  0.00  0.00    +0.011 A 
ATOM     13  C   UNL     1      -0.200   9.791  -5.532  0.00  0.00    +0.001 A 
ATOM     14  C   UNL     1       0.501  10.490  -6.505  0.00  0.00    +0.002 A 
ATOM     15  C   UNL     1       1.540   9.896  -7.186  0.00  0.00    +0.026 A 
ENDBRANCH   4   6
BRANCH   1  16
ATOM     16  S   UNL     1       0.450   1.729  -4.077  0.00  0.00    -0.075 S 
BRANCH  16  17
ATOM     17  C   UNL     1       0.051   1.512  -2.321  0.00  0.00    +0.122 C 
ATOM     18  C   UNL     1      -1.217   2.300  -1.985  0.00  0.00    +0.028 C 
BRANCH  17  19
ATOM     19  C   UNL     1      -0.175   0.051  -2.033  0.00  0.00    +0.178 C 
ATOM     20  O   UNL     1      -0.557  -0.690  -2.916  0.00  0.00    -0.291 OA
BRANCH  19  23
ATOM     21  C   UNL     1       2.577  -0.875  -0.947  0.00  0.00    +0.064 C 
ATOM     22  C   UNL     1       1.262  -0.881  -0.210  0.00  0.00    +0.024 A 
ATOM     23  C   UNL     1       0.057  -0.460  -0.732  0.00  0.00    +0.046 A 
ATOM     24  C   UNL     1      -0.942  -0.647   0.339  0.00  0.00    +0.010 A 
ATOM     25  C   UNL     1      -2.311  -0.414   0.435  0.00  0.00    +0.011 A 
ATOM     26  C   UNL     1      -2.971  -0.705   1.609  0.00  0.00    +0.001 A 
ATOM     27  C   UNL     1      -2.277  -1.226   2.692  0.00  0.00    +0.002 A 
ATOM     28  C   UNL     1      -0.922  -1.461   2.609  0.00  0.00    +0.026 A 
ATOM     29  C   UNL     1      -0.238  -1.175   1.432  0.00  0.00    +0.047 A 
ATOM     30  N   UNL     1       1.084  -1.305   1.055  0.00  0.00    -0.358 N 
ATOM     31  H   UNL     1       1.788  -1.651   1.625  0.00  0.00    +0.166 HD
ENDBRANCH  19  23
ENDBRANCH  17  19
ENDBRANCH  16  17
ENDBRANCH   1  16
BRANCH   5  32
ATOM     32  C   UNL     1       1.349   3.530  -6.702  0.00  0.00    +0.157 C 
BRANCH  32  33
ATOM     33  C   UNL     1       0.055   3.727  -7.495  0.00  0.00    +0.138 C 
ATOM     34  C   UNL     1       0.228   3.210  -8.945  0.00  0.00    +0.035 C 
ATOM     35  C   UNL     1      -1.245   2.898  -9.325  0.00  0.00    +0.031 C 
ATOM     36  C   UNL     1      -1.835   2.418  -7.981  0.00  0.00    +0.160 C 
ATOM     37  O   UNL     1      -1.000   2.929  -6.934  0.00  0.00    -0.375 OA
ENDBRANCH  32  33
ENDBRANCH   5  32
TORSDOF 7
