REMARK  Name = ZINC03380246
REMARK  10 active torsions:
REMARK  status: ('A' for Active; 'I' for Inactive)
REMARK    1  A    between atoms: C_1  and  C_2
REMARK    2  A    between atoms: C_2  and  N_3
REMARK    3  A    between atoms: C_7  and  C_9
REMARK    4  A    between atoms: C_9  and  C_11
REMARK    5  A    between atoms: C_9  and  O_12
REMARK    6  A    between atoms: O_12  and  C_13
REMARK    7  A    between atoms: C_13  and  C_15
REMARK    8  A    between atoms: C_15  and  N_16
REMARK    9  A    between atoms: N_16  and  S_17
REMARK   10  A    between atoms: S_17  and  C_20
REMARK                            x       y       z     vdW  Elec       q    Type
REMARK                         _______ _______ _______ _____ _____    ______ ____
ROOT
ATOM      1  C   UNL     1       3.572  -6.054   4.437  0.00  0.00    +0.323 C 
ATOM      2  O   UNL     1       4.382  -5.350   4.992  0.00  0.00    -0.249 OA
ENDROOT
BRANCH   1   3
ATOM      3  O   UNL     1       2.499  -5.506   3.845  0.00  0.00    -0.451 OA
BRANCH   3   4
ATOM      4  C   UNL     1       2.378  -4.084   3.911  0.00  0.00    +0.259 C 
ATOM      5  C   UNL     1       1.594  -3.697   5.167  0.00  0.00    +0.062 C 
BRANCH   4  10
ATOM      6  N   UNL     1       0.711  -0.489   1.189  0.00  0.00    -0.299 N 
ATOM      7  C   UNL     1       0.854  -1.814   1.394  0.00  0.00    +0.306 C 
ATOM      8  O   UNL     1       0.395  -2.606   0.594  0.00  0.00    -0.252 OA
ATOM      9  N   UNL     1       1.506  -2.260   2.486  0.00  0.00    -0.237 N 
ATOM     10  C   UNL     1       1.649  -3.585   2.690  0.00  0.00    +0.261 C 
ATOM     11  O   UNL     1       1.191  -4.374   1.893  0.00  0.00    -0.271 OA
ATOM     12  H   UNL     1       1.077   0.142   1.827  0.00  0.00    +0.150 HD
ATOM     13  H   UNL     1       1.872  -1.628   3.124  0.00  0.00    +0.159 HD
BRANCH   6  15
ATOM     14  C   UNL     1      -0.019   1.526   0.010  0.00  0.00    +0.024 C 
ATOM     15  C   UNL     1       0.002  -0.004   0.002  0.00  0.00    +0.102 C 
ENDBRANCH   6  15
ENDBRANCH   4  10
ENDBRANCH   3   4
ENDBRANCH   1   3
BRANCH   1  16
ATOM     16  C   UNL     1       3.767  -7.548   4.408  0.00  0.00    +0.226 C 
BRANCH  16  17
ATOM     17  N   UNL     1       5.002  -7.893   5.116  0.00  0.00    -0.179 NA
ATOM     18  H   UNL     1       5.653  -7.204   5.320  0.00  0.00    +0.149 HD
BRANCH  17  19
ATOM     19  S   UNL     1       5.287  -9.460   5.569  0.00  0.00    +0.062 S 
ATOM     20  O   UNL     1       6.559  -9.476   6.202  0.00  0.00    -0.153 OA
ATOM     21  O   UNL     1       4.108  -9.916   6.218  0.00  0.00    -0.153 OA
BRANCH  19  22
ATOM     22  C   UNL     1       5.448 -10.408   4.092  0.00  0.00    +0.142 A 
ATOM     23  C   UNL     1       4.331 -10.988   3.517  0.00  0.00    +0.070 A 
ATOM     24  C   UNL     1       4.457 -11.731   2.357  0.00  0.00    +0.037 A 
ATOM     25  C   UNL     1       5.700 -11.896   1.773  0.00  0.00    +0.021 A 
ATOM     26  C   UNL     1       6.816 -11.316   2.348  0.00  0.00    +0.037 A 
ATOM     27  C   UNL     1       6.690 -10.568   3.505  0.00  0.00    +0.070 A 
ATOM     28 CL   UNL     1       8.090  -9.835   4.222  0.00  0.00    -0.081 Cl
ATOM     29 BR   UNL     1       5.872 -12.913   0.188  0.00  0.00    -0.050 Br
ATOM     30 CL   UNL     1       2.771 -10.782   4.251  0.00  0.00    -0.081 Cl
ENDBRANCH  19  22
ENDBRANCH  17  19
ENDBRANCH  16  17
ENDBRANCH   1  16
TORSDOF 8
