REMARK  Name = ZINC04574829
REMARK  6 active torsions:
REMARK  status: ('A' for Active; 'I' for Inactive)
REMARK    1  A    between atoms: C_1  and  C_2
REMARK    2  A    between atoms: C_3  and  C_27
REMARK    3  A    between atoms: C_4  and  C_21
REMARK    4  A    between atoms: C_10  and  S_12
REMARK    5  A    between atoms: S_12  and  C_13
REMARK    6  A    between atoms: C_13  and  C_14
REMARK                            x       y       z     vdW  Elec       q    Type
REMARK                         _______ _______ _______ _____ _____    ______ ____
ROOT
ATOM      1  C   UNL     1       0.636   1.237   0.152  0.00  0.00    +0.064 C 
ATOM      2  C   UNL     1       0.386  -0.246   0.056  0.00  0.00    +0.026 C 
ATOM      3  C   UNL     1      -0.885  -0.690  -0.182  0.00  0.00    +0.059 C 
ATOM      4  C   UNL     1      -1.090  -2.192  -0.272  0.00  0.00    +0.166 C 
ATOM      5  N   UNL     1       0.109  -3.019  -0.092  0.00  0.00    -0.187 N 
ATOM      6  C   UNL     1       1.315  -2.401   0.141  0.00  0.00    +0.217 C 
ATOM      7  N   UNL     1       1.405  -1.079   0.199  0.00  0.00    -0.330 N 
ATOM      8  N   UNL     1       2.241  -3.361   0.268  0.00  0.00    -0.190 NA
ATOM      9  C   UNL     1       1.688  -4.553   0.129  0.00  0.00    +0.197 C 
ATOM     10  N   UNL     1       0.348  -4.396  -0.100  0.00  0.00    -0.118 NA
ATOM     11  H   UNL     1       2.280  -0.695   0.362  0.00  0.00    +0.168 HD
ENDROOT
BRANCH   4  12
ATOM     12  C   UNL     1      -1.673  -2.507  -1.625  0.00  0.00    -0.021 A 
ATOM     13  C   UNL     1      -0.891  -2.392  -2.759  0.00  0.00    +0.006 A 
ATOM     14  C   UNL     1      -1.426  -2.681  -4.000  0.00  0.00    +0.000 A 
ATOM     15  C   UNL     1      -2.744  -3.084  -4.108  0.00  0.00    +0.000 A 
ATOM     16  C   UNL     1      -3.526  -3.200  -2.974  0.00  0.00    +0.000 A 
ATOM     17  C   UNL     1      -2.990  -2.915  -1.732  0.00  0.00    +0.006 A 
ENDBRANCH   4  12
BRANCH   3  18
ATOM     18  C   UNL     1      -1.957   0.206  -0.337  0.00  0.00    +0.241 C 
ATOM     19  O   UNL     1      -1.747   1.406  -0.375  0.00  0.00    -0.271 OA
ATOM     20  N   UNL     1      -3.216  -0.262  -0.444  0.00  0.00    -0.325 N 
ATOM     21  H   UNL     1      -3.392  -1.210  -0.335  0.00  0.00    +0.145 HD
ATOM     22  H   UNL     1      -3.947   0.349  -0.629  0.00  0.00    +0.145 HD
ENDBRANCH   3  18
BRANCH   9  23
ATOM     23  S   UNL     1       2.538  -6.093   0.223  0.00  0.00    -0.082 S 
BRANCH  23  24
ATOM     24  C   UNL     1       4.261  -5.625   0.541  0.00  0.00    +0.115 C 
BRANCH  24  25
ATOM     25  C   UNL     1       5.108  -6.867   0.645  0.00  0.00    -0.002 A 
ATOM     26  C   UNL     1       5.286  -7.483   1.870  0.00  0.00    +0.007 A 
ATOM     27  C   UNL     1       6.062  -8.622   1.965  0.00  0.00    +0.000 A 
ATOM     28  C   UNL     1       6.663  -9.148   0.836  0.00  0.00    +0.003 A 
ATOM     29  C   UNL     1       6.486  -8.534  -0.390  0.00  0.00    +0.038 A 
ATOM     30  C   UNL     1       5.704  -7.396  -0.487  0.00  0.00    +0.127 A 
ATOM     31  F   UNL     1       5.527  -6.798  -1.686  0.00  0.00    -0.205 F 
ENDBRANCH  24  25
ENDBRANCH  23  24
ENDBRANCH   9  23
TORSDOF 5
