REMARK  Name = ZINC37174275
REMARK  5 active torsions:
REMARK  status: ('A' for Active; 'I' for Inactive)
REMARK    1  A    between atoms: C_1  and  N_2
REMARK    2  A    between atoms: N_2  and  C_3
REMARK    3  A    between atoms: N_2  and  S_9
REMARK    4  A    between atoms: S_9  and  C_12
REMARK    5  A    between atoms: C_13  and  N_20
REMARK                            x       y       z     vdW  Elec       q    Type
REMARK                         _______ _______ _______ _____ _____    ______ ____
ROOT
ATOM      1  C   UNL     1       1.623  -1.219  -2.172  0.00  0.00    +0.140 A 
ATOM      2  C   UNL     1       2.296  -0.158  -2.765  0.00  0.00    +0.053 A 
ATOM      3  C   UNL     1       3.681  -0.187  -2.865  0.00  0.00    +0.040 A 
ATOM      4  C   UNL     1       4.386  -1.270  -2.374  0.00  0.00    +0.021 A 
ATOM      5  C   UNL     1       3.713  -2.325  -1.784  0.00  0.00    +0.032 A 
ATOM      6  C   UNL     1       2.333  -2.297  -1.679  0.00  0.00    +0.047 A 
ATOM      7 BR   UNL     1       1.418  -3.737  -0.864  0.00  0.00    -0.048 Br
ATOM      8 BR   UNL     1       6.272  -1.310  -2.509  0.00  0.00    -0.050 Br
ENDROOT
BRANCH   1   9
ATOM      9  S   UNL     1      -0.134  -1.187  -2.043  0.00  0.00    +0.064 S 
ATOM     10  O   UNL     1      -0.554  -2.535  -1.888  0.00  0.00    -0.153 OA
ATOM     11  O   UNL     1      -0.603  -0.359  -3.098  0.00  0.00    -0.153 OA
BRANCH   9  13
ATOM     12  C   UNL     1      -0.697   1.044  -0.621  0.00  0.00    +0.132 C 
ATOM     13  N   UNL     1      -0.507  -0.409  -0.630  0.00  0.00    -0.176 NA
BRANCH  13  14
ATOM     14  C   UNL     1      -0.647  -1.174   0.612  0.00  0.00    +0.090 C 
ATOM     15  C   UNL     1       0.422  -0.705   1.599  0.00  0.00    +0.032 C 
ATOM     16  C   UNL     1      -0.122   0.463   2.468  0.00  0.00    +0.071 C 
ATOM     17  S   UNL     1      -1.847  -0.136   2.745  0.00  0.00    -0.159 S 
ATOM     18  C   UNL     1      -2.084  -0.999   1.140  0.00  0.00    +0.089 C 
ENDBRANCH  13  14
ENDBRANCH   9  13
ENDBRANCH   1   9
BRANCH   2  19
ATOM     19  N   UNL     1       1.582   0.935  -3.261  0.00  0.00    -0.356 N 
ATOM     20  H   UNL     1       0.680   1.106  -2.949  0.00  0.00    +0.142 HD
ATOM     21  H   UNL     1       1.988   1.522  -3.917  0.00  0.00    +0.142 HD
ENDBRANCH   2  19
TORSDOF 4
