REMARK  Name = ZINC35789339
REMARK  14 active torsions:
REMARK  status: ('A' for Active; 'I' for Inactive)
REMARK    1  A    between atoms: C_1  and  C_2
REMARK    2  A    between atoms: C_3  and  C_22
REMARK    3  A    between atoms: C_4  and  O_14
REMARK    4  A    between atoms: N_5  and  C_7
REMARK    5  A    between atoms: O_14  and  C_15
REMARK    6  A    between atoms: C_22  and  N_23
REMARK    7  A    between atoms: N_23  and  C_24
REMARK    8  A    between atoms: N_23  and  C_35
REMARK    9  A    between atoms: C_24  and  C_25
REMARK   10  A    between atoms: C_25  and  C_27
REMARK   11  A    between atoms: C_25  and  O_34
REMARK   12  A    between atoms: C_27  and  C_28
REMARK   13  A    between atoms: C_35  and  C_36
REMARK   14  A    between atoms: C_35  and  C_37
REMARK                            x       y       z     vdW  Elec       q    Type
REMARK                         _______ _______ _______ _____ _____    ______ ____
ROOT
ATOM      1  C   UNL     1       2.510   2.902  -0.677  0.00  0.00    +0.068 C 
ATOM      2  C   UNL     1       1.653   1.745  -0.231  0.00  0.00    +0.065 A 
ATOM      3  C   UNL     1       0.967   0.865  -1.072  0.00  0.00    +0.021 A 
ATOM      4  C   UNL     1       0.313  -0.036  -0.290  0.00  0.00    +0.225 A 
ATOM      5  N   UNL     1       0.584   0.276   1.005  0.00  0.00    -0.200 N 
ATOM      6  N   UNL     1       1.430   1.392   1.009  0.00  0.00    -0.168 NA
ENDROOT
BRANCH   5   7
ATOM      7  C   UNL     1       0.106  -0.403   2.136  0.00  0.00    +0.069 A 
ATOM      8  C   UNL     1      -1.210  -0.843   2.178  0.00  0.00    +0.031 A 
ATOM      9  C   UNL     1      -1.679  -1.511   3.292  0.00  0.00    +0.040 A 
ATOM     10  C   UNL     1      -0.837  -1.743   4.366  0.00  0.00    +0.124 A 
ATOM     11  C   UNL     1       0.476  -1.306   4.326  0.00  0.00    +0.040 A 
ATOM     12  C   UNL     1       0.950  -0.642   3.212  0.00  0.00    +0.031 A 
ATOM     13  F   UNL     1      -1.297  -2.397   5.455  0.00  0.00    -0.205 F 
ENDBRANCH   5   7
BRANCH   4  14
ATOM     14  O   UNL     1      -0.469  -1.058  -0.724  0.00  0.00    -0.435 OA
BRANCH  14  15
ATOM     15  C   UNL     1      -1.775  -0.794  -0.990  0.00  0.00    +0.165 A 
ATOM     16  C   UNL     1      -2.291   0.472  -0.752  0.00  0.00    +0.049 A 
ATOM     17  C   UNL     1      -3.619   0.738  -1.023  0.00  0.00    +0.004 A 
ATOM     18  C   UNL     1      -4.436  -0.256  -1.530  0.00  0.00    +0.003 A 
ATOM     19  C   UNL     1      -3.926  -1.519  -1.768  0.00  0.00    +0.042 A 
ATOM     20  C   UNL     1      -2.596  -1.790  -1.504  0.00  0.00    +0.165 A 
ATOM     21  F   UNL     1      -2.096  -3.022  -1.742  0.00  0.00    -0.202 F 
ENDBRANCH  14  15
ENDBRANCH   4  14
BRANCH   3  22
ATOM     22  C   UNL     1       0.954   0.906  -2.579  0.00  0.00    -0.035 C 
BRANCH  22  23
ATOM     23  N   UNL     1       2.316   0.696  -3.086  0.00  0.00    +0.386 N 
ATOM     24  H   UNL     1       2.952   1.316  -2.609  0.00  0.00    -0.081 HD
BRANCH  23  25
ATOM     25  C   UNL     1       2.718  -0.697  -2.847  0.00  0.00    -0.074 C 
ATOM     26  C   UNL     1       2.871  -0.932  -1.343  0.00  0.00    -0.014 C 
ATOM     27  C   UNL     1       1.649  -1.639  -3.405  0.00  0.00    -0.014 C 
ENDBRANCH  23  25
BRANCH  23  28
ATOM     28  C   UNL     1       2.350   0.974  -4.528  0.00  0.00    -0.046 C 
BRANCH  28  29
ATOM     29  C   UNL     1       3.799   0.947  -5.019  0.00  0.00    +0.102 C 
BRANCH  29  30
ATOM     30  O   UNL     1       4.303  -0.387  -4.942  0.00  0.00    -0.393 OA
ATOM     31  H   UNL     1       3.860  -1.010  -5.535  0.00  0.00    +0.210 HD
ENDBRANCH  29  30
BRANCH  29  32
ATOM     32  C   UNL     1       3.855   1.431  -6.469  0.00  0.00    +0.064 C 
BRANCH  32  33
ATOM     33  C   UNL     1       5.292   1.522  -6.913  0.00  0.00    -0.045 A 
ATOM     34  C   UNL     1       5.999   2.696  -6.732  0.00  0.00    +0.004 A 
ATOM     35  C   UNL     1       7.317   2.779  -7.139  0.00  0.00    +0.000 A 
ATOM     36  C   UNL     1       7.929   1.688  -7.728  0.00  0.00    +0.000 A 
ATOM     37  C   UNL     1       7.222   0.513  -7.908  0.00  0.00    +0.000 A 
ATOM     38  C   UNL     1       5.905   0.429  -7.497  0.00  0.00    +0.004 A 
ENDBRANCH  32  33
ENDBRANCH  29  32
ENDBRANCH  28  29
ENDBRANCH  23  28
ENDBRANCH  22  23
ENDBRANCH   3  22
TORSDOF 11
