REMARK  Name = ZINC23590841
REMARK  8 active torsions:
REMARK  status: ('A' for Active; 'I' for Inactive)
REMARK    1  A    between atoms: C_1  and  C_2
REMARK    2  A    between atoms: C_2  and  C_3
REMARK    3  A    between atoms: C_3  and  C_5
REMARK    4  A    between atoms: C_3  and  N_6
REMARK    5  A    between atoms: C_7  and  C_9
REMARK    6  A    between atoms: C_9  and  S_10
REMARK    7  A    between atoms: S_10  and  C_11
REMARK    8  A    between atoms: C_21  and  C_25
REMARK                            x       y       z     vdW  Elec       q    Type
REMARK                         _______ _______ _______ _____ _____    ______ ____
ROOT
ATOM      1  C   UNL     1       1.943  -4.996   3.981  0.00  0.00    +0.191 A 
ATOM      2  N   UNL     1       0.865  -5.413   3.326  0.00  0.00    -0.207 NA
ATOM      3  C   UNL     1       0.460  -6.671   3.367  0.00  0.00    +0.129 A 
ATOM      4  C   UNL     1       1.198  -7.614   4.135  0.00  0.00    +0.051 A 
ATOM      5  C   UNL     1       0.938  -9.043   4.325  0.00  0.00    -0.025 A 
ATOM      6  C   UNL     1       1.798  -9.722   5.110  0.00  0.00    -0.004 A 
ATOM      7  S   UNL     1       2.989  -8.521   5.639  0.00  0.00    -0.073 S 
ATOM      8  C   UNL     1       2.328  -7.103   4.803  0.00  0.00    +0.115 A 
ATOM      9  N   UNL     1       2.671  -5.833   4.708  0.00  0.00    -0.214 NA
ATOM     10  C   UNL     1       1.752 -11.179   5.459  0.00  0.00    +0.046 C 
ATOM     11  C   UNL     1       0.365 -11.723   5.090  0.00  0.00    -0.009 C 
ATOM     12  C   UNL     1       0.016 -11.258   3.673  0.00  0.00    +0.008 C 
ATOM     13  C   UNL     1      -0.246  -9.751   3.671  0.00  0.00    +0.037 C 
ATOM     14  C   UNL     1       0.382 -13.252   5.142  0.00  0.00    +0.008 C 
ATOM     15  N   UNL     1      -0.668  -7.065   2.671  0.00  0.00    -0.343 N 
ATOM     16  H   UNL     1      -1.000  -8.113   2.709  0.00  0.00    +0.144 HD
ATOM     17  H   UNL     1      -1.234  -6.330   2.079  0.00  0.00    +0.144 HD
ENDROOT
BRANCH   1  18
ATOM     18  S   UNL     1       2.417  -3.303   3.876  0.00  0.00    -0.077 S 
BRANCH  18  19
ATOM     19  C   UNL     1       1.113  -2.677   2.789  0.00  0.00    +0.173 C 
BRANCH  19  21
ATOM     20  N   UNL     1       0.464  -0.520   1.767  0.00  0.00    -0.312 N 
ATOM     21  C   UNL     1       1.320  -1.203   2.552  0.00  0.00    +0.224 C 
ATOM     22  O   UNL     1       2.258  -0.632   3.067  0.00  0.00    -0.275 OA
ATOM     23  H   UNL     1      -0.387  -1.038   1.300  0.00  0.00    +0.149 HD
BRANCH  20  24
ATOM     24  C   UNL     1       0.665   0.913   1.537  0.00  0.00    +0.070 C 
ATOM     25  C   UNL     1       0.025   1.708   2.677  0.00  0.00    +0.028 C 
BRANCH  24  27
ATOM     26  C   UNL     1       0.739   0.611  -0.942  0.00  0.00    +0.005 C 
ATOM     27  C   UNL     1       0.017   1.312   0.210  0.00  0.00    +0.018 C 
ENDBRANCH  24  27
ENDBRANCH  20  24
ENDBRANCH  19  21
ENDBRANCH  18  19
ENDBRANCH   1  18
TORSDOF 5
