REMARK  Name = ZINC26401823
REMARK  9 active torsions:
REMARK  status: ('A' for Active; 'I' for Inactive)
REMARK    1  A    between atoms: C_1  and  C_2
REMARK    2  A    between atoms: N_11  and  C_14
REMARK    3  A    between atoms: C_14  and  C_15
REMARK    4  A    between atoms: C_15  and  C_16
REMARK    5  A    between atoms: C_27  and  C_38
REMARK    6  A    between atoms: C_28  and  C_29
REMARK    7  A    between atoms: C_31  and  C_37
REMARK    8  A    between atoms: C_32  and  O_36
REMARK    9  A    between atoms: C_33  and  C_35
REMARK                            x       y       z     vdW  Elec       q    Type
REMARK                         _______ _______ _______ _____ _____    ______ ____
ROOT
ATOM      1  C   UNL     1      -7.691   6.790   2.213  0.00  0.00    +0.194 C 
ATOM      2  C   UNL     1      -7.739   7.763   3.400  0.00  0.00    +0.167 C 
ATOM      3  N   UNL     1      -8.955   8.578   3.268  0.00  0.00    -0.333 N 
ATOM      4  C   UNL     1      -9.504   8.741   2.016  0.00  0.00    +0.092 A 
ATOM      5  C   UNL     1     -10.648   9.546   2.103  0.00  0.00    +0.007 A 
ATOM      6  C   UNL     1     -11.357   9.833   0.930  0.00  0.00    +0.010 A 
ATOM      7  C   UNL     1     -10.870   9.292  -0.239  0.00  0.00    +0.004 A 
ATOM      8  C   UNL     1      -9.731   8.492  -0.306  0.00  0.00    +0.048 A 
ATOM      9  C   UNL     1      -9.013   8.194   0.828  0.00  0.00    +0.145 A 
ATOM     10  O   UNL     1      -7.894   7.444   0.953  0.00  0.00    -0.485 OA
ATOM     11  C   UNL     1     -10.768   9.871   3.508  0.00  0.00    -0.017 A 
ATOM     12  C   UNL     1      -9.725   9.263   4.160  0.00  0.00    +0.053 A 
ATOM     13  C   UNL     1     -11.841  10.721   4.138  0.00  0.00    +0.046 C 
ENDROOT
BRANCH  12  14
ATOM     14  C   UNL     1      -9.473   9.340   5.615  0.00  0.00    -0.001 A 
ATOM     15  C   UNL     1      -9.149   8.186   6.331  0.00  0.00    +0.017 A 
ATOM     16  C   UNL     1      -8.911   8.263   7.687  0.00  0.00    -0.008 A 
ATOM     17  C   UNL     1      -9.002   9.484   8.342  0.00  0.00    +0.123 A 
ATOM     18  C   UNL     1      -9.329  10.633   7.634  0.00  0.00    -0.008 A 
ATOM     19  C   UNL     1      -9.564  10.565   6.277  0.00  0.00    +0.017 A 
ATOM     20  C   UNL     1      -9.427  11.955   8.350  0.00  0.00    +0.047 C 
ATOM     21  C   UNL     1      -8.556   7.019   8.460  0.00  0.00    +0.047 C 
BRANCH  17  22
ATOM     22  O   UNL     1      -8.771   9.554   9.679  0.00  0.00    -0.506 OA
ATOM     23  H   UNL     1      -8.843  10.521  10.199  0.00  0.00    +0.292 HD
ENDBRANCH  17  22
ENDBRANCH  12  14
BRANCH   1  24
ATOM     24  C   UNL     1      -6.326   6.098   2.196  0.00  0.00    +0.061 C 
BRANCH  24  25
ATOM     25  C   UNL     1      -6.332   4.982   1.149  0.00  0.00    +0.088 C 
BRANCH  25  36
ATOM     26  C   UNL     1       2.435   3.955   0.001  0.00  0.00    +0.044 C 
ATOM     27  C   UNL     1       1.154   3.162   0.008  0.00  0.00    -0.046 A 
ATOM     28  C   UNL     1       1.179   1.773   0.000  0.00  0.00    +0.021 A 
ATOM     29  C   UNL     1      -0.013   1.076   0.008  0.00  0.00    +0.084 A 
ATOM     30  N   UNL     1      -1.169   1.711   0.017  0.00  0.00    -0.350 N 
ATOM     31  C   UNL     1      -1.234   3.034   0.030  0.00  0.00    +0.099 A 
ATOM     32  C   UNL     1      -0.073   3.800   0.023  0.00  0.00    +0.045 A 
ATOM     33  N   UNL     1      -2.474   3.662   0.045  0.00  0.00    -0.314 N 
ATOM     34  C   UNL     1      -2.588   4.575   1.192  0.00  0.00    +0.122 C 
ATOM     35  C   UNL     1      -3.932   5.304   1.128  0.00  0.00    +0.103 C 
ATOM     36  N   UNL     1      -5.022   4.318   1.133  0.00  0.00    -0.299 NA
ATOM     37  C   UNL     1      -4.908   3.406  -0.013  0.00  0.00    +0.103 C 
ATOM     38  C   UNL     1      -3.564   2.676   0.051  0.00  0.00    +0.122 C 
ATOM     39  H   UNL     1      -2.110   1.141   0.013  0.00  0.00    +0.166 HD
ENDBRANCH  25  36
ENDBRANCH  24  25
ENDBRANCH   1  24
TORSDOF 5
