REMARK  Name = ZINC08917425
REMARK  12 active torsions:
REMARK  status: ('A' for Active; 'I' for Inactive)
REMARK    1  A    between atoms: C_1  and  C_2
REMARK    2  A    between atoms: C_2  and  C_3
REMARK    3  A    between atoms: C_3  and  C_4
REMARK    4  A    between atoms: C_4  and  O_5
REMARK    5  A    between atoms: O_5  and  C_6
REMARK    6  A    between atoms: C_10  and  C_12
REMARK    7  A    between atoms: C_17  and  O_26
REMARK    8  A    between atoms: C_21  and  N_25
REMARK    9  A    between atoms: C_22  and  C_23
REMARK   10  A    between atoms: O_26  and  C_27
REMARK   11  A    between atoms: C_27  and  C_29
REMARK   12  A    between atoms: C_33  and  C_35
REMARK                            x       y       z     vdW  Elec       q    Type
REMARK                         _______ _______ _______ _____ _____    ______ ____
ROOT
ATOM      1  C   UNL     1       2.478   3.876  -0.028  0.00  0.00    +0.098 C 
ATOM      2  C   UNL     1       3.266   3.540   1.210  0.00  0.00    +0.008 A 
ATOM      3  C   UNL     1       2.952   4.163   2.406  0.00  0.00    +0.012 A 
ATOM      4  C   UNL     1       3.663   3.868   3.552  0.00  0.00    +0.047 A 
ATOM      5  C   UNL     1       4.697   2.943   3.508  0.00  0.00    +0.135 A 
ATOM      6  C   UNL     1       5.014   2.318   2.313  0.00  0.00    +0.093 A 
ATOM      7  C   UNL     1       4.298   2.616   1.161  0.00  0.00    +0.138 A 
ATOM      8  O   UNL     1       4.620   1.996  -0.001  0.00  0.00    -0.441 OA
ATOM      9  C   UNL     1       4.229   2.522  -1.173  0.00  0.00    +0.199 C 
ATOM     10  C   UNL     1       3.219   3.420  -1.254  0.00  0.00    +0.098 C 
ENDROOT
BRANCH   1  15
ATOM     11  C   UNL     1      -1.255   3.302   0.078  0.00  0.00    +0.121 A 
ATOM     12  C   UNL     1      -1.319   1.917   0.134  0.00  0.00    +0.045 A 
ATOM     13  C   UNL     1      -0.155   1.174   0.146  0.00  0.00    +0.004 A 
ATOM     14  C   UNL     1       1.073   1.808   0.091  0.00  0.00    +0.005 A 
ATOM     15  C   UNL     1       1.139   3.188   0.031  0.00  0.00    -0.031 A 
ATOM     16  C   UNL     1      -0.023   3.936   0.024  0.00  0.00    +0.050 A 
BRANCH  11  17
ATOM     17  O   UNL     1      -2.399   4.036   0.071  0.00  0.00    -0.492 OA
BRANCH  17  18
ATOM     18  C   UNL     1      -3.632   3.317   0.129  0.00  0.00    +0.229 C 
BRANCH  18  19
ATOM     19  C   UNL     1      -4.800   4.304   0.112  0.00  0.00    +0.041 C 
BRANCH  19  21
ATOM     20  C   UNL     1      -7.289   4.521   0.156  0.00  0.00    +0.004 C 
ATOM     21  C   UNL     1      -6.121   3.534   0.174  0.00  0.00    -0.000 C 
ENDBRANCH  19  21
ENDBRANCH  18  19
ENDBRANCH  17  18
ENDBRANCH  11  17
ENDBRANCH   1  15
BRANCH   9  22
ATOM     22  N   UNL     1       4.873   2.139  -2.323  0.00  0.00    -0.328 N 
ATOM     23  H   UNL     1       4.603   2.511  -3.177  0.00  0.00    +0.145 HD
ATOM     24  H   UNL     1       5.599   1.497  -2.282  0.00  0.00    +0.145 HD
ENDBRANCH   9  22
BRANCH  10  25
ATOM     25  C   UNL     1       2.848   3.946  -2.533  0.00  0.00    +0.101 C 
ATOM     26  N   UNL     1       2.554   4.364  -3.548  0.00  0.00    -0.191 NA
ENDBRANCH  10  25
BRANCH   5  27
ATOM     27  O   UNL     1       5.398   2.652   4.635  0.00  0.00    -0.422 OA
BRANCH  27  28
ATOM     28  C   UNL     1       6.680   3.065   4.683  0.00  0.00    +0.344 C 
ATOM     29  O   UNL     1       7.128   3.758   3.791  0.00  0.00    -0.245 OA
BRANCH  28  30
ATOM     30  C   UNL     1       7.540   2.674   5.818  0.00  0.00    +0.060 A 
ATOM     31  C   UNL     1       7.028   1.877   6.844  0.00  0.00    +0.015 A 
ATOM     32  C   UNL     1       7.837   1.517   7.902  0.00  0.00    +0.001 A 
ATOM     33  C   UNL     1       9.152   1.943   7.948  0.00  0.00    +0.003 A 
ATOM     34  C   UNL     1       9.666   2.732   6.934  0.00  0.00    -0.050 A 
ATOM     35  C   UNL     1       8.870   3.096   5.868  0.00  0.00    +0.018 A 
ATOM     36  C   UNL     1      11.101   3.191   6.992  0.00  0.00    +0.044 C 
ENDBRANCH  28  30
ENDBRANCH  27  28
ENDBRANCH   5  27
TORSDOF 10
