REMARK  Name = ZINC66195021
REMARK  6 active torsions:
REMARK  status: ('A' for Active; 'I' for Inactive)
REMARK    1  A    between atoms: C_1  and  C_2
REMARK    2  A    between atoms: N_8  and  C_9
REMARK    3  A    between atoms: C_12  and  C_15
REMARK    4  A    between atoms: C_15  and  C_17
REMARK    5  A    between atoms: C_15  and  N_18
REMARK    6  A    between atoms: C_24  and  N_27
REMARK                            x       y       z     vdW  Elec       q    Type
REMARK                         _______ _______ _______ _____ _____    ______ ____
ROOT
ATOM      1  C   UNL     1      -0.612   0.353   6.598  0.00  0.00    +0.102 C 
ATOM      2  C   UNL     1      -1.322  -0.885   7.150  0.00  0.00    +0.033 C 
ENDROOT
BRANCH   1   3
ATOM      3  N   UNL     1       0.607   0.603   7.373  0.00  0.00    -0.293 N 
ATOM      4  C   UNL     1       0.543   1.309   8.519  0.00  0.00    +0.303 C 
ATOM      5  O   UNL     1      -0.525   1.739   8.910  0.00  0.00    -0.253 OA
ATOM      6  N   UNL     1       1.664   1.539   9.232  0.00  0.00    -0.287 N 
ATOM      7  C   UNL     1       3.016   1.085   8.873  0.00  0.00    +0.108 C 
ATOM      8  C   UNL     1       3.977   1.603   9.963  0.00  0.00    +0.005 C 
ATOM      9  C   UNL     1       3.199   2.798  10.574  0.00  0.00    -0.049 C 
ATOM     10  C   UNL     1       1.738   2.293  10.496  0.00  0.00    +0.094 C 
ATOM     11  H   UNL     1       1.459   0.260   7.061  0.00  0.00    +0.151 HD
BRANCH   9  12
ATOM     12  N   UNL     1       3.604   3.034  11.966  0.00  0.00    +0.383 N 
ATOM     13  C   UNL     1       2.860   4.189  12.512  0.00  0.00    -0.078 C 
ATOM     14  C   UNL     1       3.872   4.909  13.438  0.00  0.00    -0.020 C 
ATOM     15  C   UNL     1       5.197   4.737  12.650  0.00  0.00    -0.020 C 
ATOM     16  C   UNL     1       5.046   3.336  12.019  0.00  0.00    -0.078 C 
ATOM     17  H   UNL     1       3.409   2.214  12.521  0.00  0.00    -0.081 HD
ENDBRANCH   9  12
ENDBRANCH   1   3
BRANCH   1  21
ATOM     18  C   UNL     1       0.414  -0.302   2.502  0.00  0.00    +0.038 A 
ATOM     19  C   UNL     1      -0.711   0.445   2.826  0.00  0.00    +0.024 A 
ATOM     20  C   UNL     1      -1.039   0.655   4.151  0.00  0.00    +0.007 A 
ATOM     21  C   UNL     1      -0.250   0.122   5.154  0.00  0.00    -0.027 A 
ATOM     22  C   UNL     1       0.871  -0.622   4.834  0.00  0.00    +0.007 A 
ATOM     23  C   UNL     1       1.202  -0.840   3.510  0.00  0.00    +0.024 A 
BRANCH  18  30
ATOM     24  C   UNL     1      -0.019   1.526   0.010  0.00  0.00    +0.030 C 
ATOM     25  C   UNL     1       0.002  -0.004   0.002  0.00  0.00    +0.097 C 
ATOM     26  C   UNL     1       0.792  -0.528  -1.213  0.00  0.00    +0.128 C 
ATOM     27  N   UNL     1       1.904  -1.279  -0.613  0.00  0.00    -0.297 N 
ATOM     28  C   UNL     1       1.805  -1.221   0.722  0.00  0.00    +0.307 C 
ATOM     29  O   UNL     1       2.598  -1.760   1.470  0.00  0.00    -0.252 OA
ATOM     30  N   UNL     1       0.750  -0.516   1.160  0.00  0.00    -0.251 N 
ATOM     31  H   UNL     1       2.599  -1.744  -1.105  0.00  0.00    +0.150 HD
ENDBRANCH  18  30
ENDBRANCH   1  21
TORSDOF 4
