REMARK  Name = ZINC02246397
REMARK  4 active torsions:
REMARK  status: ('A' for Active; 'I' for Inactive)
REMARK    1  A    between atoms: C_1  and  O_2
REMARK    2  A    between atoms: O_2  and  C_3
REMARK    3  A    between atoms: C_6  and  C_9
REMARK    4  A    between atoms: C_20  and  C_22
REMARK                            x       y       z     vdW  Elec       q    Type
REMARK                         _______ _______ _______ _____ _____    ______ ____
ROOT
ATOM      1  C   UNL     1       2.505  -2.503  -4.381  0.00  0.00    +0.163 C 
ATOM      2  C   UNL     1       1.437  -2.873  -5.386  0.00  0.00    +0.028 C 
ATOM      3  C   UNL     1       1.318  -4.171  -5.735  0.00  0.00    +0.083 C 
ATOM      4  C   UNL     1       0.273  -4.522  -6.729  0.00  0.00    +0.042 A 
ATOM      5  C   UNL     1      -0.141  -5.833  -6.915  0.00  0.00    +0.013 A 
ATOM      6  C   UNL     1      -1.120  -6.114  -7.851  0.00  0.00    +0.001 A 
ATOM      7  C   UNL     1      -1.684  -5.093  -8.596  0.00  0.00    +0.004 A 
ATOM      8  C   UNL     1      -1.276  -3.784  -8.417  0.00  0.00    +0.046 A 
ATOM      9  C   UNL     1      -0.296  -3.489  -7.486  0.00  0.00    +0.131 A 
ATOM     10  O   UNL     1       0.129  -2.214  -7.295  0.00  0.00    -0.479 OA
ATOM     11  C   UNL     1       0.525  -1.837  -5.975  0.00  0.00    +0.241 C 
ATOM     12  N   UNL     1       2.124  -5.121  -5.200  0.00  0.00    -0.216 NA
ATOM     13  C   UNL     1       3.072  -4.876  -4.323  0.00  0.00    +0.209 C 
ATOM     14  N   UNL     1       3.319  -3.616  -3.871  0.00  0.00    -0.182 N 
ATOM     15  N   UNL     1       4.374  -3.694  -2.960  0.00  0.00    -0.169 NA
ATOM     16  C   UNL     1       4.740  -4.932  -2.864  0.00  0.00    +0.208 C 
ATOM     17  N   UNL     1       3.967  -5.697  -3.688  0.00  0.00    -0.275 N 
ATOM     18  H   UNL     1       4.036  -6.658  -3.801  0.00  0.00    +0.156 HD
ENDROOT
BRANCH   1  22
ATOM     19  C   UNL     1       0.606  -0.607  -1.056  0.00  0.00    +0.120 A 
ATOM     20  C   UNL     1       1.173   0.161  -2.062  0.00  0.00    +0.046 A 
ATOM     21  C   UNL     1       1.786  -0.455  -3.136  0.00  0.00    +0.009 A 
ATOM     22  C   UNL     1       1.835  -1.835  -3.209  0.00  0.00    -0.021 A 
ATOM     23  C   UNL     1       1.270  -2.602  -2.207  0.00  0.00    +0.009 A 
ATOM     24  C   UNL     1       0.661  -1.992  -1.128  0.00  0.00    +0.046 A 
BRANCH  19  26
ATOM     25  C   UNL     1      -0.017   1.425   0.010  0.00  0.00    +0.277 C 
ATOM     26  O   UNL     1       0.002  -0.004   0.002  0.00  0.00    -0.495 OA
ENDBRANCH  19  26
ENDBRANCH   1  22
BRANCH  11  27
ATOM     27  C   UNL     1      -0.700  -1.701  -5.108  0.00  0.00    +0.034 A 
ATOM     28  C   UNL     1      -0.986  -0.757  -4.177  0.00  0.00    +0.015 A 
ATOM     29  C   UNL     1      -2.186  -0.831  -3.495  0.00  0.00    +0.008 A 
ATOM     30  C   UNL     1      -3.041  -1.845  -3.776  0.00  0.00    +0.045 A 
ATOM     31  S   UNL     1      -2.154  -2.735  -5.044  0.00  0.00    -0.098 S 
ENDBRANCH  11  27
TORSDOF 3
