REMARK  Name = ZINC02451638
REMARK  6 active torsions:
REMARK  status: ('A' for Active; 'I' for Inactive)
REMARK    1  A    between atoms: C_3  and  C_8
REMARK    2  A    between atoms: N_9  and  N_10
REMARK    3  A    between atoms: C_11  and  C_13
REMARK    4  A    between atoms: C_14  and  C_24
REMARK    5  A    between atoms: C_24  and  S_25
REMARK    6  A    between atoms: S_25  and  C_26
REMARK                            x       y       z     vdW  Elec       q    Type
REMARK                         _______ _______ _______ _____ _____    ______ ____
ROOT
ATOM      1  C   UNL     1       8.434   2.331  -0.067  0.00  0.00    +0.173 A 
ATOM      2  C   UNL     1       9.686   1.785  -0.088  0.00  0.00    +0.089 A 
ATOM      3  N   UNL     1      10.561   2.815  -0.090  0.00  0.00    -0.191 N 
ATOM      4  N   UNL     1       9.800   3.992  -0.070  0.00  0.00    -0.058 NA
ATOM      5  N   UNL     1       8.553   3.670  -0.062  0.00  0.00    -0.124 NA
ATOM      6  C   UNL     1      11.957   2.724  -0.107  0.00  0.00    +0.240 A 
ATOM      7  C   UNL     1      12.891   3.854  -0.103  0.00  0.00    +0.206 A 
ATOM      8  N   UNL     1      14.107   3.381  -0.123  0.00  0.00    -0.032 NA
ATOM      9  O   UNL     1      14.023   1.967  -0.141  0.00  0.00    -0.239 OA
ATOM     10  N   UNL     1      12.649   1.620  -0.125  0.00  0.00    -0.027 NA
ATOM     11  N   UNL     1      12.540   5.199  -0.082  0.00  0.00    -0.337 N 
ATOM     12  H   UNL     1      11.605   5.456  -0.069  0.00  0.00    +0.144 HD
ATOM     13  H   UNL     1      13.231   5.880  -0.081  0.00  0.00    +0.144 HD
ENDROOT
BRANCH   1  15
ATOM     14  N   UNL     1       5.991   2.239  -0.044  0.00  0.00    -0.202 N 
ATOM     15  C   UNL     1       7.165   1.579  -0.059  0.00  0.00    +0.285 C 
ATOM     16  O   UNL     1       7.180   0.362  -0.065  0.00  0.00    -0.267 OA
ATOM     17  H   UNL     1       5.979   3.209  -0.039  0.00  0.00    +0.178 HD
BRANCH  14  19
ATOM     18  C   UNL     1       3.654   2.160  -0.022  0.00  0.00    +0.138 C 
ATOM     19  N   UNL     1       4.786   1.524  -0.036  0.00  0.00    -0.187 NA
BRANCH  18  22
ATOM     20  C   UNL     1      -0.017   1.379   0.010  0.00  0.00    +0.002 A 
ATOM     21  C   UNL     1       1.166   2.089   0.002  0.00  0.00    +0.009 A 
ATOM     22  C   UNL     1       2.386   1.408  -0.013  0.00  0.00    -0.004 A 
ATOM     23  C   UNL     1       2.398   0.011  -0.021  0.00  0.00    +0.029 A 
ATOM     24  C   UNL     1       1.207  -0.687  -0.013  0.00  0.00    +0.042 A 
ATOM     25  C   UNL     1       0.002  -0.004   0.002  0.00  0.00    +0.020 A 
ATOM     26 CL   UNL     1       1.220  -2.422  -0.023  0.00  0.00    -0.084 Cl
ENDBRANCH  18  22
ENDBRANCH  14  19
ENDBRANCH   1  15
BRANCH   2  27
ATOM     27  C   UNL     1      10.026   0.317  -0.105  0.00  0.00    +0.132 C 
BRANCH  27  28
ATOM     28  S   UNL     1      10.183  -0.288   1.599  0.00  0.00    -0.119 S 
BRANCH  28  29
ATOM     29  C   UNL     1      10.577  -1.995   1.411  0.00  0.00    +0.008 A 
ATOM     30  C   UNL     1      10.697  -2.546   0.141  0.00  0.00    +0.016 A 
ATOM     31  C   UNL     1      11.006  -3.884  -0.003  0.00  0.00    +0.021 A 
ATOM     32  C   UNL     1      11.195  -4.676   1.116  0.00  0.00    +0.041 A 
ATOM     33  C   UNL     1      11.075  -4.130   2.382  0.00  0.00    +0.021 A 
ATOM     34  C   UNL     1      10.773  -2.792   2.532  0.00  0.00    +0.016 A 
ATOM     35 CL   UNL     1      11.582  -6.358   0.931  0.00  0.00    -0.084 Cl
ENDBRANCH  28  29
ENDBRANCH  27  28
ENDBRANCH   2  27
TORSDOF 6
