REMARK  Name = ZINC38713003
REMARK  11 active torsions:
REMARK  status: ('A' for Active; 'I' for Inactive)
REMARK    1  A    between atoms: C_1  and  C_2
REMARK    2  A    between atoms: C_2  and  N_3
REMARK    3  A    between atoms: N_3  and  C_4
REMARK    4  A    between atoms: N_3  and  C_6
REMARK    5  A    between atoms: C_4  and  C_5
REMARK    6  A    between atoms: C_6  and  C_7
REMARK    7  A    between atoms: C_7  and  N_8
REMARK    8  A    between atoms: C_9  and  C_28
REMARK    9  A    between atoms: C_31  and  C_34
REMARK   10  A    between atoms: C_34  and  O_36
REMARK   11  A    between atoms: O_36  and  C_37
REMARK                            x       y       z     vdW  Elec       q    Type
REMARK                         _______ _______ _______ _____ _____    ______ ____
ROOT
ATOM      1  N   UNL     1      -1.382  -3.581  -1.823  0.00  0.00    -0.285 N 
ATOM      2  C   UNL     1      -1.457  -4.251  -3.131  0.00  0.00    +0.144 C 
ATOM      3  C   UNL     1      -1.704  -5.694  -2.836  0.00  0.00    +0.072 A 
ATOM      4  C   UNL     1      -1.882  -6.847  -3.722  0.00  0.00    +0.199 A 
ATOM      5  O   UNL     1      -1.671  -6.805  -4.922  0.00  0.00    -0.287 OA
ATOM      6  C   UNL     1      -2.344  -8.071  -3.022  0.00  0.00    +0.065 A 
ATOM      7  C   UNL     1      -2.756  -9.192  -3.764  0.00  0.00    +0.016 A 
ATOM      8  C   UNL     1      -3.187 -10.315  -3.141  0.00  0.00    +0.009 A 
ATOM      9  C   UNL     1      -3.227 -10.371  -1.731  0.00  0.00    -0.014 A 
ATOM     10  C   UNL     1      -3.677 -11.526  -1.071  0.00  0.00    +0.008 A 
ATOM     11  C   UNL     1      -3.704 -11.558   0.291  0.00  0.00    +0.001 A 
ATOM     12  C   UNL     1      -3.293 -10.460   1.042  0.00  0.00    +0.001 A 
ATOM     13  C   UNL     1      -2.852  -9.323   0.433  0.00  0.00    +0.012 A 
ATOM     14  C   UNL     1      -2.811  -9.256  -0.967  0.00  0.00    +0.025 A 
ATOM     15  C   UNL     1      -2.361  -8.085  -1.625  0.00  0.00    +0.147 A 
ATOM     16  O   UNL     1      -1.964  -7.029  -0.884  0.00  0.00    -0.449 OA
ATOM     17  C   UNL     1      -1.759  -5.837  -1.477  0.00  0.00    +0.199 A 
ATOM     18  C   UNL     1      -1.554  -4.514  -0.864  0.00  0.00    +0.283 C 
ATOM     19  O   UNL     1      -1.544  -4.295   0.331  0.00  0.00    -0.267 OA
ENDROOT
BRANCH   2  20
ATOM     20  C   UNL     1      -0.157  -4.086  -3.875  0.00  0.00    -0.022 A 
ATOM     21  C   UNL     1       1.043  -4.184  -3.194  0.00  0.00    +0.006 A 
ATOM     22  C   UNL     1       2.237  -4.034  -3.869  0.00  0.00    +0.015 A 
ATOM     23  C   UNL     1       2.232  -3.783  -5.242  0.00  0.00    +0.059 A 
ATOM     24  C   UNL     1       1.017  -3.686  -5.923  0.00  0.00    +0.015 A 
ATOM     25  C   UNL     1      -0.170  -3.843  -5.237  0.00  0.00    +0.006 A 
BRANCH  23  26
ATOM     26  C   UNL     1       3.506  -3.621  -5.972  0.00  0.00    +0.339 C 
ATOM     27  O   UNL     1       4.562  -3.706  -5.377  0.00  0.00    -0.245 OA
BRANCH  26  28
ATOM     28  O   UNL     1       3.498  -3.379  -7.297  0.00  0.00    -0.464 OA
ATOM     29  C   UNL     1       4.767  -3.233  -7.938  0.00  0.00    +0.280 C 
ENDBRANCH  26  28
ENDBRANCH  23  26
ENDBRANCH   2  20
BRANCH   1  30
ATOM     30  C   UNL     1      -1.155  -2.151  -1.600  0.00  0.00    +0.090 C 
BRANCH  30  31
ATOM     31  C   UNL     1       0.348  -1.884  -1.492  0.00  0.00    -0.060 C 
BRANCH  31  32
ATOM     32  N   UNL     1       0.576  -0.450  -1.269  0.00  0.00    +0.380 N 
ATOM     33  H   UNL     1       0.125   0.080  -1.999  0.00  0.00    -0.082 HD
BRANCH  32  35
ATOM     34  C   UNL     1       0.130   1.454   0.205  0.00  0.00    -0.017 C 
ATOM     35  C   UNL     1       0.018  -0.063   0.033  0.00  0.00    -0.082 C 
ENDBRANCH  32  35
BRANCH  32  36
ATOM     36  C   UNL     1       2.019  -0.176  -1.285  0.00  0.00    -0.082 C 
ATOM     37  C   UNL     1       2.573  -0.440  -2.687  0.00  0.00    -0.017 C 
ENDBRANCH  32  36
ENDBRANCH  31  32
ENDBRANCH  30  31
ENDBRANCH   1  30
TORSDOF 8
