REMARK  Name = ZINC14268502
REMARK  5 active torsions:
REMARK  status: ('A' for Active; 'I' for Inactive)
REMARK    1  A    between atoms: C_7  and  C_11
REMARK    2  A    between atoms: C_11  and  C_12
REMARK    3  A    between atoms: C_12  and  N_13
REMARK    4  A    between atoms: C_14  and  C_16
REMARK    5  A    between atoms: N_19  and  C_21
REMARK                            x       y       z     vdW  Elec       q    Type
REMARK                         _______ _______ _______ _____ _____    ______ ____
ROOT
ATOM      1  N   UNL     1      -1.535   4.857  -4.343  0.00  0.00    -0.310 N 
ATOM      2  C   UNL     1      -1.364   3.813  -3.509  0.00  0.00    +0.264 C 
ATOM      3  O   UNL     1      -1.304   2.683  -3.953  0.00  0.00    -0.268 OA
ATOM      4  H   UNL     1      -1.583   5.759  -3.988  0.00  0.00    +0.149 HD
ENDROOT
BRANCH   2   5
ATOM      5  C   UNL     1      -1.249   4.041  -2.054  0.00  0.00    +0.151 A 
ATOM      6  C   UNL     1      -1.069   3.060  -1.064  0.00  0.00    +0.006 A 
ATOM      7  C   UNL     1      -1.021   3.726   0.116  0.00  0.00    +0.049 A 
ATOM      8  N   UNL     1      -1.163   5.040  -0.162  0.00  0.00    -0.236 N 
ATOM      9  N   UNL     1      -1.296   5.208  -1.433  0.00  0.00    -0.161 NA
ATOM     10  C   UNL     1      -0.842   3.055   1.453  0.00  0.00    +0.056 C 
ATOM     11  C   UNL     1      -1.147   1.560   1.288  0.00  0.00    +0.006 C 
ATOM     12  C   UNL     1      -0.364   1.005   0.095  0.00  0.00    +0.005 C 
ATOM     13  C   UNL     1      -0.947   1.568  -1.208  0.00  0.00    +0.039 C 
BRANCH   8  14
ATOM     14  C   UNL     1      -1.165   6.069   0.790  0.00  0.00    +0.066 A 
ATOM     15  C   UNL     1      -2.074   7.114   0.682  0.00  0.00    +0.030 A 
ATOM     16  C   UNL     1      -2.078   8.123   1.624  0.00  0.00    +0.040 A 
ATOM     17  C   UNL     1      -1.170   8.101   2.670  0.00  0.00    +0.124 A 
ATOM     18  C   UNL     1      -0.259   7.063   2.775  0.00  0.00    +0.040 A 
ATOM     19  C   UNL     1      -0.255   6.048   1.838  0.00  0.00    +0.030 A 
ATOM     20  F   UNL     1      -1.172   9.092   3.587  0.00  0.00    -0.205 F 
ENDBRANCH   8  14
ENDBRANCH   2   5
BRANCH   1  21
ATOM     21  C   UNL     1      -1.649   4.631  -5.786  0.00  0.00    +0.109 C 
BRANCH  21  22
ATOM     22  C   UNL     1      -1.836   5.971  -6.500  0.00  0.00    +0.056 C 
BRANCH  22  29
ATOM     23  C   UNL     1      -5.432   4.880  -9.300  0.00  0.00    +0.001 A 
ATOM     24  C   UNL     1      -5.064   4.763 -10.634  0.00  0.00    +0.002 A 
ATOM     25  C   UNL     1      -3.757   4.961 -11.021  0.00  0.00    +0.026 A 
ATOM     26  C   UNL     1      -2.795   5.281 -10.068  0.00  0.00    +0.047 A 
ATOM     27  C   UNL     1      -3.174   5.399  -8.719  0.00  0.00    +0.003 A 
ATOM     28  C   UNL     1      -4.504   5.194  -8.348  0.00  0.00    +0.010 A 
ATOM     29  C   UNL     1      -1.953   5.739  -7.984  0.00  0.00    -0.021 A 
ATOM     30  C   UNL     1      -0.960   5.809  -8.884  0.00  0.00    +0.087 A 
ATOM     31  N   UNL     1      -1.443   5.534 -10.134  0.00  0.00    -0.360 N 
ATOM     32  H   UNL     1      -0.912   5.522 -10.946  0.00  0.00    +0.165 HD
ENDBRANCH  22  29
ENDBRANCH  21  22
ENDBRANCH   1  21
TORSDOF 5
