REMARK  Name = ZINC03012588
REMARK  10 active torsions:
REMARK  status: ('A' for Active; 'I' for Inactive)
REMARK    1  A    between atoms: C_1  and  O_2
REMARK    2  A    between atoms: O_2  and  C_3
REMARK    3  A    between atoms: C_6  and  C_11
REMARK    4  A    between atoms: C_8  and  O_9
REMARK    5  A    between atoms: O_9  and  C_10
REMARK    6  A    between atoms: C_14  and  C_37
REMARK    7  A    between atoms: C_18  and  C_21
REMARK    8  A    between atoms: N_23  and  C_24
REMARK    9  A    between atoms: C_24  and  C_25
REMARK   10  A    between atoms: C_25  and  C_26
REMARK                            x       y       z     vdW  Elec       q    Type
REMARK                         _______ _______ _______ _____ _____    ______ ____
ROOT
ATOM      1  C   UNL     1       2.507  -2.501  -4.386  0.00  0.00    +0.104 C 
ATOM      2  C   UNL     1       4.027  -2.487  -4.188  0.00  0.00    +0.063 C 
ATOM      3  C   UNL     1       4.515  -1.045  -4.007  0.00  0.00    +0.215 C 
ATOM      4  N   UNL     1       3.955  -0.218  -5.080  0.00  0.00    -0.238 N 
ATOM      5  C   UNL     1       2.877  -0.574  -5.817  0.00  0.00    +0.130 A 
ATOM      6  C   UNL     1       2.640   0.439  -6.728  0.00  0.00    +0.096 A 
ATOM      7  C   UNL     1       3.631   1.429  -6.505  0.00  0.00    +0.149 A 
ATOM      8  N   UNL     1       4.399   1.025  -5.528  0.00  0.00    -0.177 NA
ATOM      9  N   UNL     1       2.187  -1.763  -5.624  0.00  0.00    -0.322 N 
ATOM     10  H   UNL     1       1.536  -2.092  -6.263  0.00  0.00    +0.148 HD
ENDROOT
BRANCH   1  14
ATOM     11  C   UNL     1       0.606  -0.608  -1.056  0.00  0.00    +0.162 A 
ATOM     12  C   UNL     1       1.173   0.159  -2.062  0.00  0.00    +0.050 A 
ATOM     13  C   UNL     1       1.787  -0.456  -3.137  0.00  0.00    +0.009 A 
ATOM     14  C   UNL     1       1.837  -1.836  -3.212  0.00  0.00    -0.024 A 
ATOM     15  C   UNL     1       1.273  -2.606  -2.212  0.00  0.00    +0.054 A 
ATOM     16  C   UNL     1       0.662  -1.996  -1.129  0.00  0.00    +0.162 A 
BRANCH  11  18
ATOM     17  C   UNL     1      -0.017   1.425   0.010  0.00  0.00    +0.277 C 
ATOM     18  O   UNL     1       0.002  -0.004   0.002  0.00  0.00    -0.491 OA
ENDBRANCH  11  18
BRANCH  16  19
ATOM     19  O   UNL     1       0.112  -2.753  -0.142  0.00  0.00    -0.491 OA
ATOM     20  C   UNL     1       0.206  -4.171  -0.283  0.00  0.00    +0.277 C 
ENDBRANCH  16  19
ENDBRANCH   1  14
BRANCH   6  21
ATOM     21  C   UNL     1       1.571   0.482  -7.733  0.00  0.00    +0.249 C 
ATOM     22  O   UNL     1       0.781  -0.440  -7.820  0.00  0.00    -0.270 OA
ATOM     23  N   UNL     1       1.464   1.541  -8.558  0.00  0.00    -0.311 N 
ATOM     24  H   UNL     1       2.093   2.276  -8.489  0.00  0.00    +0.149 HD
BRANCH  23  25
ATOM     25  C   UNL     1       0.396   1.584  -9.561  0.00  0.00    +0.109 C 
BRANCH  25  26
ATOM     26  C   UNL     1       0.499   2.885 -10.360  0.00  0.00    +0.056 C 
BRANCH  26  27
ATOM     27  C   UNL     1      -0.599   2.928 -11.392  0.00  0.00    -0.021 A 
ATOM     28  C   UNL     1      -0.505   2.543 -12.674  0.00  0.00    +0.087 A 
ATOM     29  N   UNL     1      -1.705   2.729 -13.306  0.00  0.00    -0.360 N 
ATOM     30  H   UNL     1      -1.882   2.523 -14.237  0.00  0.00    +0.165 HD
ATOM     31  C   UNL     1      -2.623   3.251 -12.422  0.00  0.00    +0.047 A 
ATOM     32  C   UNL     1      -1.972   3.393 -11.183  0.00  0.00    +0.003 A 
ATOM     33  C   UNL     1      -2.668   3.900 -10.085  0.00  0.00    +0.010 A 
ATOM     34  C   UNL     1      -3.982   4.254 -10.218  0.00  0.00    +0.001 A 
ATOM     35  C   UNL     1      -4.630   4.112 -11.437  0.00  0.00    +0.002 A 
ATOM     36  C   UNL     1      -3.959   3.622 -12.537  0.00  0.00    +0.026 A 
ENDBRANCH  26  27
ENDBRANCH  25  26
ENDBRANCH  23  25
ENDBRANCH   6  21
BRANCH   3  37
ATOM     37  C   UNL     1       6.043  -1.009  -4.071  0.00  0.00    +0.412 C 
ATOM     38  F   UNL     1       6.469  -1.491  -5.313  0.00  0.00    -0.168 F 
ATOM     39  F   UNL     1       6.485   0.308  -3.905  0.00  0.00    -0.168 F 
ATOM     40  F   UNL     1       6.572  -1.810  -3.053  0.00  0.00    -0.168 F 
ENDBRANCH   3  37
TORSDOF 8
