REMARK  Name = ZINC20348568
REMARK  11 active torsions:
REMARK  status: ('A' for Active; 'I' for Inactive)
REMARK    1  A    between atoms: C_1  and  C_2
REMARK    2  A    between atoms: C_3  and  C_29
REMARK    3  A    between atoms: C_4  and  C_24
REMARK    4  A    between atoms: C_6  and  C_22
REMARK    5  A    between atoms: C_7  and  S_9
REMARK    6  A    between atoms: S_9  and  C_10
REMARK    7  A    between atoms: C_10  and  C_11
REMARK    8  A    between atoms: N_13  and  C_14
REMARK    9  A    between atoms: C_29  and  O_31
REMARK   10  A    between atoms: O_31  and  C_32
REMARK   11  A    between atoms: C_32  and  C_33
REMARK                            x       y       z     vdW  Elec       q    Type
REMARK                         _______ _______ _______ _____ _____    ______ ____
ROOT
ATOM      1  C   UNL     1       3.545   1.806   0.747  0.00  0.00    +0.061 C 
ATOM      2  C   UNL     1       2.268   1.247   0.175  0.00  0.00    +0.016 C 
ATOM      3  C   UNL     1       2.175  -0.070  -0.074  0.00  0.00    +0.069 C 
ATOM      4  C   UNL     1       0.930  -0.678  -0.652  0.00  0.00    +0.136 C 
ATOM      5  C   UNL     1      -0.234   0.262  -0.523  0.00  0.00    +0.072 C 
ATOM      6  C   UNL     1      -0.048   1.582  -0.254  0.00  0.00    +0.080 C 
ATOM      7  N   UNL     1       1.222   2.088  -0.083  0.00  0.00    -0.312 N 
ATOM      8  H   UNL     1       1.392   3.173  -0.155  0.00  0.00    +0.152 HD
ENDROOT
BRANCH   4   9
ATOM      9  C   UNL     1       1.159  -0.987  -2.110  0.00  0.00    +0.118 A 
ATOM     10  C   UNL     1       1.109  -2.207  -2.673  0.00  0.00    +0.045 A 
ATOM     11  C   UNL     1       1.384  -2.034  -4.049  0.00  0.00    +0.041 A 
ATOM     12  C   UNL     1       1.585  -0.719  -4.245  0.00  0.00    +0.195 A 
ATOM     13  O   UNL     1       1.442  -0.088  -3.067  0.00  0.00    -0.467 OA
ENDBRANCH   4   9
BRANCH   5  14
ATOM     14  C   UNL     1      -1.565  -0.240  -0.688  0.00  0.00    +0.098 C 
ATOM     15  N   UNL     1      -2.621  -0.638  -0.818  0.00  0.00    -0.191 NA
ENDBRANCH   5  14
BRANCH   3  16
ATOM     16  C   UNL     1       3.279  -0.905   0.216  0.00  0.00    +0.338 C 
ATOM     17  O   UNL     1       4.330  -0.417   0.585  0.00  0.00    -0.245 OA
BRANCH  16  18
ATOM     18  O   UNL     1       3.165  -2.243   0.083  0.00  0.00    -0.457 OA
BRANCH  18  19
ATOM     19  C   UNL     1       4.320  -3.026   0.393  0.00  0.00    +0.259 C 
BRANCH  19  20
ATOM     20  C   UNL     1       4.007  -4.486   0.189  0.00  0.00    +0.006 C 
ATOM     21  C   UNL     1       4.860  -5.256  -0.440  0.00  0.00    +0.007 C 
ENDBRANCH  19  20
ENDBRANCH  18  19
ENDBRANCH  16  18
ENDBRANCH   3  16
BRANCH   6  22
ATOM     22  S   UNL     1      -1.441   2.654  -0.129  0.00  0.00    -0.100 S 
BRANCH  22  23
ATOM     23  C   UNL     1      -0.603   4.218   0.228  0.00  0.00    +0.171 C 
BRANCH  23  24
ATOM     24  C   UNL     1      -1.627   5.314   0.380  0.00  0.00    +0.227 C 
ATOM     25  O   UNL     1      -2.807   5.062   0.259  0.00  0.00    -0.275 OA
ATOM     26  N   UNL     1      -1.231   6.573   0.650  0.00  0.00    -0.285 N 
ATOM     27  H   UNL     1      -0.159   6.819   0.677  0.00  0.00    +0.155 HD
BRANCH  26  28
ATOM     28  C   UNL     1      -2.184   7.568   0.898  0.00  0.00    +0.035 A 
ATOM     29  C   UNL     1      -3.376   7.247   1.533  0.00  0.00    +0.025 A 
ATOM     30  C   UNL     1      -4.315   8.230   1.776  0.00  0.00    +0.023 A 
ATOM     31  C   UNL     1      -4.068   9.535   1.389  0.00  0.00    +0.059 A 
ATOM     32  C   UNL     1      -2.880   9.859   0.756  0.00  0.00    +0.061 A 
ATOM     33  C   UNL     1      -1.935   8.879   0.514  0.00  0.00    +0.044 A 
ATOM     34 CL   UNL     1      -2.574  11.498   0.272  0.00  0.00    -0.082 Cl
ATOM     35 CL   UNL     1      -5.251  10.769   1.696  0.00  0.00    -0.082 Cl
ENDBRANCH  26  28
ENDBRANCH  23  24
ENDBRANCH  22  23
ENDBRANCH   6  22
TORSDOF 10
