REMARK  Name = ZINC39686075
REMARK  8 active torsions:
REMARK  status: ('A' for Active; 'I' for Inactive)
REMARK    1  A    between atoms: C_1  and  C_2
REMARK    2  A    between atoms: C_2  and  C_3
REMARK    3  A    between atoms: C_2  and  C_4
REMARK    4  A    between atoms: C_9  and  N_12
REMARK    5  A    between atoms: C_13  and  C_15
REMARK    6  A    between atoms: C_26  and  C_28
REMARK    7  A    between atoms: C_32  and  O_33
REMARK    8  A    between atoms: O_33  and  C_34
REMARK                            x       y       z     vdW  Elec       q    Type
REMARK                         _______ _______ _______ _____ _____    ______ ____
ROOT
ATOM      1  C   UNL     1      -2.751  -7.307   3.551  0.00  0.00    +0.100 C 
ATOM      2  C   UNL     1      -3.270  -6.527   4.780  0.00  0.00    +0.121 C 
ATOM      3  N   UNL     1      -4.722  -6.818   4.822  0.00  0.00    -0.296 N 
ATOM      4  C   UNL     1      -4.822  -8.251   4.454  0.00  0.00    +0.115 C 
ATOM      5  C   UNL     1      -3.770  -8.440   3.343  0.00  0.00    -0.004 C 
ATOM      6  C   UNL     1      -3.088  -9.797   3.486  0.00  0.00    -0.010 C 
ATOM      7  C   UNL     1      -4.108 -10.906   3.217  0.00  0.00    -0.082 C 
ATOM      8  N   UNL     1      -4.656 -10.752   1.865  0.00  0.00    +0.379 N 
ATOM      9  C   UNL     1      -5.391  -9.485   1.763  0.00  0.00    -0.082 C 
ATOM     10  C   UNL     1      -4.424  -8.315   1.971  0.00  0.00    -0.010 C 
ATOM     11  C   UNL     1      -5.726  -5.971   5.126  0.00  0.00    +0.251 C 
ATOM     12  O   UNL     1      -5.492  -4.792   5.313  0.00  0.00    -0.270 OA
ATOM     13  H   UNL     1      -3.902 -10.757   1.195  0.00  0.00    -0.086 HD
ATOM     14  H   UNL     1      -5.282 -11.519   1.667  0.00  0.00    -0.086 HD
ENDROOT
BRANCH  11  15
ATOM     15  C   UNL     1      -7.104  -6.473   5.231  0.00  0.00    +0.087 A 
ATOM     16  C   UNL     1      -7.379  -7.731   5.722  0.00  0.00    +0.063 A 
ATOM     17  S   UNL     1      -9.051  -7.848   5.650  0.00  0.00    -0.081 S 
ATOM     18  C   UNL     1      -9.448  -6.250   4.973  0.00  0.00    +0.120 A 
ATOM     19  C   UNL     1      -8.236  -5.668   4.830  0.00  0.00    +0.158 A 
ATOM     20 CL   UNL     1     -11.011  -5.596   4.596  0.00  0.00    -0.072 Cl
BRANCH  19  21
ATOM     21  O   UNL     1      -8.090  -4.407   4.336  0.00  0.00    -0.492 OA
ATOM     22  C   UNL     1      -7.939  -4.278   2.921  0.00  0.00    +0.277 C 
ENDBRANCH  19  21
ENDBRANCH  11  15
BRANCH   1  24
ATOM     23  N   UNL     1      -1.785  -6.619   1.381  0.00  0.00    -0.312 N 
ATOM     24  C   UNL     1      -2.707  -6.410   2.341  0.00  0.00    +0.218 C 
ATOM     25  O   UNL     1      -3.503  -5.502   2.230  0.00  0.00    -0.275 OA
ATOM     26  H   UNL     1      -1.149  -7.346   1.469  0.00  0.00    +0.149 HD
BRANCH  23  32
ATOM     27  C   UNL     1       0.606  -3.879  -2.601  0.00  0.00    +0.218 C 
ATOM     28  O   UNL     1       1.210  -2.886  -2.253  0.00  0.00    -0.275 OA
ATOM     29  N   UNL     1      -0.425  -4.334  -1.862  0.00  0.00    -0.301 N 
ATOM     30  C   UNL     1      -1.091  -5.598  -2.203  0.00  0.00    +0.109 C 
ATOM     31  C   UNL     1      -1.102  -6.500  -0.965  0.00  0.00    +0.041 C 
ATOM     32  C   UNL     1      -1.743  -5.748   0.203  0.00  0.00    +0.076 C 
ATOM     33  C   UNL     1      -0.917  -4.499   0.523  0.00  0.00    +0.041 C 
ATOM     34  C   UNL     1      -0.901  -3.578  -0.695  0.00  0.00    +0.109 C 
BRANCH  27  36
ATOM     35  C   UNL     1       1.710  -3.630  -4.807  0.00  0.00    +0.017 C 
ATOM     36  C   UNL     1       1.008  -4.604  -3.859  0.00  0.00    +0.069 C 
ATOM     37  C   UNL     1       1.961  -5.748  -3.506  0.00  0.00    +0.017 C 
ENDBRANCH  27  36
ENDBRANCH  23  32
ENDBRANCH   1  24
TORSDOF 5
