REMARK  Name = ZINC39676099
REMARK  6 active torsions:
REMARK  status: ('A' for Active; 'I' for Inactive)
REMARK    1  A    between atoms: C_4  and  C_7
REMARK    2  A    between atoms: C_7  and  N_8
REMARK    3  A    between atoms: C_10  and  C_13
REMARK    4  A    between atoms: C_13  and  N_14
REMARK    5  A    between atoms: C_15  and  C_17
REMARK    6  A    between atoms: C_28  and  C_30
REMARK                            x       y       z     vdW  Elec       q    Type
REMARK                         _______ _______ _______ _____ _____    ______ ____
ROOT
ATOM      1  C   UNL     1       8.824  -4.257   4.774  0.00  0.00    +0.100 C 
ATOM      2  C   UNL     1       9.535  -2.918   5.076  0.00  0.00    +0.121 C 
ATOM      3  N   UNL     1       9.850  -2.980   6.523  0.00  0.00    -0.297 N 
ATOM      4  C   UNL     1      10.265  -4.385   6.750  0.00  0.00    +0.115 C 
ATOM      5  C   UNL     1       9.309  -5.218   5.873  0.00  0.00    -0.004 C 
ATOM      6  C   UNL     1       8.127  -5.710   6.703  0.00  0.00    -0.010 C 
ATOM      7  C   UNL     1       8.627  -6.708   7.752  0.00  0.00    -0.082 C 
ATOM      8  N   UNL     1       9.284  -7.836   7.082  0.00  0.00    +0.379 N 
ATOM      9  C   UNL     1      10.474  -7.367   6.361  0.00  0.00    -0.082 C 
ATOM     10  C   UNL     1      10.052  -6.397   5.253  0.00  0.00    -0.010 C 
ATOM     11  C   UNL     1       9.777  -1.984   7.428  0.00  0.00    +0.260 C 
ATOM     12  O   UNL     1      10.072  -2.193   8.585  0.00  0.00    -0.271 OA
ATOM     13  H   UNL     1       9.559  -8.521   7.771  0.00  0.00    -0.086 HD
ATOM     14  H   UNL     1       8.642  -8.259   6.429  0.00  0.00    -0.086 HD
ENDROOT
BRANCH  11  15
ATOM     15  C   UNL     1       9.329  -0.610   7.001  0.00  0.00    +0.296 C 
ATOM     16  C   UNL     1      10.358  -0.007   6.035  0.00  0.00    +0.283 C 
ATOM     17  O   UNL     1       9.909   1.301   5.662  0.00  0.00    -0.484 OA
ATOM     18  C   UNL     1       9.474   2.108   6.667  0.00  0.00    +0.162 A 
ATOM     19  C   UNL     1       9.372   3.474   6.447  0.00  0.00    +0.049 A 
ATOM     20  C   UNL     1       8.929   4.306   7.457  0.00  0.00    +0.004 A 
ATOM     21  C   UNL     1       8.586   3.781   8.689  0.00  0.00    +0.004 A 
ATOM     22  C   UNL     1       8.687   2.421   8.915  0.00  0.00    +0.049 A 
ATOM     23  C   UNL     1       9.132   1.580   7.906  0.00  0.00    +0.163 A 
ATOM     24  O   UNL     1       9.233   0.244   8.146  0.00  0.00    -0.473 OA
ENDBRANCH  11  15
BRANCH   1  26
ATOM     25  N   UNL     1       6.523  -4.876   4.112  0.00  0.00    -0.311 N 
ATOM     26  C   UNL     1       7.329  -4.086   4.849  0.00  0.00    +0.218 C 
ATOM     27  O   UNL     1       6.851  -3.237   5.572  0.00  0.00    -0.275 OA
ATOM     28  H   UNL     1       6.905  -5.554   3.534  0.00  0.00    +0.149 HD
BRANCH  25  29
ATOM     29  C   UNL     1       5.069  -4.709   4.185  0.00  0.00    +0.142 C 
BRANCH  29  32
ATOM     30  N   UNL     1       3.459  -7.525   2.518  0.00  0.00    -0.267 N 
ATOM     31  C   UNL     1       4.010  -6.957   3.611  0.00  0.00    +0.113 A 
ATOM     32  C   UNL     1       4.403  -5.707   3.272  0.00  0.00    +0.007 A 
ATOM     33  C   UNL     1       4.082  -5.505   1.926  0.00  0.00    +0.139 A 
ATOM     34  N   UNL     1       3.521  -6.596   1.472  0.00  0.00    -0.179 NA
BRANCH  30  35
ATOM     35  C   UNL     1       2.900  -8.877   2.438  0.00  0.00    +0.178 C 
BRANCH  35  39
ATOM     36  C   UNL     1      -1.118  -8.677   1.001  0.00  0.00    +0.000 A 
ATOM     37  C   UNL     1      -0.070  -8.806   0.108  0.00  0.00    +0.000 A 
ATOM     38  C   UNL     1       1.230  -8.871   0.574  0.00  0.00    +0.005 A 
ATOM     39  C   UNL     1       1.483  -8.805   1.931  0.00  0.00    -0.026 A 
ATOM     40  C   UNL     1       0.435  -8.675   2.824  0.00  0.00    +0.005 A 
ATOM     41  C   UNL     1      -0.865  -8.612   2.358  0.00  0.00    +0.000 A 
ENDBRANCH  35  39
ENDBRANCH  30  35
ENDBRANCH  29  32
ENDBRANCH  25  29
ENDBRANCH   1  26
TORSDOF 6
