REMARK  Name = ZINC16362975
REMARK  8 active torsions:
REMARK  status: ('A' for Active; 'I' for Inactive)
REMARK    1  A    between atoms: C_1  and  C_2
REMARK    2  A    between atoms: C_7  and  N_8
REMARK    3  A    between atoms: N_8  and  S_9
REMARK    4  A    between atoms: S_9  and  C_12
REMARK    5  A    between atoms: C_15  and  N_18
REMARK    6  A    between atoms: N_18  and  C_19
REMARK    7  A    between atoms: C_21  and  C_30
REMARK    8  A    between atoms: C_22  and  C_28
REMARK                            x       y       z     vdW  Elec       q    Type
REMARK                         _______ _______ _______ _____ _____    ______ ____
ROOT
ATOM      1  C   UNL     1       2.491  -0.611   3.409  0.00  0.00    +0.109 A 
ATOM      2  C   UNL     1       3.099  -1.667   2.755  0.00  0.00    +0.030 A 
ATOM      3  C   UNL     1       4.460  -1.645   2.521  0.00  0.00    +0.025 A 
ATOM      4  C   UNL     1       5.218  -0.561   2.944  0.00  0.00    +0.031 A 
ATOM      5  C   UNL     1       4.604   0.498   3.602  0.00  0.00    +0.025 A 
ATOM      6  C   UNL     1       3.242   0.472   3.827  0.00  0.00    +0.030 A 
ENDROOT
BRANCH   1   7
ATOM      7  S   UNL     1       0.754  -0.643   3.704  0.00  0.00    +0.072 S 
ATOM      8  O   UNL     1       0.515   0.215   4.812  0.00  0.00    -0.150 OA
ATOM      9  O   UNL     1       0.367  -2.010   3.702  0.00  0.00    -0.150 OA
BRANCH   7  10
ATOM     10  N   UNL     1       0.022   0.058   2.395  0.00  0.00    -0.216 N 
ATOM     11  H   UNL     1      -0.524   0.851   2.512  0.00  0.00    +0.174 HD
BRANCH  10  18
ATOM     12  C   UNL     1       0.164   1.831   0.175  0.00  0.00    +0.046 C 
ATOM     13  C   UNL     1       0.266   0.337   0.010  0.00  0.00    -0.028 A 
ATOM     14  C   UNL     1       0.439  -0.210  -1.246  0.00  0.00    +0.005 A 
ATOM     15  C   UNL     1       0.532  -1.581  -1.398  0.00  0.00    +0.000 A 
ATOM     16  C   UNL     1       0.452  -2.409  -0.293  0.00  0.00    +0.002 A 
ATOM     17  C   UNL     1       0.280  -1.869   0.966  0.00  0.00    +0.025 A 
ATOM     18  C   UNL     1       0.191  -0.492   1.123  0.00  0.00    +0.051 A 
ENDBRANCH  10  18
ENDBRANCH   7  10
ENDBRANCH   1   7
BRANCH   4  19
ATOM     19  N   UNL     1       6.596  -0.536   2.710  0.00  0.00    -0.320 N 
ATOM     20  H   UNL     1       7.023  -1.276   2.252  0.00  0.00    +0.152 HD
BRANCH  19  21
ATOM     21  C   UNL     1       7.329   0.515   3.121  0.00  0.00    +0.085 C 
ATOM     22  C   UNL     1       8.679   0.592   2.794  0.00  0.00    +0.055 C 
ATOM     23  C   UNL     1       9.426   1.750   3.104  0.00  0.00    -0.015 C 
ATOM     24  C   UNL     1      10.770   1.789   2.762  0.00  0.00    +0.117 C 
ATOM     25  C   UNL     1      11.379   0.637   2.094  0.00  0.00    +0.261 C 
ATOM     26  O   UNL     1      12.559   0.671   1.794  0.00  0.00    -0.269 OA
ATOM     27  N   UNL     1      10.652  -0.457   1.808  0.00  0.00    -0.248 N 
ATOM     28  C   UNL     1       9.348  -0.534   2.128  0.00  0.00    +0.252 C 
ATOM     29  O   UNL     1       8.718  -1.540   1.860  0.00  0.00    -0.270 OA
ATOM     30  C   UNL     1       8.774   2.922   3.791  0.00  0.00    +0.046 C 
ATOM     31  H   UNL     1      11.078  -1.208   1.366  0.00  0.00    +0.158 HD
BRANCH  24  32
ATOM     32  C   UNL     1      11.556   2.948   3.061  0.00  0.00    +0.105 C 
ATOM     33  N   UNL     1      12.180   3.867   3.297  0.00  0.00    -0.191 NA
ENDBRANCH  24  32
ENDBRANCH  19  21
ENDBRANCH   4  19
TORSDOF 6
