REMARK  Name = ZINC65265780
REMARK  7 active torsions:
REMARK  status: ('A' for Active; 'I' for Inactive)
REMARK    1  A    between atoms: C_1  and  O_2
REMARK    2  A    between atoms: O_2  and  C_3
REMARK    3  A    between atoms: C_3  and  C_4
REMARK    4  A    between atoms: C_4  and  N_5
REMARK    5  A    between atoms: C_21  and  C_23
REMARK    6  A    between atoms: C_28  and  O_29
REMARK    7  A    between atoms: O_29  and  C_30
REMARK                            x       y       z     vdW  Elec       q    Type
REMARK                         _______ _______ _______ _____ _____    ______ ____
ROOT
ATOM      1  N   UNL     1      -0.532  -1.989   1.391  0.00  0.00    -0.373 N 
ATOM      2  C   UNL     1      -0.528  -3.270   1.569  0.00  0.00    +0.095 C 
ATOM      3  N   UNL     1      -1.075  -4.130   0.648  0.00  0.00    -0.303 N 
ATOM      4  C   UNL     1      -0.265  -4.639  -0.362  0.00  0.00    +0.037 A 
ATOM      5  C   UNL     1      -0.721  -4.664  -1.672  0.00  0.00    +0.023 A 
ATOM      6  C   UNL     1       0.074  -5.181  -2.674  0.00  0.00    +0.002 A 
ATOM      7  C   UNL     1       1.327  -5.675  -2.360  0.00  0.00    +0.000 A 
ATOM      8  C   UNL     1       1.783  -5.645  -1.060  0.00  0.00    +0.007 A 
ATOM      9  C   UNL     1       0.998  -5.119  -0.038  0.00  0.00    -0.012 A 
ATOM     10  C   UNL     1       1.602  -5.099   1.342  0.00  0.00    +0.119 C 
ATOM     11  N   UNL     1       0.594  -5.221   2.404  0.00  0.00    -0.299 NA
ATOM     12  C   UNL     1       0.077  -3.891   2.782  0.00  0.00    +0.091 C 
ATOM     13  C   UNL     1      -0.937  -4.018   3.932  0.00  0.00    +0.050 C 
ATOM     14  C   UNL     1      -0.033  -4.039   5.185  0.00  0.00    +0.110 C 
ATOM     15  N   UNL     1       1.255  -3.438   4.806  0.00  0.00    -0.295 N 
ATOM     16  C   UNL     1       1.189  -3.024   3.389  0.00  0.00    +0.137 C 
ATOM     17  C   UNL     1       2.321  -3.289   5.617  0.00  0.00    +0.250 C 
ATOM     18  O   UNL     1       3.370  -2.864   5.172  0.00  0.00    -0.270 OA
ATOM     19  H   UNL     1      -0.134  -1.405   2.057  0.00  0.00    +0.161 HD
ATOM     20  H   UNL     1      -0.154  -5.837   2.124  0.00  0.00    +0.123 HD
ATOM     21  H   UNL     1      -2.011  -4.378   0.701  0.00  0.00    +0.153 HD
ENDROOT
BRANCH  17  22
ATOM     22  C   UNL     1       2.215  -3.640   7.046  0.00  0.00    +0.080 A 
ATOM     23  C   UNL     1       1.097  -3.247   7.785  0.00  0.00    +0.036 A 
ATOM     24  C   UNL     1       1.004  -3.579   9.120  0.00  0.00    +0.042 A 
ATOM     25  C   UNL     1       2.016  -4.302   9.733  0.00  0.00    +0.023 A 
ATOM     26  C   UNL     1       3.126  -4.696   9.014  0.00  0.00    +0.048 A 
ATOM     27  C   UNL     1       3.233  -4.375   7.668  0.00  0.00    +0.132 A 
ATOM     28 CL   UNL     1      -0.386  -3.090  10.038  0.00  0.00    -0.084 Cl
BRANCH  27  29
ATOM     29  O   UNL     1       4.321  -4.768   6.959  0.00  0.00    -0.494 OA
ATOM     30  C   UNL     1       5.318  -5.514   7.660  0.00  0.00    +0.277 C 
ENDBRANCH  27  29
ENDBRANCH  17  22
BRANCH   1  31
ATOM     31  C   UNL     1      -1.136  -1.419   0.185  0.00  0.00    +0.141 C 
BRANCH  31  32
ATOM     32  C   UNL     1      -1.008   0.105   0.221  0.00  0.00    +0.180 C 
BRANCH  32  34
ATOM     33  C   UNL     1       0.604   1.878   0.188  0.00  0.00    +0.194 C 
ATOM     34  O   UNL     1       0.372   0.469   0.160  0.00  0.00    -0.381 OA
ENDBRANCH  32  34
ENDBRANCH  31  32
ENDBRANCH   1  31
TORSDOF 5
