REMARK  Name = ZINC63271167
REMARK  5 active torsions:
REMARK  status: ('A' for Active; 'I' for Inactive)
REMARK    1  A    between atoms: N_17  and  C_18
REMARK    2  A    between atoms: C_18  and  C_19
REMARK    3  A    between atoms: C_19  and  C_20
REMARK    4  A    between atoms: C_20  and  C_21
REMARK    5  A    between atoms: N_23  and  C_24
REMARK                            x       y       z     vdW  Elec       q    Type
REMARK                         _______ _______ _______ _____ _____    ______ ____
ROOT
ATOM      1  C   UNL     1      -0.044   1.323   0.352  0.00  0.00    +0.001 A 
ATOM      2  C   UNL     1       1.136   2.080   0.349  0.00  0.00    +0.002 A 
ATOM      3  C   UNL     1       2.362   1.516   0.306  0.00  0.00    +0.026 A 
ATOM      4  C   UNL     1       2.504   0.103   0.262  0.00  0.00    +0.043 A 
ATOM      5  N   UNL     1       3.567  -0.666   0.196  0.00  0.00    -0.376 N 
ATOM      6  C   UNL     1       3.136  -2.061   0.253  0.00  0.00    +0.124 C 
ATOM      7  C   UNL     1       3.617  -2.858  -0.965  0.00  0.00    +0.138 C 
ATOM      8  N   UNL     1       2.824  -4.095  -1.037  0.00  0.00    -0.283 N 
ATOM      9  C   UNL     1       1.365  -4.040  -1.176  0.00  0.00    +0.114 C 
ATOM     10  C   UNL     1       0.770  -3.252   0.005  0.00  0.00    +0.052 C 
ATOM     11  C   UNL     1       1.618  -2.015   0.202  0.00  0.00    -0.036 C 
ATOM     12  C   UNL     1       1.271  -0.722   0.258  0.00  0.00    -0.001 A 
ATOM     13  C   UNL     1      -0.022  -0.028   0.310  0.00  0.00    +0.010 A 
ATOM     14  C   UNL     1       3.444  -5.290  -0.974  0.00  0.00    +0.302 C 
ATOM     15  O   UNL     1       4.659  -5.345  -0.961  0.00  0.00    -0.253 OA
ATOM     16  N   UNL     1       2.718  -6.425  -0.927  0.00  0.00    -0.299 N 
ATOM     17  H   UNL     1       1.753  -6.386  -1.012  0.00  0.00    +0.150 HD
ATOM     18  H   UNL     1       4.485  -0.359   0.122  0.00  0.00    +0.160 HD
ENDROOT
BRANCH  16  19
ATOM     19  C   UNL     1       3.387  -7.715  -0.745  0.00  0.00    +0.106 C 
BRANCH  19  20
ATOM     20  C   UNL     1       2.342  -8.833  -0.726  0.00  0.00    +0.028 C 
BRANCH  20  21
ATOM     21  C   UNL     1       3.040 -10.181  -0.536  0.00  0.00    +0.097 C 
BRANCH  21  22
ATOM     22  C   UNL     1       2.011 -11.281  -0.517  0.00  0.00    +0.217 C 
ATOM     23  O   UNL     1       0.835 -11.014  -0.643  0.00  0.00    -0.275 OA
ATOM     24  N   UNL     1       2.397 -12.563  -0.361  0.00  0.00    -0.285 N 
ATOM     25  H   UNL     1       3.329 -12.771  -0.189  0.00  0.00    +0.155 HD
BRANCH  24  26
ATOM     26  C   UNL     1       1.463 -13.585  -0.445  0.00  0.00    +0.033 C 
ATOM     27  C   UNL     1       1.617 -14.586  -1.379  0.00  0.00    +0.029 C 
ATOM     28  C   UNL     1       0.585 -15.531  -1.413  0.00  0.00    -0.016 C 
ATOM     29  C   UNL     1       0.554 -16.842  -1.724  0.00  0.00    +0.025 C 
ATOM     30  C   UNL     1      -0.679 -17.389  -1.320  0.00  0.00    +0.106 C 
ATOM     31  N   UNL     1      -1.490 -16.482  -0.849  0.00  0.00    -0.279 NA
ATOM     32  C   UNL     1      -0.839 -15.189  -1.004  0.00  0.00    +0.158 C 
ATOM     33  C   UNL     1      -0.769 -14.358   0.242  0.00  0.00    +0.006 C 
ATOM     34  C   UNL     1       0.313 -13.605   0.464  0.00  0.00    +0.021 C 
ENDBRANCH  24  26
ENDBRANCH  21  22
ENDBRANCH  20  21
ENDBRANCH  19  20
ENDBRANCH  16  19
TORSDOF 5
