REMARK  Name = ZINC39769477
REMARK  7 active torsions:
REMARK  status: ('A' for Active; 'I' for Inactive)
REMARK    1  A    between atoms: C_4  and  N_7
REMARK    2  A    between atoms: C_8  and  C_30
REMARK    3  A    between atoms: C_12  and  S_14
REMARK    4  A    between atoms: S_14  and  C_15
REMARK    5  A    between atoms: C_15  and  C_16
REMARK    6  A    between atoms: N_18  and  N_19
REMARK    7  A    between atoms: C_20  and  C_21
REMARK                            x       y       z     vdW  Elec       q    Type
REMARK                         _______ _______ _______ _____ _____    ______ ____
ROOT
ATOM      1  N   UNL     1       3.784  -0.539   0.009  0.00  0.00    -0.284 N 
ATOM      2  C   UNL     1       4.132  -1.963   0.155  0.00  0.00    +0.189 C 
ATOM      3  N   UNL     1       5.595  -2.064  -0.049  0.00  0.00    -0.230 NA
ATOM      4  N   UNL     1       5.936  -0.874  -0.845  0.00  0.00    -0.226 NA
ATOM      5  C   UNL     1       5.045   0.172  -0.284  0.00  0.00    +0.218 C 
ATOM      6  H   UNL     1       6.084  -2.061   0.833  0.00  0.00    +0.143 HD
ATOM      7  H   UNL     1       5.740  -1.024  -1.823  0.00  0.00    +0.143 HD
ENDROOT
BRANCH   1  11
ATOM      8  C   UNL     1      -0.009   1.147   0.341  0.00  0.00    +0.000 A 
ATOM      9  C   UNL     1       1.097   1.962   0.178  0.00  0.00    +0.002 A 
ATOM     10  C   UNL     1       2.356   1.406   0.069  0.00  0.00    +0.023 A 
ATOM     11  C   UNL     1       2.512   0.027   0.121  0.00  0.00    +0.033 A 
ATOM     12  C   UNL     1       1.399  -0.789   0.283  0.00  0.00    +0.023 A 
ATOM     13  C   UNL     1       0.143  -0.226   0.393  0.00  0.00    +0.002 A 
ENDBRANCH   1  11
BRANCH   2  14
ATOM     14  C   UNL     1       3.768  -2.445   1.536  0.00  0.00    -0.009 A 
ATOM     15  C   UNL     1       3.124  -1.607   2.433  0.00  0.00    +0.026 A 
ATOM     16  C   UNL     1       2.806  -2.083   3.691  0.00  0.00    +0.111 A 
ATOM     17  N   UNL     1       3.107  -3.319   4.040  0.00  0.00    -0.263 NA
ATOM     18  C   UNL     1       3.719  -4.144   3.212  0.00  0.00    +0.111 A 
ATOM     19  C   UNL     1       4.063  -3.739   1.936  0.00  0.00    +0.026 A 
ENDBRANCH   2  14
BRANCH   5  20
ATOM     20  S   UNL     1       5.757   0.856   1.238  0.00  0.00    -0.112 S 
BRANCH  20  21
ATOM     21  C   UNL     1       6.983   2.056   0.648  0.00  0.00    +0.169 C 
BRANCH  21  22
ATOM     22  C   UNL     1       7.570   2.794   1.824  0.00  0.00    +0.242 C 
ATOM     23  O   UNL     1       7.197   2.535   2.949  0.00  0.00    -0.273 OA
ATOM     24  N   UNL     1       8.508   3.740   1.626  0.00  0.00    -0.206 N 
ATOM     25  H   UNL     1       8.806   3.947   0.726  0.00  0.00    +0.177 HD
BRANCH  24  26
ATOM     26  N   UNL     1       9.054   4.426   2.719  0.00  0.00    -0.188 NA
ATOM     27  C   UNL     1       9.966   5.345   2.526  0.00  0.00    +0.136 C 
BRANCH  27  28
ATOM     28  C   UNL     1      10.512   6.032   3.620  0.00  0.00    +0.000 C 
ATOM     29  C   UNL     1      11.479   7.034   3.588  0.00  0.00    +0.004 A 
ATOM     30  C   UNL     1      12.181   7.649   2.528  0.00  0.00    +0.010 A 
ATOM     31  C   UNL     1      13.088   8.622   2.797  0.00  0.00    +0.001 A 
ATOM     32  C   UNL     1      13.351   9.037   4.106  0.00  0.00    +0.002 A 
ATOM     33  C   UNL     1      12.716   8.491   5.171  0.00  0.00    +0.026 A 
ATOM     34  C   UNL     1      11.752   7.468   4.970  0.00  0.00    +0.043 A 
ATOM     35  N   UNL     1      11.011   6.789   5.820  0.00  0.00    -0.380 N 
ATOM     36  C   UNL     1      10.169   5.843   5.081  0.00  0.00    +0.150 C 
ATOM     37  H   UNL     1      11.019   6.900   6.784  0.00  0.00    +0.160 HD
ENDBRANCH  27  28
ENDBRANCH  24  26
ENDBRANCH  21  22
ENDBRANCH  20  21
ENDBRANCH   5  20
TORSDOF 7
