REMARK  Name = ZINC13033913
REMARK  8 active torsions:
REMARK  status: ('A' for Active; 'I' for Inactive)
REMARK    1  A    between atoms: C_3  and  C_6
REMARK    2  A    between atoms: C_6  and  N_7
REMARK    3  A    between atoms: C_8  and  C_12
REMARK    4  A    between atoms: C_12  and  N_60
REMARK    5  A    between atoms: C_13  and  C_14
REMARK    6  A    between atoms: C_13  and  N_60
REMARK    7  A    between atoms: C_21  and  C_22
REMARK    8  A    between atoms: C_21  and  N_60
REMARK                            x       y       z     vdW  Elec       q    Type
REMARK                         _______ _______ _______ _____ _____    ______ ____
ROOT
ATOM      1  N   UNL     1      -5.254   4.572  -1.799  0.00  0.00    +0.390 N 
ATOM      2  H   UNL     1      -4.463   4.862  -2.386  0.00  0.00    -0.080 HD
ENDROOT
BRANCH   1   3
ATOM      3  C   UNL     1      -6.328   5.582  -1.908  0.00  0.00    +0.001 C 
BRANCH   3   5
ATOM      4  N   UNL     1      -5.149   7.693  -2.719  0.00  0.00    -0.224 N 
ATOM      5  C   UNL     1      -5.722   6.953  -1.752  0.00  0.00    +0.136 A 
ATOM      6  N   UNL     1      -5.656   7.658  -0.649  0.00  0.00    -0.115 NA
ATOM      7  N   UNL     1      -5.066   8.770  -0.922  0.00  0.00    -0.023 NA
ATOM      8  N   UNL     1      -4.761   8.796  -2.173  0.00  0.00    -0.044 NA
BRANCH   4   9
ATOM      9  C   UNL     1      -4.995   7.318  -4.126  0.00  0.00    +0.221 C 
BRANCH   9  12
ATOM     10  C   UNL     1      -7.398   9.233  -6.160  0.00  0.00    +0.041 A 
ATOM     11  C   UNL     1      -6.144   9.104  -5.519  0.00  0.00    +0.046 A 
ATOM     12  C   UNL     1      -6.133   7.895  -4.928  0.00  0.00    +0.126 A 
ATOM     13  O   UNL     1      -7.309   7.294  -5.168  0.00  0.00    -0.466 OA
ATOM     14  C   UNL     1      -8.080   8.100  -5.915  0.00  0.00    +0.195 A 
ENDBRANCH   9  12
ENDBRANCH   4   9
ENDBRANCH   3   5
ENDBRANCH   1   3
BRANCH   1  15
ATOM     15  C   UNL     1      -5.745   3.260  -2.268  0.00  0.00    -0.042 C 
BRANCH  15  16
ATOM     16  C   UNL     1      -6.048   3.351  -3.741  0.00  0.00    -0.064 A 
ATOM     17  C   UNL     1      -7.345   3.572  -4.167  0.00  0.00    +0.004 A 
ATOM     18  C   UNL     1      -7.624   3.661  -5.517  0.00  0.00    +0.038 A 
ATOM     19  C   UNL     1      -6.606   3.518  -6.445  0.00  0.00    +0.123 A 
ATOM     20  C   UNL     1      -5.309   3.292  -6.018  0.00  0.00    +0.038 A 
ATOM     21  C   UNL     1      -5.031   3.208  -4.667  0.00  0.00    +0.004 A 
ATOM     22  F   UNL     1      -6.879   3.601  -7.765  0.00  0.00    -0.205 F 
ENDBRANCH  15  16
ENDBRANCH   1  15
BRANCH   1  23
ATOM     23  C   UNL     1      -4.798   4.470  -0.397  0.00  0.00    -0.036 C 
BRANCH  23  24
ATOM     24  C   UNL     1      -3.564   3.605  -0.349  0.00  0.00    +0.001 A 
ATOM     25  C   UNL     1      -2.335   4.179  -0.383  0.00  0.00    +0.017 A 
ATOM     26  C   UNL     1      -1.157   3.313  -0.340  0.00  0.00    +0.002 A 
ATOM     27  C   UNL     1       0.136   3.847  -0.388  0.00  0.00    +0.059 A 
ATOM     28  C   UNL     1       1.227   3.005  -0.348  0.00  0.00    +0.163 A 
ATOM     29  C   UNL     1       1.046   1.622  -0.257  0.00  0.00    +0.164 A 
ATOM     30  C   UNL     1      -0.229   1.085  -0.208  0.00  0.00    +0.075 A 
ATOM     31  C   UNL     1      -1.339   1.918  -0.255  0.00  0.00    +0.053 A 
ATOM     32  N   UNL     1      -2.617   1.399  -0.213  0.00  0.00    -0.322 N 
ATOM     33  H   UNL     1      -2.741   0.439  -0.151  0.00  0.00    +0.169 HD
ATOM     34  C   UNL     1      -3.692   2.204  -0.259  0.00  0.00    +0.251 A 
ATOM     35  O   UNL     1      -4.806   1.710  -0.221  0.00  0.00    -0.268 OA
ATOM     36  O   UNL     1       2.117   0.785  -0.213  0.00  0.00    -0.485 OA
ATOM     37  C   UNL     1       3.373   1.322  -0.641  0.00  0.00    +0.270 C 
ATOM     38  C   UNL     1       3.557   2.697   0.017  0.00  0.00    +0.270 C 
ATOM     39  O   UNL     1       2.478   3.541  -0.400  0.00  0.00    -0.485 OA
ENDBRANCH  23  24
ENDBRANCH   1  23
TORSDOF 8
