REMARK  Name = ZINC44000987
REMARK  7 active torsions:
REMARK  status: ('A' for Active; 'I' for Inactive)
REMARK    1  A    between atoms: C_1  and  N_2
REMARK    2  A    between atoms: C_6  and  C_9
REMARK    3  A    between atoms: C_14  and  C_17
REMARK    4  A    between atoms: C_17  and  N_18
REMARK    5  A    between atoms: C_19  and  C_21
REMARK    6  A    between atoms: C_22  and  C_23
REMARK    7  A    between atoms: C_26  and  N_29
REMARK                            x       y       z     vdW  Elec       q    Type
REMARK                         _______ _______ _______ _____ _____    ______ ____
ROOT
ATOM      1  C   UNL     1       0.053  -2.840   2.437  0.00  0.00    +0.252 C 
ATOM      2  O   UNL     1      -0.026  -4.053   2.428  0.00  0.00    -0.270 OA
ATOM      3  N   UNL     1       0.151  -2.180   3.608  0.00  0.00    -0.297 N 
ATOM      4  C   UNL     1       0.127  -0.711   3.645  0.00  0.00    +0.108 C 
ATOM      5  C   UNL     1       1.362  -0.216   4.404  0.00  0.00    +0.024 C 
ATOM      6  C   UNL     1       1.407  -0.878   5.783  0.00  0.00    +0.009 C 
ATOM      7  C   UNL     1       1.518  -2.396   5.619  0.00  0.00    +0.024 C 
ATOM      8  C   UNL     1       0.279  -2.916   4.874  0.00  0.00    +0.108 C 
ENDROOT
BRANCH   1  14
ATOM      9  C   UNL     1      -2.409  -1.052  -1.453  0.00  0.00    +0.152 C 
ATOM     10  N   UNL     1      -1.158  -1.229  -0.711  0.00  0.00    -0.318 N 
ATOM     11  C   UNL     1      -0.012  -0.699  -1.201  0.00  0.00    +0.089 A 
ATOM     12  C   UNL     1       1.167  -0.842  -0.544  0.00  0.00    +0.019 A 
ATOM     13  C   UNL     1       1.217  -1.544   0.660  0.00  0.00    +0.020 A 
ATOM     14  C   UNL     1       0.042  -2.092   1.171  0.00  0.00    +0.101 A 
ATOM     15  C   UNL     1      -1.167  -1.912   0.449  0.00  0.00    +0.263 A 
ATOM     16  O   UNL     1      -2.209  -2.377   0.877  0.00  0.00    -0.267 OA
ENDBRANCH   1  14
BRANCH   6  17
ATOM     17  C   UNL     1       2.621  -0.360   6.557  0.00  0.00    +0.108 C 
BRANCH  17  18
ATOM     18  N   UNL     1       2.599  -0.902   7.918  0.00  0.00    -0.312 N 
ATOM     19  C   UNL     1       3.577  -0.579   8.788  0.00  0.00    +0.237 C 
ATOM     20  O   UNL     1       4.478   0.162   8.442  0.00  0.00    -0.271 OA
ATOM     21  H   UNL     1       1.881  -1.492   8.194  0.00  0.00    +0.149 HD
BRANCH  19  22
ATOM     22  C   UNL     1       3.555  -1.120  10.148  0.00  0.00    +0.068 C 
ATOM     23  C   UNL     1       4.534  -0.797  11.018  0.00  0.00    +0.013 C 
BRANCH  23  24
ATOM     24  C   UNL     1       4.512  -1.341  12.386  0.00  0.00    -0.025 A 
ATOM     25  C   UNL     1       3.481  -2.198  12.785  0.00  0.00    +0.010 A 
ATOM     26  C   UNL     1       3.468  -2.704  14.067  0.00  0.00    +0.033 A 
ATOM     27  C   UNL     1       4.471  -2.365  14.959  0.00  0.00    +0.126 A 
ATOM     28  C   UNL     1       5.494  -1.518  14.572  0.00  0.00    +0.033 A 
ATOM     29  C   UNL     1       5.525  -1.008  13.290  0.00  0.00    +0.010 A 
BRANCH  27  30
ATOM     30  N   UNL     1       4.449  -2.912  16.334  0.00  0.00    +0.056 N 
ATOM     31  O   UNL     1       3.556  -3.652  16.676  0.00  0.00    -0.126 OA
ATOM     32  O   UNL     1       5.323  -2.619  17.116  0.00  0.00    -0.126 OA
ENDBRANCH  27  30
ENDBRANCH  23  24
ENDBRANCH  19  22
ENDBRANCH  17  18
ENDBRANCH   6  17
TORSDOF 6
