REMARK  Name = ZINC18270853
REMARK  6 active torsions:
REMARK  status: ('A' for Active; 'I' for Inactive)
REMARK    1  A    between atoms: C_1  and  C_2
REMARK    2  A    between atoms: C_6  and  O_8
REMARK    3  A    between atoms: O_8  and  C_9
REMARK    4  A    between atoms: C_9  and  C_10
REMARK    5  A    between atoms: N_12  and  N_13
REMARK    6  A    between atoms: C_19  and  C_22
REMARK                            x       y       z     vdW  Elec       q    Type
REMARK                         _______ _______ _______ _____ _____    ______ ____
ROOT
ATOM      1  N   UNL     1       0.114  -6.669   5.120  0.00  0.00    -0.174 NA
ATOM      2  C   UNL     1       0.132  -7.969   5.283  0.00  0.00    +0.154 C 
ATOM      3  C   UNL     1       0.142  -8.719   6.561  0.00  0.00    +0.042 A 
ATOM      4  C   UNL     1       0.161 -10.078   6.222  0.00  0.00    +0.044 A 
ATOM      5  C   UNL     1       0.173 -11.027   7.238  0.00  0.00    +0.024 A 
ATOM      6  C   UNL     1       0.167 -10.628   8.560  0.00  0.00    +0.006 A 
ATOM      7  C   UNL     1       0.149  -9.285   8.891  0.00  0.00    -0.036 A 
ATOM      8  C   UNL     1       0.137  -8.326   7.895  0.00  0.00    +0.032 A 
ATOM      9 BR   UNL     1       0.111  -6.490   8.345  0.00  0.00    -0.049 Br
ATOM     10  C   UNL     1       0.143  -8.866  10.339  0.00  0.00    +0.045 C 
ATOM     11  N   UNL     1       0.163 -10.207   4.838  0.00  0.00    -0.280 N 
ATOM     12  C   UNL     1       0.141  -9.008   4.232  0.00  0.00    +0.269 C 
ATOM     13  O   UNL     1       0.132  -8.811   3.031  0.00  0.00    -0.268 OA
ATOM     14  H   UNL     1       0.175 -11.056   4.368  0.00  0.00    +0.155 HD
ENDROOT
BRANCH   1  17
ATOM     15  C   UNL     1       0.083  -4.787   3.662  0.00  0.00    +0.270 C 
ATOM     16  O   UNL     1       0.077  -4.056   4.629  0.00  0.00    -0.270 OA
ATOM     17  N   UNL     1       0.101  -6.125   3.830  0.00  0.00    -0.203 N 
ATOM     18  H   UNL     1       0.105  -6.710   3.056  0.00  0.00    +0.177 HD
BRANCH  15  19
ATOM     19  C   UNL     1       0.069  -4.202   2.274  0.00  0.00    +0.326 C 
BRANCH  19  20
ATOM     20  O   UNL     1       0.050  -2.776   2.358  0.00  0.00    -0.483 OA
BRANCH  20  26
ATOM     21  C   UNL     1      -0.018   1.503   0.010  0.00  0.00    +0.044 C 
ATOM     22  C   UNL     1       0.002  -0.004   0.002  0.00  0.00    -0.047 A 
ATOM     23  C   UNL     1       0.006  -0.688  -1.200  0.00  0.00    +0.003 A 
ATOM     24  C   UNL     1       0.024  -2.071  -1.211  0.00  0.00    +0.004 A 
ATOM     25  C   UNL     1       0.039  -2.772  -0.020  0.00  0.00    +0.045 A 
ATOM     26  C   UNL     1       0.035  -2.088   1.186  0.00  0.00    +0.121 A 
ATOM     27  C   UNL     1       0.023  -0.700   1.195  0.00  0.00    +0.049 A 
ENDBRANCH  20  26
ENDBRANCH  19  20
ENDBRANCH  15  19
ENDBRANCH   1  17
TORSDOF 4
