REMARK  Name = ZINC63403653
REMARK  8 active torsions:
REMARK  status: ('A' for Active; 'I' for Inactive)
REMARK    1  A    between atoms: C_7  and  C_10
REMARK    2  A    between atoms: C_10  and  C_11
REMARK    3  A    between atoms: C_11  and  C_13
REMARK    4  A    between atoms: C_11  and  N_28
REMARK    5  A    between atoms: N_15  and  C_16
REMARK    6  A    between atoms: C_16  and  C_17
REMARK    7  A    between atoms: C_17  and  C_18
REMARK    8  A    between atoms: C_29  and  C_31
REMARK                            x       y       z     vdW  Elec       q    Type
REMARK                         _______ _______ _______ _____ _____    ______ ____
ROOT
ATOM      1  C   UNL     1       0.457  -3.653  -1.462  0.00  0.00    +0.163 C 
ENDROOT
BRANCH   1   2
ATOM      2  C   UNL     1      -0.578  -4.750  -1.471  0.00  0.00    +0.234 C 
ATOM      3  O   UNL     1      -0.231  -5.909  -1.548  0.00  0.00    -0.274 OA
ATOM      4  N   UNL     1      -1.887  -4.441  -1.394  0.00  0.00    -0.314 N 
ATOM      5  H   UNL     1      -2.164  -3.513  -1.333  0.00  0.00    +0.149 HD
BRANCH   4   6
ATOM      6  C   UNL     1      -2.893  -5.507  -1.403  0.00  0.00    +0.107 C 
BRANCH   6   7
ATOM      7  C   UNL     1      -4.290  -4.891  -1.306  0.00  0.00    +0.062 C 
BRANCH   7   8
ATOM      8  C   UNL     1      -5.340  -6.003  -1.316  0.00  0.00    +0.182 C 
ATOM      9  N   UNL     1      -5.301  -6.738  -2.592  0.00  0.00    -0.246 N 
ATOM     10  N   UNL     1      -6.558  -6.565  -3.182  0.00  0.00    -0.170 NA
ATOM     11  C   UNL     1      -7.340  -5.831  -2.438  0.00  0.00    +0.144 C 
ATOM     12  N   UNL     1      -6.694  -5.434  -1.269  0.00  0.00    -0.270 N 
ATOM     13  C   UNL     1      -7.337  -4.657  -0.344  0.00  0.00    +0.078 C 
ATOM     14  C   UNL     1      -8.605  -4.255  -0.533  0.00  0.00    +0.015 C 
ATOM     15  C   UNL     1      -9.319  -4.622  -1.694  0.00  0.00    +0.005 C 
ATOM     16  C   UNL     1      -8.726  -5.392  -2.648  0.00  0.00    +0.045 C 
ATOM     17  H   UNL     1      -4.554  -7.241  -2.951  0.00  0.00    +0.170 HD
ENDBRANCH   7   8
ENDBRANCH   6   7
ENDBRANCH   4   6
ENDBRANCH   1   2
BRANCH   1  18
ATOM     18  N   UNL     1       1.712  -4.162  -2.020  0.00  0.00    -0.299 N 
ATOM     19  C   UNL     1       2.336  -5.203  -1.437  0.00  0.00    +0.251 C 
ATOM     20  O   UNL     1       1.857  -5.722  -0.445  0.00  0.00    -0.270 OA
ATOM     21  H   UNL     1       2.094  -3.748  -2.811  0.00  0.00    +0.150 HD
BRANCH  19  22
ATOM     22  C   UNL     1       3.592  -5.712  -1.996  0.00  0.00    +0.074 A 
ATOM     23  C   UNL     1       4.382  -6.764  -1.557  0.00  0.00    +0.021 A 
ATOM     24  C   UNL     1       5.516  -7.007  -2.294  0.00  0.00    +0.008 A 
ATOM     25  C   UNL     1       5.782  -6.227  -3.370  0.00  0.00    +0.046 A 
ATOM     26  S   UNL     1       4.499  -5.144  -3.421  0.00  0.00    -0.092 S 
ENDBRANCH  19  22
ENDBRANCH   1  18
BRANCH   1  27
ATOM     27  C   UNL     1       0.691  -3.186  -0.024  0.00  0.00    +0.065 C 
BRANCH  27  34
ATOM     28  C   UNL     1      -0.016   1.348   0.009  0.00  0.00    +0.001 A 
ATOM     29  C   UNL     1       1.166   2.101   0.002  0.00  0.00    +0.002 A 
ATOM     30  C   UNL     1       2.391   1.535  -0.013  0.00  0.00    +0.026 A 
ATOM     31  C   UNL     1       2.529   0.120  -0.022  0.00  0.00    +0.043 A 
ATOM     32  N   UNL     1       3.587  -0.654  -0.037  0.00  0.00    -0.380 N 
ATOM     33  C   UNL     1       3.143  -2.053  -0.041  0.00  0.00    +0.144 C 
ATOM     34  C   UNL     1       1.631  -2.008  -0.025  0.00  0.00    -0.039 C 
ATOM     35  C   UNL     1       1.295  -0.698  -0.014  0.00  0.00    -0.001 A 
ATOM     36  C   UNL     1       0.002  -0.004   0.002  0.00  0.00    +0.010 A 
ATOM     37  H   UNL     1       4.509  -0.353  -0.045  0.00  0.00    +0.160 HD
ENDBRANCH  27  34
ENDBRANCH   1  27
TORSDOF 8
