REMARK  Name = ZINC62563915
REMARK  7 active torsions:
REMARK  status: ('A' for Active; 'I' for Inactive)
REMARK    1  A    between atoms: C_1  and  C_2
REMARK    2  A    between atoms: C_2  and  C_3
REMARK    3  A    between atoms: C_2  and  C_4
REMARK    4  A    between atoms: C_2  and  C_5
REMARK    5  A    between atoms: C_7  and  N_24
REMARK    6  A    between atoms: C_12  and  C_18
REMARK    7  A    between atoms: N_16  and  C_17
REMARK                            x       y       z     vdW  Elec       q    Type
REMARK                         _______ _______ _______ _____ _____    ______ ____
ROOT
ATOM      1  C   UNL     1       0.707  -0.490  -1.238  0.00  0.00    +0.003 A 
ATOM      2  C   UNL     1       1.217   0.420  -2.146  0.00  0.00    +0.030 A 
ATOM      3  C   UNL     1       1.868  -0.024  -3.289  0.00  0.00    +0.027 A 
ATOM      4  C   UNL     1       2.010  -1.385  -3.524  0.00  0.00    +0.050 A 
ATOM      5  C   UNL     1       1.500  -2.296  -2.615  0.00  0.00    +0.080 A 
ATOM      6  C   UNL     1       0.850  -1.847  -1.466  0.00  0.00    +0.147 A 
ATOM      7  O   UNL     1       0.355  -2.754  -0.580  0.00  0.00    -0.473 OA
ATOM      8  C   UNL     1      -0.122  -3.988  -1.122  0.00  0.00    +0.289 C 
ATOM      9  C   UNL     1       0.881  -4.529  -2.109  0.00  0.00    +0.265 C 
ATOM     10  O   UNL     1       1.004  -5.726  -2.257  0.00  0.00    -0.271 OA
ATOM     11  N   UNL     1       1.633  -3.675  -2.833  0.00  0.00    -0.268 N 
ATOM     12  C   UNL     1       2.586  -4.183  -3.822  0.00  0.00    +0.138 C 
ENDROOT
BRANCH   8  13
ATOM     13  C   UNL     1      -1.436  -3.753  -1.821  0.00  0.00    +0.002 A 
ATOM     14  C   UNL     1      -1.620  -2.615  -2.584  0.00  0.00    +0.008 A 
ATOM     15  C   UNL     1      -2.825  -2.400  -3.225  0.00  0.00    +0.000 A 
ATOM     16  C   UNL     1      -3.847  -3.324  -3.104  0.00  0.00    +0.000 A 
ATOM     17  C   UNL     1      -3.663  -4.462  -2.342  0.00  0.00    +0.000 A 
ATOM     18  C   UNL     1      -2.456  -4.679  -1.704  0.00  0.00    +0.008 A 
ENDBRANCH   8  13
BRANCH   1  20
ATOM     19  C   UNL     1      -0.019   1.526   0.010  0.00  0.00    +0.015 C 
ATOM     20  C   UNL     1       0.002  -0.004   0.002  0.00  0.00    -0.009 C 
ATOM     21  C   UNL     1       0.742  -0.511   1.242  0.00  0.00    +0.015 C 
ATOM     22  C   UNL     1      -1.433  -0.534   0.013  0.00  0.00    +0.015 C 
ENDBRANCH   1  20
BRANCH   3  23
ATOM     23  N   UNL     1       2.381   0.901  -4.205  0.00  0.00    -0.358 N 
ATOM     24  H   UNL     1       2.282   1.852  -4.042  0.00  0.00    +0.142 HD
ATOM     25  H   UNL     1       2.836   0.591  -5.004  0.00  0.00    +0.142 HD
ENDBRANCH   3  23
TORSDOF 3
