REMARK  Name = ZINC40058005
REMARK  8 active torsions:
REMARK  status: ('A' for Active; 'I' for Inactive)
REMARK    1  A    between atoms: C_1  and  C_2
REMARK    2  A    between atoms: C_4  and  C_39
REMARK    3  A    between atoms: C_13  and  C_26
REMARK    4  A    between atoms: C_21  and  C_23
REMARK    5  A    between atoms: C_23  and  C_24
REMARK    6  A    between atoms: C_23  and  C_25
REMARK    7  A    between atoms: C_30  and  O_32
REMARK    8  A    between atoms: O_32  and  C_33
REMARK                            x       y       z     vdW  Elec       q    Type
REMARK                         _______ _______ _______ _____ _____    ______ ____
ROOT
ATOM      1  C   UNL     1      -0.883   2.159  -0.505  0.00  0.00    +0.044 C 
ATOM      2  C   UNL     1      -0.538   0.693  -0.537  0.00  0.00    -0.047 A 
ATOM      3  C   UNL     1      -0.492   0.026  -1.753  0.00  0.00    +0.007 A 
ATOM      4  C   UNL     1      -0.177  -1.304  -1.798  0.00  0.00    -0.036 A 
ATOM      5  C   UNL     1       0.098  -1.989  -0.615  0.00  0.00    +0.067 A 
ATOM      6  C   UNL     1       0.049  -1.326   0.623  0.00  0.00    +0.140 A 
ATOM      7  C   UNL     1      -0.266   0.033   0.640  0.00  0.00    +0.050 A 
ATOM      8  O   UNL     1       0.296  -1.958   1.792  0.00  0.00    -0.450 OA
ATOM      9  C   UNL     1       0.828  -3.196   1.781  0.00  0.00    +0.199 A 
ATOM     10  C   UNL     1       0.922  -3.947   0.643  0.00  0.00    +0.072 A 
ATOM     11  C   UNL     1       0.449  -3.431  -0.645  0.00  0.00    +0.199 A 
ATOM     12  O   UNL     1       0.352  -4.120  -1.645  0.00  0.00    -0.287 OA
ATOM     13  C   UNL     1       1.550  -5.252   1.010  0.00  0.00    +0.152 C 
ATOM     14  N   UNL     1       1.814  -5.178   2.456  0.00  0.00    -0.230 N 
ATOM     15  C   UNL     1       1.390  -3.976   2.897  0.00  0.00    +0.289 C 
ATOM     16  O   UNL     1       1.462  -3.591   4.047  0.00  0.00    -0.266 OA
ATOM     17  C   UNL     1       2.396  -6.172   3.232  0.00  0.00    +0.191 A 
ATOM     18  N   UNL     1       2.844  -7.372   2.886  0.00  0.00    -0.125 NA
ATOM     19  N   UNL     1       3.351  -8.161   3.729  0.00  0.00    -0.144 NA
ATOM     20  C   UNL     1       3.469  -7.845   5.003  0.00  0.00    +0.106 A 
ATOM     21  S   UNL     1       2.765  -6.199   4.984  0.00  0.00    -0.035 S 
ATOM     22  C   UNL     1      -0.128  -2.026  -3.119  0.00  0.00    +0.044 C 
ENDROOT
BRANCH  13  23
ATOM     23  C   UNL     1       0.605  -6.387   0.709  0.00  0.00    -0.019 A 
ATOM     24  C   UNL     1      -0.424  -6.679   1.585  0.00  0.00    +0.006 A 
ATOM     25  C   UNL     1      -1.293  -7.719   1.313  0.00  0.00    +0.004 A 
ATOM     26  C   UNL     1      -1.135  -8.469   0.163  0.00  0.00    +0.046 A 
ATOM     27  C   UNL     1      -0.103  -8.178  -0.717  0.00  0.00    +0.129 A 
ATOM     28  C   UNL     1       0.764  -7.130  -0.444  0.00  0.00    +0.052 A 
BRANCH  27  29
ATOM     29  O   UNL     1       0.054  -8.915  -1.848  0.00  0.00    -0.456 OA
BRANCH  29  30
ATOM     30  C   UNL     1       1.145  -8.671  -2.622  0.00  0.00    +0.128 A 
ATOM     31  C   UNL     1       2.390  -9.147  -2.237  0.00  0.00    +0.046 A 
ATOM     32  C   UNL     1       3.497  -8.898  -3.025  0.00  0.00    +0.004 A 
ATOM     33  C   UNL     1       3.365  -8.175  -4.196  0.00  0.00    +0.000 A 
ATOM     34  C   UNL     1       2.125  -7.699  -4.581  0.00  0.00    +0.004 A 
ATOM     35  C   UNL     1       1.014  -7.951  -3.800  0.00  0.00    +0.046 A 
ENDBRANCH  29  30
ENDBRANCH  27  29
ENDBRANCH  13  23
BRANCH  20  36
ATOM     36  C   UNL     1       4.038  -8.641   6.149  0.00  0.00    +0.040 C 
ATOM     37  C   UNL     1       3.247  -9.940   6.311  0.00  0.00    +0.014 C 
ATOM     38  C   UNL     1       5.505  -8.969   5.863  0.00  0.00    +0.014 C 
ENDBRANCH  20  36
TORSDOF 4
