REMARK  Name = ZINC39674004
REMARK  9 active torsions:
REMARK  status: ('A' for Active; 'I' for Inactive)
REMARK    1  A    between atoms: C_1  and  C_2
REMARK    2  A    between atoms: C_4  and  C_12
REMARK    3  A    between atoms: C_12  and  C_13
REMARK    4  A    between atoms: C_13  and  N_14
REMARK    5  A    between atoms: C_15  and  C_17
REMARK    6  A    between atoms: C_28  and  C_30
REMARK    7  A    between atoms: C_30  and  C_32
REMARK    8  A    between atoms: C_30  and  O_33
REMARK    9  A    between atoms: O_33  and  C_34
REMARK                            x       y       z     vdW  Elec       q    Type
REMARK                         _______ _______ _______ _____ _____    ______ ____
ROOT
ATOM      1  C   UNL     1      -5.420   3.589   3.631  0.00  0.00    +0.100 C 
ATOM      2  C   UNL     1      -6.851   3.425   3.073  0.00  0.00    +0.121 C 
ATOM      3  N   UNL     1      -7.714   4.152   4.034  0.00  0.00    -0.297 N 
ATOM      4  C   UNL     1      -6.931   5.360   4.391  0.00  0.00    +0.115 C 
ATOM      5  C   UNL     1      -5.476   4.860   4.495  0.00  0.00    -0.004 C 
ATOM      6  C   UNL     1      -4.517   5.913   3.949  0.00  0.00    -0.010 C 
ATOM      7  C   UNL     1      -4.547   7.145   4.858  0.00  0.00    -0.082 C 
ATOM      8  N   UNL     1      -4.159   6.760   6.221  0.00  0.00    +0.379 N 
ATOM      9  C   UNL     1      -5.139   5.817   6.773  0.00  0.00    -0.082 C 
ATOM     10  C   UNL     1      -5.134   4.529   5.945  0.00  0.00    -0.010 C 
ATOM     11  C   UNL     1      -8.934   3.796   4.482  0.00  0.00    +0.256 C 
ATOM     12  O   UNL     1      -9.406   2.724   4.169  0.00  0.00    -0.272 OA
ATOM     13  H   UNL     1      -3.249   6.323   6.199  0.00  0.00    -0.086 HD
ATOM     14  H   UNL     1      -4.120   7.583   6.803  0.00  0.00    -0.086 HD
ENDROOT
BRANCH   1  16
ATOM     15  N   UNL     1      -3.128   3.499   2.707  0.00  0.00    -0.315 N 
ATOM     16  C   UNL     1      -4.434   3.763   2.505  0.00  0.00    +0.218 C 
ATOM     17  O   UNL     1      -4.816   4.141   1.418  0.00  0.00    -0.275 OA
ATOM     18  H   UNL     1      -2.822   3.197   3.576  0.00  0.00    +0.149 HD
BRANCH  15  19
ATOM     19  C   UNL     1      -2.169   3.668   1.612  0.00  0.00    +0.109 C 
BRANCH  19  20
ATOM     20  C   UNL     1      -0.766   3.305   2.102  0.00  0.00    +0.056 C 
BRANCH  20  24
ATOM     21  C   UNL     1       0.804   5.897   1.431  0.00  0.00    +0.063 C 
ATOM     22  C   UNL     1       0.904   4.596   0.678  0.00  0.00    +0.017 A 
ATOM     23  H   UNL     1       2.284   5.039  -0.817  0.00  0.00    +0.166 HD
ATOM     24  C   UNL     1       0.220   3.479   0.975  0.00  0.00    -0.018 A 
ATOM     25  C   UNL     1       0.615   2.462  -0.002  0.00  0.00    +0.003 A 
ATOM     26  C   UNL     1       0.260   1.129  -0.212  0.00  0.00    +0.010 A 
ATOM     27  C   UNL     1       0.824   0.431  -1.243  0.00  0.00    +0.001 A 
ATOM     28  C   UNL     1       1.748   1.037  -2.083  0.00  0.00    +0.002 A 
ATOM     29  C   UNL     1       2.113   2.352  -1.893  0.00  0.00    +0.026 A 
ATOM     30  C   UNL     1       1.552   3.081  -0.850  0.00  0.00    +0.047 A 
ATOM     31  N   UNL     1       1.700   4.379  -0.413  0.00  0.00    -0.358 N 
ENDBRANCH  20  24
ENDBRANCH  19  20
ENDBRANCH  15  19
ENDBRANCH   1  16
BRANCH  11  32
ATOM     32  C   UNL     1      -9.712   4.731   5.372  0.00  0.00    +0.256 C 
ATOM     33  C   UNL     1     -10.142   5.960   4.569  0.00  0.00    +0.062 C 
BRANCH  32  34
ATOM     34  O   UNL     1     -10.870   4.059   5.872  0.00  0.00    -0.480 OA
BRANCH  34  35
ATOM     35  C   UNL     1     -11.389   4.513   7.043  0.00  0.00    +0.122 A 
ATOM     36  C   UNL     1     -12.434   3.832   7.651  0.00  0.00    +0.045 A 
ATOM     37  C   UNL     1     -12.959   4.295   8.841  0.00  0.00    +0.004 A 
ATOM     38  C   UNL     1     -12.445   5.437   9.428  0.00  0.00    +0.000 A 
ATOM     39  C   UNL     1     -11.403   6.118   8.824  0.00  0.00    +0.004 A 
ATOM     40  C   UNL     1     -10.870   5.655   7.637  0.00  0.00    +0.045 A 
ENDBRANCH  34  35
ENDBRANCH  32  34
ENDBRANCH  11  32
TORSDOF 7
