REMARK  Name = ZINC39446725
REMARK  7 active torsions:
REMARK  status: ('A' for Active; 'I' for Inactive)
REMARK    1  A    between atoms: C_1  and  C_2
REMARK    2  A    between atoms: C_6  and  C_8
REMARK    3  A    between atoms: N_13  and  C_14
REMARK    4  A    between atoms: C_14  and  C_15
REMARK    5  A    between atoms: C_15  and  C_16
REMARK    6  A    between atoms: N_18  and  N_19
REMARK    7  A    between atoms: C_28  and  C_31
REMARK                            x       y       z     vdW  Elec       q    Type
REMARK                         _______ _______ _______ _____ _____    ______ ____
ROOT
ATOM      1  C   UNL     1       2.286  -6.381   0.294  0.00  0.00    +0.231 C 
ATOM      2  O   UNL     1       1.356  -6.891  -0.295  0.00  0.00    -0.274 OA
ATOM      3  N   UNL     1       3.551  -6.716  -0.026  0.00  0.00    -0.226 N 
ATOM      4  H   UNL     1       4.295  -6.309   0.445  0.00  0.00    +0.173 HD
ENDROOT
BRANCH   3   5
ATOM      5  N   UNL     1       3.793  -7.652  -1.040  0.00  0.00    -0.177 N 
ATOM      6  C   UNL     1       3.575  -8.997  -0.810  0.00  0.00    +0.206 C 
ATOM      7  N   UNL     1       4.284  -9.925  -1.399  0.00  0.00    -0.259 NA
ATOM      8  C   UNL     1       5.299  -9.447  -2.321  0.00  0.00    +0.184 C 
ATOM      9  C   UNL     1       4.567  -8.365  -3.184  0.00  0.00    +0.143 C 
ATOM     10  C   UNL     1       4.242  -7.239  -2.270  0.00  0.00    +0.247 C 
ATOM     11  O   UNL     1       4.364  -6.073  -2.578  0.00  0.00    -0.273 OA
ATOM     12  C   UNL     1       5.275  -8.177  -4.458  0.00  0.00    -0.019 C 
ATOM     13  C   UNL     1       5.921  -9.264  -4.957  0.00  0.00    +0.047 C 
ATOM     14  S   UNL     1       5.683 -10.582  -3.710  0.00  0.00    -0.105 S 
BRANCH  12  15
ATOM     15  C   UNL     1       5.283  -6.879  -5.158  0.00  0.00    -0.021 A 
ATOM     16  C   UNL     1       5.910  -5.773  -4.579  0.00  0.00    +0.008 A 
ATOM     17  C   UNL     1       5.914  -4.562  -5.239  0.00  0.00    +0.001 A 
ATOM     18  C   UNL     1       5.299  -4.441  -6.473  0.00  0.00    +0.000 A 
ATOM     19  C   UNL     1       4.676  -5.532  -7.053  0.00  0.00    +0.001 A 
ATOM     20  C   UNL     1       4.670  -6.751  -6.407  0.00  0.00    +0.008 A 
ENDBRANCH  12  15
ENDBRANCH   3   5
BRANCH   1  21
ATOM     21  C   UNL     1       2.026  -5.374   1.385  0.00  0.00    +0.119 C 
BRANCH  21  22
ATOM     22  C   UNL     1       0.517  -5.176   1.547  0.00  0.00    +0.135 C 
BRANCH  22  28
ATOM     23  C   UNL     1       0.080  -2.841   2.460  0.00  0.00    +0.165 A 
ATOM     24  N   UNL     1      -0.121  -2.347   3.659  0.00  0.00    -0.128 NA
ATOM     25  N   UNL     1      -0.070  -3.287   4.535  0.00  0.00    -0.121 NA
ATOM     26  C   UNL     1       0.167  -4.438   3.948  0.00  0.00    +0.203 A 
ATOM     27  S   UNL     1       0.321  -6.004   4.741  0.00  0.00    -0.009 SA
ATOM     28  N   UNL     1       0.265  -4.197   2.607  0.00  0.00    -0.301 N 
BRANCH  23  34
ATOM     29  C   UNL     1      -1.087   1.253  -0.143  0.00  0.00    +0.044 C 
ATOM     30  C   UNL     1      -0.463  -0.117  -0.067  0.00  0.00    -0.050 A 
ATOM     31  C   UNL     1       0.130  -0.668  -1.190  0.00  0.00    +0.003 A 
ATOM     32  C   UNL     1       0.706  -1.925  -1.128  0.00  0.00    +0.001 A 
ATOM     33  C   UNL     1       0.693  -2.636   0.054  0.00  0.00    +0.011 A 
ATOM     34  C   UNL     1       0.097  -2.085   1.190  0.00  0.00    +0.020 A 
ATOM     35  C   UNL     1      -0.478  -0.815   1.122  0.00  0.00    +0.015 A 
ENDBRANCH  23  34
ENDBRANCH  22  28
ENDBRANCH  21  22
ENDBRANCH   1  21
TORSDOF 6
