REMARK  Name = ZINC02970965
REMARK  10 active torsions:
REMARK  status: ('A' for Active; 'I' for Inactive)
REMARK    1  A    between atoms: N_9  and  C_29
REMARK    2  A    between atoms: C_10  and  S_12
REMARK    3  A    between atoms: S_12  and  C_13
REMARK    4  A    between atoms: C_13  and  C_14
REMARK    5  A    between atoms: N_16  and  C_17
REMARK    6  A    between atoms: C_17  and  C_18
REMARK    7  A    between atoms: C_18  and  C_19
REMARK    8  A    between atoms: C_22  and  S_25
REMARK    9  A    between atoms: S_25  and  N_28
REMARK   10  A    between atoms: C_29  and  C_30
REMARK                            x       y       z     vdW  Elec       q    Type
REMARK                         _______ _______ _______ _____ _____    ______ ____
ROOT
ATOM      1  C   UNL     1       1.756   2.096  -0.004  0.00  0.00    +0.173 C 
ENDROOT
BRANCH   1   2
ATOM      2  C   UNL     1       1.984   3.586   0.002  0.00  0.00    +0.223 C 
ATOM      3  O   UNL     1       1.037   4.344   0.015  0.00  0.00    -0.275 OA
ATOM      4  N   UNL     1       3.240   4.076  -0.007  0.00  0.00    -0.314 N 
ATOM      5  H   UNL     1       3.997   3.469  -0.018  0.00  0.00    +0.149 HD
BRANCH   4   6
ATOM      6  C   UNL     1       3.461   5.524  -0.001  0.00  0.00    +0.109 C 
BRANCH   6   7
ATOM      7  C   UNL     1       4.964   5.810  -0.014  0.00  0.00    +0.054 C 
BRANCH   7   8
ATOM      8  C   UNL     1       5.192   7.300  -0.008  0.00  0.00    -0.046 A 
ATOM      9  C   UNL     1       5.290   7.989  -1.203  0.00  0.00    +0.005 A 
ATOM     10  C   UNL     1       5.495   9.356  -1.197  0.00  0.00    +0.029 A 
ATOM     11  C   UNL     1       5.610  10.033   0.002  0.00  0.00    +0.105 A 
ATOM     12  C   UNL     1       5.516   9.343   1.197  0.00  0.00    +0.029 A 
ATOM     13  C   UNL     1       5.308   7.976   1.191  0.00  0.00    +0.005 A 
BRANCH  11  14
ATOM     14  S   UNL     1       5.875  11.774   0.009  0.00  0.00    +0.056 S 
ATOM     15  O   UNL     1       5.381  12.265  -1.229  0.00  0.00    -0.153 OA
ATOM     16  O   UNL     1       5.403  12.252   1.261  0.00  0.00    -0.153 OA
BRANCH  14  17
ATOM     17  N   UNL     1       7.513  12.021  -0.004  0.00  0.00    -0.204 NA
ATOM     18  H   UNL     1       8.117  11.262  -0.013  0.00  0.00    +0.144 HD
ATOM     19  H   UNL     1       7.867  12.923  -0.002  0.00  0.00    +0.144 HD
ENDBRANCH  14  17
ENDBRANCH  11  14
ENDBRANCH   7   8
ENDBRANCH   6   7
ENDBRANCH   4   6
ENDBRANCH   1   2
BRANCH   1  20
ATOM     20  S   UNL     1      -0.022   1.758   0.012  0.00  0.00    -0.078 S 
BRANCH  20  30
ATOM     21  C   UNL     1       1.374  -4.728  -0.040  0.00  0.00    +0.001 A 
ATOM     22  C   UNL     1       2.539  -3.973  -0.047  0.00  0.00    +0.002 A 
ATOM     23  C   UNL     1       2.492  -2.607  -0.037  0.00  0.00    +0.028 A 
ATOM     24  C   UNL     1       1.254  -1.958  -0.021  0.00  0.00    +0.079 A 
ATOM     25  C   UNL     1       0.070  -2.730  -0.015  0.00  0.00    +0.065 A 
ATOM     26  C   UNL     1       0.148  -4.122  -0.024  0.00  0.00    +0.015 A 
ATOM     27  C   UNL     1      -1.218  -2.024   0.002  0.00  0.00    +0.263 A 
ATOM     28  O   UNL     1      -2.272  -2.634   0.009  0.00  0.00    -0.267 OA
ATOM     29  N   UNL     1      -1.190  -0.671   0.010  0.00  0.00    -0.280 N 
ATOM     30  C   UNL     1       0.002  -0.004   0.002  0.00  0.00    +0.173 A 
ATOM     31  N   UNL     1       1.162  -0.613  -0.018  0.00  0.00    -0.223 NA
BRANCH  29  32
ATOM     32  C   UNL     1      -2.446   0.083   0.026  0.00  0.00    +0.201 C 
BRANCH  32  33
ATOM     33  C   UNL     1      -2.890   0.349  -1.389  0.00  0.00    +0.125 A 
ATOM     34  C   UNL     1      -3.679  -0.449  -2.129  0.00  0.00    +0.046 A 
ATOM     35  C   UNL     1      -3.841   0.183  -3.383  0.00  0.00    +0.041 A 
ATOM     36  C   UNL     1      -3.135   1.327  -3.337  0.00  0.00    +0.195 A 
ATOM     37  O   UNL     1      -2.560   1.422  -2.126  0.00  0.00    -0.466 OA
ENDBRANCH  32  33
ENDBRANCH  29  32
ENDBRANCH  20  30
ENDBRANCH   1  20
TORSDOF 10
