REMARK  Name = ZINC33890446
REMARK  10 active torsions:
REMARK  status: ('A' for Active; 'I' for Inactive)
REMARK    1  A    between atoms: C_1  and  C_2
REMARK    2  A    between atoms: C_2  and  O_3
REMARK    3  A    between atoms: O_3  and  C_4
REMARK    4  A    between atoms: C_7  and  N_10
REMARK    5  A    between atoms: C_11  and  C_13
REMARK    6  A    between atoms: C_17  and  N_18
REMARK    7  A    between atoms: C_19  and  C_21
REMARK    8  A    between atoms: C_21  and  N_22
REMARK    9  A    between atoms: C_27  and  C_29
REMARK   10  A    between atoms: C_31  and  C_35
REMARK                            x       y       z     vdW  Elec       q    Type
REMARK                         _______ _______ _______ _____ _____    ______ ____
ROOT
ATOM      1  C   UNL     1      -3.386  -7.976   0.197  0.00  0.00    +0.069 A 
ATOM      2  C   UNL     1      -3.406  -8.645   1.486  0.00  0.00    -0.023 A 
ATOM      3  C   UNL     1      -3.564  -9.984   1.411  0.00  0.00    -0.004 A 
ATOM      4  S   UNL     1      -3.682 -10.325  -0.320  0.00  0.00    -0.077 S 
ATOM      5  C   UNL     1      -3.535  -8.768  -0.930  0.00  0.00    +0.084 A 
ATOM      6  C   UNL     1      -3.623 -10.948   2.555  0.00  0.00    +0.046 C 
ATOM      7  C   UNL     1      -3.099 -10.238   3.812  0.00  0.00    -0.009 C 
ATOM      8  C   UNL     1      -3.778  -8.870   3.928  0.00  0.00    +0.008 C 
ATOM      9  C   UNL     1      -3.265  -7.939   2.827  0.00  0.00    +0.037 C 
ATOM     10  C   UNL     1      -3.422 -11.079   5.049  0.00  0.00    +0.008 C 
ENDROOT
BRANCH   1  12
ATOM     11  N   UNL     1      -1.989  -5.989  -0.012  0.00  0.00    -0.281 N 
ATOM     12  C   UNL     1      -3.222  -6.522   0.093  0.00  0.00    +0.251 C 
ATOM     13  O   UNL     1      -4.200  -5.798   0.102  0.00  0.00    -0.270 OA
ATOM     14  H   UNL     1      -1.215  -6.569  -0.096  0.00  0.00    +0.155 HD
BRANCH  11  18
ATOM     15  C   UNL     1      -1.497  -1.849   0.024  0.00  0.00    +0.121 A 
ATOM     16  C   UNL     1      -0.648  -2.642  -0.735  0.00  0.00    +0.047 A 
ATOM     17  C   UNL     1      -0.810  -4.013  -0.747  0.00  0.00    +0.027 A 
ATOM     18  C   UNL     1      -1.823  -4.599   0.001  0.00  0.00    +0.034 A 
ATOM     19  C   UNL     1      -2.673  -3.805   0.759  0.00  0.00    +0.027 A 
ATOM     20  C   UNL     1      -2.506  -2.434   0.775  0.00  0.00    +0.047 A 
BRANCH  15  21
ATOM     21  O   UNL     1      -1.337  -0.499   0.035  0.00  0.00    -0.492 OA
BRANCH  21  23
ATOM     22  C   UNL     1      -0.254   1.559  -0.622  0.00  0.00    +0.048 C 
ATOM     23  C   UNL     1      -0.278   0.035  -0.761  0.00  0.00    +0.225 C 
ENDBRANCH  21  23
ENDBRANCH  15  21
ENDBRANCH  11  18
ENDBRANCH   1  12
BRANCH   5  24
ATOM     24  N   UNL     1      -3.554  -8.367  -2.257  0.00  0.00    -0.281 N 
ATOM     25  C   UNL     1      -3.710  -9.281  -3.236  0.00  0.00    +0.201 C 
ATOM     26  O   UNL     1      -3.833 -10.454  -2.955  0.00  0.00    -0.278 OA
ATOM     27  H   UNL     1      -3.456  -7.428  -2.482  0.00  0.00    +0.155 HD
BRANCH  25  28
ATOM     28  C   UNL     1      -3.731  -8.845  -4.678  0.00  0.00    +0.019 C 
BRANCH  28  29
ATOM     29  N   UNL     1      -3.911 -10.019  -5.542  0.00  0.00    +0.387 N 
ATOM     30  C   UNL     1      -2.747 -10.904  -5.412  0.00  0.00    -0.078 C 
ATOM     31  C   UNL     1      -2.965 -12.167  -6.247  0.00  0.00    -0.019 C 
ATOM     32  C   UNL     1      -3.150 -11.775  -7.716  0.00  0.00    -0.003 C 
ATOM     33  C   UNL     1      -4.321 -10.795  -7.830  0.00  0.00    -0.016 C 
ATOM     34  C   UNL     1      -4.052  -9.582  -6.936  0.00  0.00    -0.071 C 
ATOM     35  C   UNL     1      -5.219  -8.600  -7.047  0.00  0.00    -0.013 C 
ATOM     36  H   UNL     1      -4.742 -10.518  -5.261  0.00  0.00    -0.081 HD
ENDBRANCH  28  29
ENDBRANCH  25  28
ENDBRANCH   5  24
TORSDOF 7
