REMARK  Name = ZINC06134205
REMARK  16 active torsions:
REMARK  status: ('A' for Active; 'I' for Inactive)
REMARK    1  A    between atoms: C_1  and  C_2
REMARK    2  A    between atoms: C_2  and  C_3
REMARK    3  A    between atoms: C_2  and  C_4
REMARK    4  A    between atoms: C_4  and  C_5
REMARK    5  A    between atoms: C_5  and  N_6
REMARK    6  A    between atoms: C_7  and  C_9
REMARK    7  A    between atoms: C_9  and  C_11
REMARK    8  A    between atoms: C_9  and  N_18
REMARK    9  A    between atoms: C_14  and  O_17
REMARK   10  A    between atoms: N_18  and  C_19
REMARK   11  A    between atoms: C_22  and  C_25
REMARK   12  A    between atoms: C_25  and  C_26
REMARK   13  A    between atoms: C_25  and  C_27
REMARK   14  A    between atoms: C_28  and  C_30
REMARK   15  A    between atoms: C_31  and  N_38
REMARK   16  A    between atoms: C_32  and  C_35
REMARK                            x       y       z     vdW  Elec       q    Type
REMARK                         _______ _______ _______ _____ _____    ______ ____
ROOT
ATOM      1  N   UNL     1      -0.618   3.081   1.183  0.00  0.00    -0.251 N 
ATOM      2  C   UNL     1      -0.127   4.176   0.570  0.00  0.00    +0.262 C 
ATOM      3  O   UNL     1      -0.297   5.277   1.062  0.00  0.00    -0.269 OA
ENDROOT
BRANCH   1   4
ATOM      4  C   UNL     1      -1.430   3.216   2.313  0.00  0.00    +0.038 A 
ATOM      5  C   UNL     1      -1.822   2.092   3.027  0.00  0.00    +0.024 A 
ATOM      6  C   UNL     1      -2.620   2.230   4.146  0.00  0.00    +0.006 A 
ATOM      7  C   UNL     1      -3.038   3.485   4.548  0.00  0.00    -0.045 A 
ATOM      8  C   UNL     1      -2.655   4.606   3.836  0.00  0.00    +0.006 A 
ATOM      9  C   UNL     1      -1.852   4.476   2.720  0.00  0.00    +0.024 A 
BRANCH   7  10
ATOM     10  C   UNL     1      -3.914   3.631   5.766  0.00  0.00    +0.013 C 
ATOM     11  C   UNL     1      -5.217   2.857   5.554  0.00  0.00    +0.012 C 
ATOM     12  C   UNL     1      -3.183   3.073   6.989  0.00  0.00    +0.012 C 
ENDBRANCH   7  10
ENDBRANCH   1   4
BRANCH   2  13
ATOM     13  C   UNL     1       0.610   4.043  -0.688  0.00  0.00    +0.116 A 
ATOM     14  C   UNL     1       1.761   4.708  -1.113  0.00  0.00    +0.076 A 
ATOM     15  C   UNL     1       2.172   4.306  -2.384  0.00  0.00    +0.155 A 
ATOM     16  N   UNL     1       1.471   3.399  -3.029  0.00  0.00    -0.203 NA
ATOM     17  S   UNL     1       0.274   2.996  -2.088  0.00  0.00    +0.019 S 
BRANCH  15  18
ATOM     18  C   UNL     1       3.374   4.896  -3.001  0.00  0.00    +0.262 C 
ATOM     19  O   UNL     1       4.017   5.735  -2.399  0.00  0.00    -0.269 OA
ATOM     20  N   UNL     1       3.761   4.506  -4.231  0.00  0.00    -0.324 N 
ATOM     21  H   UNL     1       3.248   3.837  -4.712  0.00  0.00    +0.145 HD
ATOM     22  H   UNL     1       4.552   4.895  -4.637  0.00  0.00    +0.145 HD
ENDBRANCH  15  18
BRANCH  14  23
ATOM     23  N   UNL     1       2.427   5.662  -0.354  0.00  0.00    -0.355 N 
ATOM     24  H   UNL     1       2.095   5.899   0.526  0.00  0.00    +0.142 HD
ATOM     25  H   UNL     1       3.223   6.091  -0.703  0.00  0.00    +0.142 HD
ENDBRANCH  14  23
ENDBRANCH   2  13
BRANCH   1  26
ATOM     26  C   UNL     1      -0.300   1.748   0.664  0.00  0.00    +0.197 C 
BRANCH  26  27
ATOM     27  C   UNL     1      -1.575   1.040   0.283  0.00  0.00    -0.018 A 
ATOM     28  C   UNL     1      -2.793   1.670   0.459  0.00  0.00    +0.009 A 
ATOM     29  C   UNL     1      -3.964   1.022   0.115  0.00  0.00    +0.046 A 
ATOM     30  C   UNL     1      -3.916  -0.263  -0.407  0.00  0.00    +0.117 A 
ATOM     31  C   UNL     1      -2.692  -0.892  -0.583  0.00  0.00    +0.046 A 
ATOM     32  C   UNL     1      -1.525  -0.239  -0.238  0.00  0.00    +0.009 A 
BRANCH  30  33
ATOM     33  O   UNL     1      -5.066  -0.903  -0.746  0.00  0.00    -0.507 OA
ATOM     34  H   UNL     1      -5.453  -1.422  -0.028  0.00  0.00    +0.292 HD
ENDBRANCH  30  33
ENDBRANCH  26  27
BRANCH  26  36
ATOM     35  N   UNL     1       0.808  -0.310   1.473  0.00  0.00    -0.313 N 
ATOM     36  C   UNL     1       0.416   0.954   1.726  0.00  0.00    +0.238 C 
ATOM     37  O   UNL     1       0.639   1.452   2.809  0.00  0.00    -0.273 OA
ATOM     38  H   UNL     1       0.630  -0.709   0.607  0.00  0.00    +0.149 HD
BRANCH  35  39
ATOM     39  C   UNL     1       1.505  -1.082   2.505  0.00  0.00    +0.104 C 
BRANCH  39  40
ATOM     40  C   UNL     1       1.836  -2.474   1.964  0.00  0.00    +0.022 C 
BRANCH  40  42
ATOM     41  C   UNL     1       1.621  -3.519   4.223  0.00  0.00    +0.007 C 
ATOM     42  C   UNL     1       2.564  -3.281   3.042  0.00  0.00    -0.016 C 
ATOM     43  C   UNL     1       3.005  -4.626   2.462  0.00  0.00    +0.007 C 
ENDBRANCH  40  42
ENDBRANCH  39  40
ENDBRANCH  35  39
ENDBRANCH  26  36
ENDBRANCH   1  26
TORSDOF 12
