REMARK  Name = ZINC63375526
REMARK  8 active torsions:
REMARK  status: ('A' for Active; 'I' for Inactive)
REMARK    1  A    between atoms: C_1  and  C_2
REMARK    2  A    between atoms: C_2  and  C_3
REMARK    3  A    between atoms: C_3  and  N_4
REMARK    4  A    between atoms: C_5  and  C_7
REMARK    5  A    between atoms: C_12  and  N_13
REMARK    6  A    between atoms: C_29  and  C_34
REMARK    7  A    between atoms: C_38  and  O_40
REMARK    8  A    between atoms: O_40  and  C_41
REMARK                            x       y       z     vdW  Elec       q    Type
REMARK                         _______ _______ _______ _____ _____    ______ ____
ROOT
ATOM      1  N   UNL     1      -4.976  -4.211   0.026  0.00  0.00    -0.192 N 
ATOM      2  C   UNL     1      -5.653  -3.844  -1.082  0.00  0.00    +0.248 C 
ATOM      3  O   UNL     1      -5.312  -4.005  -2.234  0.00  0.00    -0.273 OA
ATOM      4  C   UNL     1      -6.925  -3.190  -0.587  0.00  0.00    +0.169 C 
ATOM      5  C   UNL     1      -7.000  -1.741  -1.098  0.00  0.00    +0.065 C 
ATOM      6  C   UNL     1      -7.888  -0.992  -0.132  0.00  0.00    -0.034 C 
ATOM      7  C   UNL     1      -8.167   0.303  -0.037  0.00  0.00    -0.001 A 
ATOM      8  C   UNL     1      -7.792   1.449  -0.882  0.00  0.00    +0.010 A 
ATOM      9  C   UNL     1      -8.245   2.665  -0.478  0.00  0.00    +0.001 A 
ATOM     10  C   UNL     1      -9.024   2.853   0.668  0.00  0.00    +0.002 A 
ATOM     11  C   UNL     1      -9.421   1.857   1.499  0.00  0.00    +0.026 A 
ATOM     12  C   UNL     1      -9.011   0.530   1.175  0.00  0.00    +0.043 A 
ATOM     13  N   UNL     1      -9.258  -0.596   1.774  0.00  0.00    -0.375 N 
ATOM     14  C   UNL     1      -8.651  -1.678   0.995  0.00  0.00    +0.131 C 
ATOM     15  C   UNL     1      -7.625  -2.462   1.823  0.00  0.00    +0.135 C 
ATOM     16  N   UNL     1      -6.747  -3.172   0.879  0.00  0.00    -0.264 N 
ATOM     17  C   UNL     1      -5.625  -3.854   1.143  0.00  0.00    +0.317 C 
ATOM     18  O   UNL     1      -5.238  -4.115   2.265  0.00  0.00    -0.252 OA
ATOM     19  H   UNL     1      -9.759  -0.703   2.598  0.00  0.00    +0.160 HD
ENDROOT
BRANCH   1  25
ATOM     20  C   UNL     1      -2.551  -4.164   0.004  0.00  0.00    +0.059 A 
ATOM     21  C   UNL     1      -1.335  -4.850  -0.005  0.00  0.00    +0.015 A 
ATOM     22  C   UNL     1      -1.323  -6.228  -0.013  0.00  0.00    +0.001 A 
ATOM     23  C   UNL     1      -2.513  -6.937  -0.011  0.00  0.00    +0.002 A 
ATOM     24  C   UNL     1      -3.722  -6.272  -0.001  0.00  0.00    +0.025 A 
ATOM     25  C   UNL     1      -3.753  -4.885   0.012  0.00  0.00    +0.058 A 
BRANCH  20  27
ATOM     26  N   UNL     1      -1.413  -1.998   0.005  0.00  0.00    -0.311 N 
ATOM     27  C   UNL     1      -2.571  -2.688   0.012  0.00  0.00    +0.246 C 
ATOM     28  O   UNL     1      -3.632  -2.095   0.025  0.00  0.00    -0.270 OA
ATOM     29  H   UNL     1      -0.567  -2.472  -0.006  0.00  0.00    +0.149 HD
BRANCH  26  30
ATOM     30  C   UNL     1      -1.433  -0.534   0.013  0.00  0.00    +0.104 C 
BRANCH  30  32
ATOM     31  C   UNL     1      -0.019   1.526   0.010  0.00  0.00    +0.005 C 
ATOM     32  C   UNL     1       0.002  -0.004   0.002  0.00  0.00    +0.015 C 
ENDBRANCH  30  32
ENDBRANCH  26  30
ENDBRANCH  20  27
ENDBRANCH   1  25
BRANCH  15  33
ATOM     33  C   UNL     1      -8.331  -3.469   2.694  0.00  0.00    -0.021 A 
ATOM     34  C   UNL     1      -8.750  -4.673   2.157  0.00  0.00    +0.006 A 
ATOM     35  C   UNL     1      -9.397  -5.599   2.953  0.00  0.00    +0.004 A 
ATOM     36  C   UNL     1      -9.628  -5.324   4.287  0.00  0.00    +0.045 A 
ATOM     37  C   UNL     1      -9.209  -4.118   4.828  0.00  0.00    +0.120 A 
ATOM     38  C   UNL     1      -8.554  -3.192   4.029  0.00  0.00    +0.051 A 
BRANCH  37  39
ATOM     39  O   UNL     1      -9.435  -3.845   6.140  0.00  0.00    -0.495 OA
ATOM     40  C   UNL     1     -10.109  -4.846   6.904  0.00  0.00    +0.277 C 
ENDBRANCH  37  39
ENDBRANCH  15  33
TORSDOF 6
