REMARK  Name = ZINC16475007
REMARK  12 active torsions:
REMARK  status: ('A' for Active; 'I' for Inactive)
REMARK    1  A    between atoms: C_1  and  C_2
REMARK    2  A    between atoms: C_2  and  C_3
REMARK    3  A    between atoms: C_3  and  C_4
REMARK    4  A    between atoms: C_4  and  N_5
REMARK    5  A    between atoms: N_5  and  C_6
REMARK    6  A    between atoms: C_7  and  N_22
REMARK    7  A    between atoms: N_8  and  C_15
REMARK    8  A    between atoms: C_15  and  C_16
REMARK    9  A    between atoms: C_23  and  C_25
REMARK   10  A    between atoms: C_25  and  N_67
REMARK   11  A    between atoms: C_27  and  C_34
REMARK   12  A    between atoms: C_30  and  C_33
REMARK                            x       y       z     vdW  Elec       q    Type
REMARK                         _______ _______ _______ _____ _____    ______ ____
ROOT
ATOM      1  C   UNL     1      -0.322  -0.056   5.703  0.00  0.00    +0.140 A 
ATOM      2  C   UNL     1       0.663  -0.966   6.030  0.00  0.00    +0.128 A 
ATOM      3  N   UNL     1       0.325  -2.095   6.739  0.00  0.00    -0.276 N 
ATOM      4  C   UNL     1      -0.952  -2.316   7.100  0.00  0.00    +0.331 A 
ATOM      5  O   UNL     1      -1.231  -3.323   7.722  0.00  0.00    -0.246 OA
ATOM      6  N   UNL     1      -1.926  -1.443   6.786  0.00  0.00    -0.273 N 
ATOM      7  H   UNL     1      -2.867  -1.631   7.066  0.00  0.00    +0.173 HD
ATOM      8  C   UNL     1      -1.648  -0.319   6.097  0.00  0.00    +0.277 A 
ATOM      9  O   UNL     1      -2.538   0.465   5.817  0.00  0.00    -0.266 OA
ENDROOT
BRANCH   1  10
ATOM     10  N   UNL     1      -0.007   1.114   4.981  0.00  0.00    -0.266 N 
ATOM     11  C   UNL     1       0.798   2.049   5.529  0.00  0.00    +0.203 C 
ATOM     12  O   UNL     1       1.326   1.841   6.601  0.00  0.00    -0.277 OA
BRANCH  10  13
ATOM     13  C   UNL     1      -0.554   1.315   3.637  0.00  0.00    +0.114 C 
BRANCH  13  14
ATOM     14  C   UNL     1       0.435   0.781   2.599  0.00  0.00    +0.019 C 
BRANCH  14  16
ATOM     15  C   UNL     1       0.853   0.457   0.157  0.00  0.00    +0.004 C 
ATOM     16  C   UNL     1      -0.136   0.991   1.195  0.00  0.00    -0.002 C 
ENDBRANCH  14  16
ENDBRANCH  13  14
ENDBRANCH  10  13
BRANCH  11  17
ATOM     17  C   UNL     1       1.042   3.349   4.808  0.00  0.00    +0.019 C 
BRANCH  17  25
ATOM     18  C   UNL     1       1.312   4.595   6.866  0.00  0.00    -0.075 C 
ATOM     19  C   UNL     1       2.328   5.343   7.732  0.00  0.00    -0.031 C 
ATOM     20  C   UNL     1       2.831   6.574   6.972  0.00  0.00    +0.003 C 
ATOM     21  C   UNL     1       3.444   6.127   5.641  0.00  0.00    -0.031 C 
ATOM     22  C   UNL     1       2.395   5.357   4.836  0.00  0.00    -0.075 C 
ATOM     23  C   UNL     1       3.895   7.356   4.849  0.00  0.00    +0.005 C 
ATOM     24  C   UNL     1       3.507   4.420   8.048  0.00  0.00    +0.005 C 
ATOM     25  N   UNL     1       1.970   4.172   5.611  0.00  0.00    +0.386 N 
ATOM     26  H   UNL     1       2.798   3.611   5.843  0.00  0.00    -0.081 HD
ENDBRANCH  17  25
ENDBRANCH  11  17
ENDBRANCH   1  10
BRANCH   2  27
ATOM     27  N   UNL     1       1.966  -0.743   5.656  0.00  0.00    -0.343 N 
ATOM     28  H   UNL     1       2.186   0.012   5.088  0.00  0.00    +0.144 HD
ATOM     29  H   UNL     1       2.667  -1.341   5.961  0.00  0.00    +0.144 HD
ENDBRANCH   2  27
BRANCH   3  30
ATOM     30  C   UNL     1       1.361  -3.067   7.096  0.00  0.00    +0.163 C 
BRANCH  30  31
ATOM     31  C   UNL     1       1.490  -4.091   5.998  0.00  0.00    -0.028 A 
ATOM     32  C   UNL     1       0.729  -5.245   6.036  0.00  0.00    +0.005 A 
ATOM     33  C   UNL     1       0.844  -6.182   5.026  0.00  0.00    +0.000 A 
ATOM     34  C   UNL     1       1.728  -5.970   3.985  0.00  0.00    +0.000 A 
ATOM     35  C   UNL     1       2.493  -4.820   3.950  0.00  0.00    +0.000 A 
ATOM     36  C   UNL     1       2.374  -3.880   4.957  0.00  0.00    +0.005 A 
ENDBRANCH  30  31
ENDBRANCH   3  30
TORSDOF 9
