REMARK  Name = ZINC18148562
REMARK  11 active torsions:
REMARK  status: ('A' for Active; 'I' for Inactive)
REMARK    1  A    between atoms: C_1  and  C_2
REMARK    2  A    between atoms: C_5  and  N_8
REMARK    3  A    between atoms: C_9  and  C_29
REMARK    4  A    between atoms: C_12  and  S_13
REMARK    5  A    between atoms: S_13  and  C_14
REMARK    6  A    between atoms: C_14  and  C_15
REMARK    7  A    between atoms: N_17  and  N_18
REMARK    8  A    between atoms: C_32  and  C_35
REMARK    9  A    between atoms: C_35  and  C_36
REMARK   10  A    between atoms: C_35  and  C_37
REMARK   11  A    between atoms: C_35  and  C_38
REMARK                            x       y       z     vdW  Elec       q    Type
REMARK                         _______ _______ _______ _____ _____    ______ ____
ROOT
ATOM      1  N   UNL     1       0.188  -3.787  -0.148  0.00  0.00    -0.270 N 
ATOM      2  C   UNL     1      -0.784  -4.578   0.424  0.00  0.00    +0.169 A 
ATOM      3  N   UNL     1      -0.427  -5.827   0.230  0.00  0.00    -0.128 NA
ATOM      4  N   UNL     1       0.685  -5.871  -0.413  0.00  0.00    -0.122 NA
ATOM      5  C   UNL     1       1.105  -4.654  -0.676  0.00  0.00    +0.197 A 
ENDROOT
BRANCH   1  10
ATOM      6  C   UNL     1       0.342   1.885  -0.302  0.00  0.00    +0.044 C 
ATOM      7  C   UNL     1       0.301   0.379  -0.261  0.00  0.00    -0.050 A 
ATOM      8  C   UNL     1       0.111  -0.338  -1.428  0.00  0.00    +0.005 A 
ATOM      9  C   UNL     1       0.073  -1.718  -1.394  0.00  0.00    +0.026 A 
ATOM     10  C   UNL     1       0.226  -2.386  -0.186  0.00  0.00    +0.051 A 
ATOM     11  C   UNL     1       0.416  -1.663   0.984  0.00  0.00    +0.026 A 
ATOM     12  C   UNL     1       0.459  -0.283   0.942  0.00  0.00    +0.005 A 
ENDBRANCH   1  10
BRANCH   2  13
ATOM     13  C   UNL     1      -1.999  -4.110   1.123  0.00  0.00    +0.020 A 
ATOM     14  C   UNL     1      -2.454  -2.804   0.940  0.00  0.00    +0.012 A 
ATOM     15  C   UNL     1      -3.589  -2.373   1.595  0.00  0.00    +0.005 A 
ATOM     16  C   UNL     1      -4.276  -3.234   2.433  0.00  0.00    -0.042 A 
ATOM     17  C   UNL     1      -3.830  -4.530   2.620  0.00  0.00    +0.005 A 
ATOM     18  C   UNL     1      -2.700  -4.975   1.965  0.00  0.00    +0.012 A 
BRANCH  16  19
ATOM     19  C   UNL     1      -5.514  -2.756   3.147  0.00  0.00    -0.013 C 
ATOM     20  C   UNL     1      -6.562  -2.325   2.119  0.00  0.00    +0.015 C 
ATOM     21  C   UNL     1      -6.079  -3.891   4.004  0.00  0.00    +0.015 C 
ATOM     22  C   UNL     1      -5.160  -1.568   4.043  0.00  0.00    +0.015 C 
ENDBRANCH  16  19
ENDBRANCH   2  13
BRANCH   5  23
ATOM     23  S   UNL     1       2.576  -4.220  -1.543  0.00  0.00    -0.076 S 
BRANCH  23  24
ATOM     24  C   UNL     1       3.325  -5.818  -1.964  0.00  0.00    +0.174 C 
BRANCH  24  25
ATOM     25  C   UNL     1       4.609  -5.588  -2.719  0.00  0.00    +0.242 C 
ATOM     26  O   UNL     1       4.982  -4.457  -2.950  0.00  0.00    -0.273 OA
ATOM     27  N   UNL     1       5.342  -6.638  -3.138  0.00  0.00    -0.206 N 
ATOM     28  H   UNL     1       5.043  -7.542  -2.953  0.00  0.00    +0.177 HD
BRANCH  27  29
ATOM     29  N   UNL     1       6.535  -6.424  -3.839  0.00  0.00    -0.175 NA
ATOM     30  C   UNL     1       7.203  -7.443  -4.323  0.00  0.00    +0.152 C 
ATOM     31  C   UNL     1       6.921  -8.884  -4.122  0.00  0.00    +0.028 A 
ATOM     32  C   UNL     1       5.942  -9.573  -3.416  0.00  0.00    +0.012 A 
ATOM     33  C   UNL     1       5.940 -10.953  -3.417  0.00  0.00    +0.001 A 
ATOM     34  C   UNL     1       6.911 -11.648  -4.119  0.00  0.00    +0.002 A 
ATOM     35  C   UNL     1       7.888 -10.973  -4.823  0.00  0.00    +0.024 A 
ATOM     36  C   UNL     1       7.905  -9.582  -4.833  0.00  0.00    +0.043 A 
ATOM     37  N   UNL     1       8.760  -8.674  -5.448  0.00  0.00    -0.280 N 
ATOM     38  C   UNL     1       8.397  -7.406  -5.192  0.00  0.00    +0.269 C 
ATOM     39  O   UNL     1       8.954  -6.404  -5.601  0.00  0.00    -0.268 OA
ATOM     40  H   UNL     1       9.520  -8.924  -5.997  0.00  0.00    +0.155 HD
ENDBRANCH  27  29
ENDBRANCH  24  25
ENDBRANCH  23  24
ENDBRANCH   5  23
TORSDOF 7
