REMARK  Name = ZINC12345159
REMARK  12 active torsions:
REMARK  status: ('A' for Active; 'I' for Inactive)
REMARK    1  A    between atoms: C_1  and  C_2
REMARK    2  A    between atoms: C_3  and  C_37
REMARK    3  A    between atoms: N_6  and  C_30
REMARK    4  A    between atoms: C_7  and  N_80
REMARK    5  A    between atoms: C_9  and  C_10
REMARK    6  A    between atoms: C_9  and  N_80
REMARK    7  A    between atoms: C_10  and  C_29
REMARK    8  A    between atoms: C_14  and  C_28
REMARK    9  A    between atoms: C_23  and  C_25
REMARK   10  A    between atoms: C_25  and  C_26
REMARK   11  A    between atoms: C_25  and  C_27
REMARK   12  A    between atoms: C_30  and  C_31
REMARK                            x       y       z     vdW  Elec       q    Type
REMARK                         _______ _______ _______ _____ _____    ______ ____
ROOT
ATOM      1  C   UNL     1      -0.874   1.135   1.326  0.00  0.00    -0.044 C 
ATOM      2  C   UNL     1      -0.438   2.590   1.516  0.00  0.00    +0.005 C 
ATOM      3  C   UNL     1      -1.154   3.532   0.557  0.00  0.00    +0.001 C 
ATOM      4  C   UNL     1      -2.668   3.424   0.746  0.00  0.00    +0.011 C 
ATOM      5  C   UNL     1      -3.119   2.000   0.433  0.00  0.00    -0.004 C 
ATOM      6  C   UNL     1      -2.379   1.004   1.307  0.00  0.00    +0.004 C 
ATOM      7  C   UNL     1      -2.865  -0.408   0.989  0.00  0.00    +0.009 C 
ATOM      8  C   UNL     1      -4.300  -0.540   1.507  0.00  0.00    +0.036 C 
ATOM      9  C   UNL     1      -5.124   0.682   1.208  0.00  0.00    -0.043 A 
ATOM     10  C   UNL     1      -4.602   1.855   0.708  0.00  0.00    -0.038 A 
ATOM     11  C   UNL     1      -5.432   2.928   0.432  0.00  0.00    +0.005 A 
ATOM     12  C   UNL     1      -6.789   2.842   0.675  0.00  0.00    +0.004 A 
ATOM     13  C   UNL     1      -7.318   1.673   1.189  0.00  0.00    -0.045 A 
ATOM     14  C   UNL     1      -6.492   0.601   1.450  0.00  0.00    +0.007 A 
ATOM     15  C   UNL     1      -2.918   1.731  -1.058  0.00  0.00    +0.016 C 
ATOM     16  C   UNL     1      -0.215   0.548   0.078  0.00  0.00    +0.009 C 
ENDROOT
BRANCH  13  17
ATOM     17  C   UNL     1      -8.797   1.571   1.463  0.00  0.00    +0.013 C 
ATOM     18  C   UNL     1      -9.203   2.640   2.480  0.00  0.00    +0.012 C 
ATOM     19  C   UNL     1      -9.572   1.786   0.161  0.00  0.00    +0.012 C 
ENDBRANCH  13  17
BRANCH   1  20
ATOM     20  C   UNL     1      -0.333   0.348   2.544  0.00  0.00    -0.073 C 
BRANCH  20  21
ATOM     21  N   UNL     1       1.133   0.500   2.606  0.00  0.00    +0.394 N 
ATOM     22  H   UNL     1       1.549   0.134   1.742  0.00  0.00    -0.083 HD
ATOM     23  H   UNL     1       1.366   1.496   2.703  0.00  0.00    -0.083 HD
BRANCH  21  30
ATOM     24  C   UNL     1       3.021  -2.065   2.301  0.00  0.00    +0.039 C 
ATOM     25  C   UNL     1       2.925  -0.988   3.350  0.00  0.00    -0.062 C 
ATOM     26  C   UNL     1       3.922  -0.514   4.091  0.00  0.00    +0.010 C 
ATOM     27  C   UNL     1       3.420   0.526   4.994  0.00  0.00    +0.241 C 
ATOM     28  O   UNL     1       4.098   1.143   5.793  0.00  0.00    -0.270 OA
ATOM     29  N   UNL     1       2.097   0.697   4.809  0.00  0.00    -0.305 N 
ATOM     30  C   UNL     1       1.677  -0.241   3.760  0.00  0.00    +0.046 C 
ATOM     31  C   UNL     1       5.354  -0.978   4.014  0.00  0.00    +0.049 C 
BRANCH  29  32
ATOM     32  C   UNL     1       1.237   1.644   5.522  0.00  0.00    +0.138 C 
BRANCH  32  33
ATOM     33  C   UNL     1       0.667   0.973   6.774  0.00  0.00    +0.136 C 
ATOM     34  C   UNL     1      -0.342   1.909   7.475  0.00  0.00    +0.035 C 
ATOM     35  C   UNL     1      -0.100   1.662   8.980  0.00  0.00    +0.031 C 
ATOM     36  C   UNL     1       1.027   0.605   9.011  0.00  0.00    +0.160 C 
ATOM     37  O   UNL     1       1.711   0.758   7.748  0.00  0.00    -0.375 OA
ENDBRANCH  32  33
ENDBRANCH  29  32
ENDBRANCH  21  30
ENDBRANCH  20  21
ENDBRANCH   1  20
TORSDOF 6
