REMARK  Name = ZINC39696291
REMARK  9 active torsions:
REMARK  status: ('A' for Active; 'I' for Inactive)
REMARK    1  A    between atoms: C_1  and  C_2
REMARK    2  A    between atoms: C_2  and  C_3
REMARK    3  A    between atoms: C_6  and  C_9
REMARK    4  A    between atoms: C_9  and  C_11
REMARK    5  A    between atoms: C_9  and  N_12
REMARK    6  A    between atoms: C_13  and  C_15
REMARK    7  A    between atoms: C_26  and  C_28
REMARK    8  A    between atoms: C_35  and  C_39
REMARK    9  A    between atoms: N_37  and  C_38
REMARK                            x       y       z     vdW  Elec       q    Type
REMARK                         _______ _______ _______ _____ _____    ______ ____
ROOT
ATOM      1  C   UNL     1      -8.582  -0.774  -2.508  0.00  0.00    +0.100 C 
ATOM      2  C   UNL     1      -8.123   0.693  -2.355  0.00  0.00    +0.121 C 
ATOM      3  N   UNL     1      -9.368   1.489  -2.473  0.00  0.00    -0.296 N 
ATOM      4  C   UNL     1     -10.384   0.696  -1.740  0.00  0.00    +0.115 C 
ATOM      5  C   UNL     1     -10.066  -0.768  -2.103  0.00  0.00    -0.004 C 
ATOM      6  C   UNL     1     -10.287  -1.671  -0.893  0.00  0.00    -0.010 C 
ATOM      7  C   UNL     1     -11.777  -1.695  -0.545  0.00  0.00    -0.082 C 
ATOM      8  N   UNL     1     -12.543  -2.190  -1.695  0.00  0.00    +0.379 N 
ATOM      9  C   UNL     1     -12.399  -1.266  -2.827  0.00  0.00    -0.082 C 
ATOM     10  C   UNL     1     -10.934  -1.224  -3.271  0.00  0.00    -0.010 C 
ATOM     11  C   UNL     1      -9.538   2.667  -3.105  0.00  0.00    +0.250 C 
ATOM     12  O   UNL     1     -10.605   3.247  -3.033  0.00  0.00    -0.270 OA
ATOM     13  H   UNL     1     -12.198  -3.100  -1.960  0.00  0.00    -0.086 HD
ATOM     14  H   UNL     1     -13.517  -2.263  -1.444  0.00  0.00    -0.086 HD
ENDROOT
BRANCH  11  15
ATOM     15  C   UNL     1      -8.430   3.254  -3.884  0.00  0.00    +0.074 A 
ATOM     16  C   UNL     1      -7.104   3.106  -3.454  0.00  0.00    +0.127 A 
ATOM     17  N   UNL     1      -6.105   3.619  -4.132  0.00  0.00    -0.235 NA
ATOM     18  C   UNL     1      -6.297   4.303  -5.256  0.00  0.00    +0.160 A 
ATOM     19  C   UNL     1      -7.601   4.497  -5.756  0.00  0.00    +0.060 A 
ATOM     20  C   UNL     1      -8.689   3.959  -5.062  0.00  0.00    +0.067 A 
ATOM     21 CL   UNL     1     -10.312   4.166  -5.643  0.00  0.00    -0.082 Cl
ATOM     22  C   UNL     1      -7.462   5.275  -6.983  0.00  0.00    +0.071 A 
ATOM     23  N   UNL     1      -6.193   5.503  -7.163  0.00  0.00    -0.174 NA
ATOM     24  N   UNL     1      -5.449   4.925  -6.129  0.00  0.00    -0.249 N 
ATOM     25  C   UNL     1      -3.991   4.979  -6.002  0.00  0.00    +0.174 C 
ATOM     26  C   UNL     1      -8.584   5.731  -7.879  0.00  0.00    +0.068 C 
ENDBRANCH  11  15
BRANCH   1  28
ATOM     27  N   UNL     1      -7.573  -2.956  -1.927  0.00  0.00    -0.308 N 
ATOM     28  C   UNL     1      -7.791  -1.670  -1.590  0.00  0.00    +0.219 C 
ATOM     29  O   UNL     1      -7.350  -1.233  -0.548  0.00  0.00    -0.275 OA
ATOM     30  H   UNL     1      -7.925  -3.306  -2.760  0.00  0.00    +0.149 HD
BRANCH  27  31
ATOM     31  C   UNL     1      -6.803  -3.827  -1.034  0.00  0.00    +0.100 C 
ATOM     32  C   UNL     1      -7.733  -4.416   0.029  0.00  0.00    +0.033 C 
BRANCH  31  36
ATOM     33  C   UNL     1      -5.046  -6.994  -3.299  0.00  0.00    -0.048 A 
ATOM     34  C   UNL     1      -4.327  -6.387  -2.287  0.00  0.00    +0.004 A 
ATOM     35  C   UNL     1      -4.896  -5.362  -1.554  0.00  0.00    +0.006 A 
ATOM     36  C   UNL     1      -6.183  -4.944  -1.834  0.00  0.00    -0.027 A 
ATOM     37  C   UNL     1      -6.902  -5.550  -2.847  0.00  0.00    +0.006 A 
ATOM     38  C   UNL     1      -6.332  -6.572  -3.582  0.00  0.00    +0.004 A 
BRANCH  33  40
ATOM     39  C   UNL     1      -3.694  -7.528  -5.308  0.00  0.00    +0.009 C 
ATOM     40  C   UNL     1      -4.426  -8.111  -4.098  0.00  0.00    +0.032 C 
ENDBRANCH  33  40
ENDBRANCH  31  36
ENDBRANCH  27  31
ENDBRANCH   1  28
TORSDOF 5
