REMARK  Name = ZINC36585743
REMARK  9 active torsions:
REMARK  status: ('A' for Active; 'I' for Inactive)
REMARK    1  A    between atoms: C_1  and  C_2
REMARK    2  A    between atoms: C_2  and  C_3
REMARK    3  A    between atoms: C_3  and  C_5
REMARK    4  A    between atoms: C_3  and  C_6
REMARK    5  A    between atoms: C_6  and  C_8
REMARK    6  A    between atoms: C_6  and  N_12
REMARK    7  A    between atoms: C_8  and  O_10
REMARK    8  A    between atoms: O_10  and  C_11
REMARK    9  A    between atoms: C_24  and  C_26
REMARK                            x       y       z     vdW  Elec       q    Type
REMARK                         _______ _______ _______ _____ _____    ______ ____
ROOT
ATOM      1  N   UNL     1      -2.618   0.994   2.333  0.00  0.00    -0.286 N 
ATOM      2  C   UNL     1      -1.620   1.770   2.801  0.00  0.00    +0.304 C 
ATOM      3  O   UNL     1      -0.467   1.520   2.507  0.00  0.00    -0.253 OA
ATOM      4  N   UNL     1      -1.901   2.823   3.594  0.00  0.00    -0.273 N 
ATOM      5  C   UNL     1      -3.274   3.073   4.057  0.00  0.00    +0.116 C 
ATOM      6  C   UNL     1      -3.323   2.930   5.583  0.00  0.00    +0.074 C 
ATOM      7  C   UNL     1      -2.143   3.655   6.177  0.00  0.00    +0.040 A 
ATOM      8  C   UNL     1      -1.037   4.018   5.492  0.00  0.00    +0.062 A 
ATOM      9  N   UNL     1      -0.208   4.631   6.339  0.00  0.00    -0.348 N 
ATOM     10  C   UNL     1      -0.756   4.667   7.526  0.00  0.00    +0.171 A 
ATOM     11  N   UNL     1      -1.967   4.067   7.463  0.00  0.00    -0.349 N 
ATOM     12  H   UNL     1      -2.592   3.951   8.196  0.00  0.00    +0.166 HD
ATOM     13  C   UNL     1      -0.837   3.749   4.024  0.00  0.00    +0.156 C 
ATOM     14  H   UNL     1      -3.542   1.235   2.507  0.00  0.00    +0.151 HD
ATOM     15  H   UNL     1       0.663   4.993   6.111  0.00  0.00    +0.167 HD
ENDROOT
BRANCH  13  16
ATOM     16  C   UNL     1      -0.937   5.039   3.252  0.00  0.00    -0.020 A 
ATOM     17  C   UNL     1      -2.057   5.839   3.385  0.00  0.00    +0.006 A 
ATOM     18  C   UNL     1      -2.150   7.022   2.677  0.00  0.00    +0.002 A 
ATOM     19  C   UNL     1      -1.123   7.407   1.836  0.00  0.00    +0.020 A 
ATOM     20  C   UNL     1      -0.002   6.608   1.703  0.00  0.00    +0.041 A 
ATOM     21  C   UNL     1       0.093   5.426   2.416  0.00  0.00    +0.025 A 
ATOM     22 CL   UNL     1       1.289   7.090   0.646  0.00  0.00    -0.084 Cl
ENDBRANCH  13  16
BRANCH   1  23
ATOM     23  C   UNL     1      -2.308  -0.212   1.562  0.00  0.00    +0.186 C 
BRANCH  23  24
ATOM     24  C   UNL     1      -2.090   0.163   0.094  0.00  0.00    +0.017 C 
ATOM     25  C   UNL     1      -3.361   0.810  -0.461  0.00  0.00    +0.010 C 
BRANCH  24  27
ATOM     26  C   UNL     1      -0.445  -1.691  -0.217  0.00  0.00    +0.004 C 
ATOM     27  C   UNL     1      -1.765  -1.097  -0.711  0.00  0.00    +0.002 C 
ENDBRANCH  24  27
ENDBRANCH  23  24
BRANCH  23  28
ATOM     28  C   UNL     1      -3.455  -1.184   1.667  0.00  0.00    +0.328 C 
ATOM     29  O   UNL     1      -4.552  -0.792   1.988  0.00  0.00    -0.249 OA
BRANCH  28  30
ATOM     30  O   UNL     1      -3.258  -2.485   1.403  0.00  0.00    -0.467 OA
ATOM     31  C   UNL     1      -4.389  -3.350   1.522  0.00  0.00    +0.280 C 
ENDBRANCH  28  30
ENDBRANCH  23  28
ENDBRANCH   1  23
TORSDOF 6
