REMARK  Name = ZINC38981142
REMARK  9 active torsions:
REMARK  status: ('A' for Active; 'I' for Inactive)
REMARK    1  A    between atoms: C_1  and  C_2
REMARK    2  A    between atoms: C_2  and  C_3
REMARK    3  A    between atoms: C_3  and  C_5
REMARK    4  A    between atoms: C_3  and  C_6
REMARK    5  A    between atoms: C_9  and  N_12
REMARK    6  A    between atoms: N_12  and  C_13
REMARK    7  A    between atoms: N_16  and  S_17
REMARK    8  A    between atoms: S_17  and  C_20
REMARK    9  A    between atoms: C_24  and  C_26
REMARK                            x       y       z     vdW  Elec       q    Type
REMARK                         _______ _______ _______ _____ _____    ______ ____
ROOT
ATOM      1  C   UNL     1       2.522  -6.771  -1.194  0.00  0.00    +0.237 C 
ATOM      2  C   UNL     1       2.443  -7.783  -2.314  0.00  0.00    +0.192 C 
ATOM      3  N   UNL     1       2.094  -7.416  -3.512  0.00  0.00    -0.110 NA
ATOM      4  N   UNL     1       2.740  -9.066  -2.055  0.00  0.00    -0.226 NA
ATOM      5  C   UNL     1       3.097  -9.463  -0.851  0.00  0.00    +0.089 A 
ATOM      6  C   UNL     1       3.404 -10.827  -0.613  0.00  0.00    +0.030 A 
ATOM      7  C   UNL     1       3.770 -11.239   0.620  0.00  0.00    +0.002 A 
ATOM      8  C   UNL     1       3.868 -10.365   1.716  0.00  0.00    +0.002 A 
ATOM      9  C   UNL     1       3.597  -9.046   1.599  0.00  0.00    +0.027 A 
ATOM     10  C   UNL     1       3.192  -8.517   0.288  0.00  0.00    +0.063 A 
ATOM     11  N   UNL     1       2.924  -7.251   0.138  0.00  0.00    -0.359 N 
ATOM     12  H   UNL     1       2.988  -6.638   0.887  0.00  0.00    +0.162 HD
ENDROOT
BRANCH   3  13
ATOM     13  S   UNL     1       2.011  -8.534  -4.730  0.00  0.00    +0.100 S 
ATOM     14  O   UNL     1       3.340  -8.985  -4.958  0.00  0.00    -0.146 OA
ATOM     15  O   UNL     1       0.953  -9.422  -4.396  0.00  0.00    -0.146 OA
BRANCH  13  16
ATOM     16  C   UNL     1       1.511  -7.681  -6.188  0.00  0.00    +0.113 A 
ATOM     17  C   UNL     1       0.168  -7.552  -6.487  0.00  0.00    +0.029 A 
ATOM     18  C   UNL     1      -0.225  -6.882  -7.630  0.00  0.00    +0.002 A 
ATOM     19  C   UNL     1       0.726  -6.342  -8.476  0.00  0.00    +0.003 A 
ATOM     20  C   UNL     1       2.070  -6.470  -8.177  0.00  0.00    -0.049 A 
ATOM     21  C   UNL     1       2.462  -7.136  -7.030  0.00  0.00    +0.032 A 
ATOM     22  C   UNL     1       3.106  -5.881  -9.098  0.00  0.00    +0.044 C 
ENDBRANCH  13  16
ENDBRANCH   3  13
BRANCH   1  23
ATOM     23  N   UNL     1       1.204  -6.144  -1.064  0.00  0.00    -0.318 N 
ATOM     24  H   UNL     1       0.410  -6.696  -0.981  0.00  0.00    +0.148 HD
BRANCH  23  28
ATOM     25  C   UNL     1       0.864  -1.994  -1.053  0.00  0.00    -0.044 A 
ATOM     26  C   UNL     1       2.114  -2.584  -1.007  0.00  0.00    +0.006 A 
ATOM     27  C   UNL     1       2.230  -3.960  -1.010  0.00  0.00    +0.023 A 
ATOM     28  C   UNL     1       1.090  -4.752  -1.060  0.00  0.00    +0.029 A 
ATOM     29  C   UNL     1      -0.164  -4.156  -1.107  0.00  0.00    +0.023 A 
ATOM     30  C   UNL     1      -0.273  -2.779  -1.098  0.00  0.00    +0.006 A 
BRANCH  25  31
ATOM     31  C   UNL     1       0.741  -0.492  -1.050  0.00  0.00    +0.016 C 
ATOM     32  C   UNL     1       1.374   0.068   0.226  0.00  0.00    +0.012 C 
BRANCH  31  34
ATOM     33  C   UNL     1       1.233   1.593  -2.335  0.00  0.00    +0.004 C 
ATOM     34  C   UNL     1       1.462   0.082  -2.271  0.00  0.00    +0.004 C 
ENDBRANCH  31  34
ENDBRANCH  25  31
ENDBRANCH  23  28
ENDBRANCH   1  23
TORSDOF 6
