REMARK  Name = ZINC06751352
REMARK  4 active torsions:
REMARK  status: ('A' for Active; 'I' for Inactive)
REMARK    1  A    between atoms: C_1  and  C_2
REMARK    2  A    between atoms: C_9  and  O_18
REMARK    3  A    between atoms: C_20  and  C_21
REMARK    4  A    between atoms: C_26  and  C_29
REMARK                            x       y       z     vdW  Elec       q    Type
REMARK                         _______ _______ _______ _____ _____    ______ ____
ROOT
ATOM      1  C   UNL     1       3.705   3.967   0.172  0.00  0.00    +0.048 C 
ATOM      2  C   UNL     1       4.392   2.833  -0.543  0.00  0.00    +0.008 A 
ATOM      3  C   UNL     1       3.800   1.554  -0.937  0.00  0.00    +0.033 A 
ATOM      4  C   UNL     1       4.829   0.835  -1.569  0.00  0.00    +0.137 A 
ATOM      5  C   UNL     1       4.567  -0.439  -2.059  0.00  0.00    +0.050 A 
ATOM      6  C   UNL     1       3.308  -0.979  -1.922  0.00  0.00    +0.049 A 
ATOM      7  C   UNL     1       2.287  -0.266  -1.296  0.00  0.00    +0.128 A 
ATOM      8  C   UNL     1       2.519   0.999  -0.801  0.00  0.00    +0.034 A 
ATOM      9  C   UNL     1       1.449   1.807  -0.126  0.00  0.00    +0.152 C 
ATOM     10  C   UNL     1       0.093   1.116  -0.155  0.00  0.00    +0.084 C 
ATOM     11  C   UNL     1       0.260  -0.398  -0.084  0.00  0.00    +0.113 C 
ATOM     12  O   UNL     1       1.058  -0.842  -1.180  0.00  0.00    -0.485 OA
ATOM     13  C   UNL     1      -1.118  -1.083  -0.129  0.00  0.00    +0.048 C 
ATOM     14  C   UNL     1      -0.970  -2.292   0.829  0.00  0.00    +0.004 C 
ATOM     15  C   UNL     1      -0.088  -1.721   1.968  0.00  0.00    +0.004 C 
ATOM     16  C   UNL     1       0.916  -0.800   1.244  0.00  0.00    +0.048 C 
ATOM     17  O   UNL     1       5.934   1.607  -1.556  0.00  0.00    -0.450 OA
ATOM     18  C   UNL     1       5.686   2.789  -0.953  0.00  0.00    +0.194 A 
ENDROOT
BRANCH  18  19
ATOM     19  C   UNL     1       6.669   3.865  -0.767  0.00  0.00    +0.282 C 
ATOM     20  O   UNL     1       6.391   4.831  -0.080  0.00  0.00    -0.267 OA
ATOM     21  N   UNL     1       7.878   3.784  -1.357  0.00  0.00    -0.295 N 
ATOM     22  C   UNL     1       8.921   4.778  -1.068  0.00  0.00    +0.108 C 
ATOM     23  C   UNL     1       9.423   5.368  -2.385  0.00  0.00    +0.022 C 
ATOM     24  C   UNL     1       9.874   4.235  -3.310  0.00  0.00    -0.011 C 
ATOM     25  C   UNL     1       8.686   3.318  -3.611  0.00  0.00    +0.022 C 
ATOM     26  C   UNL     1       8.177   2.702  -2.304  0.00  0.00    +0.108 C 
ATOM     27  C   UNL     1      10.407   4.825  -4.617  0.00  0.00    +0.007 C 
ENDBRANCH  18  19
BRANCH   9  28
ATOM     28  O   UNL     1       1.338   3.070  -0.784  0.00  0.00    -0.387 OA
ATOM     29  H   UNL     1       1.137   3.006  -1.728  0.00  0.00    +0.210 HD
ENDBRANCH   9  28
TORSDOF 2
