REMARK  Name = ZINC41005216
REMARK  6 active torsions:
REMARK  status: ('A' for Active; 'I' for Inactive)
REMARK    1  A    between atoms: C_7  and  C_11
REMARK    2  A    between atoms: C_11  and  C_13
REMARK    3  A    between atoms: C_11  and  C_29
REMARK    4  A    between atoms: C_13  and  N_14
REMARK    5  A    between atoms: C_15  and  C_17
REMARK    6  A    between atoms: C_17  and  C_18
REMARK                            x       y       z     vdW  Elec       q    Type
REMARK                         _______ _______ _______ _____ _____    ______ ____
ROOT
ATOM      1  C   UNL     1       0.666  -3.275  -0.021  0.00  0.00    +0.068 C 
ENDROOT
BRANCH   1   8
ATOM      2  C   UNL     1      -0.017   1.362   0.009  0.00  0.00    +0.001 A 
ATOM      3  C   UNL     1       1.170   2.083   0.002  0.00  0.00    +0.002 A 
ATOM      4  C   UNL     1       2.386   1.436  -0.013  0.00  0.00    +0.026 A 
ATOM      5  C   UNL     1       2.428   0.046  -0.021  0.00  0.00    +0.047 A 
ATOM      6  C   UNL     1       1.223  -0.681  -0.013  0.00  0.00    +0.003 A 
ATOM      7  C   UNL     1       0.002  -0.004   0.002  0.00  0.00    +0.010 A 
ATOM      8  C   UNL     1       1.604  -2.095  -0.025  0.00  0.00    -0.013 A 
ATOM      9  C   UNL     1       2.945  -2.141  -0.038  0.00  0.00    +0.088 A 
ATOM     10  N   UNL     1       3.455  -0.871  -0.036  0.00  0.00    -0.360 N 
ATOM     11  H   UNL     1       4.399  -0.650  -0.044  0.00  0.00    +0.165 HD
ENDBRANCH   1   8
BRANCH   1  12
ATOM     12  C   UNL     1       0.923  -4.117   1.202  0.00  0.00    -0.038 A 
ATOM     13  C   UNL     1       2.171  -4.675   1.408  0.00  0.00    +0.005 A 
ATOM     14  C   UNL     1       2.407  -5.447   2.530  0.00  0.00    +0.015 A 
ATOM     15  C   UNL     1       1.394  -5.660   3.448  0.00  0.00    +0.018 A 
ATOM     16  C   UNL     1       0.145  -5.102   3.241  0.00  0.00    +0.015 A 
ATOM     17  C   UNL     1      -0.088  -4.326   2.122  0.00  0.00    +0.005 A 
ATOM     18 BR   UNL     1       1.716  -6.716   4.983  0.00  0.00    -0.050 Br
ENDBRANCH   1  12
BRANCH   1  19
ATOM     19  C   UNL     1       0.901  -4.117  -1.277  0.00  0.00    +0.117 C 
BRANCH  19  20
ATOM     20  N   UNL     1      -0.088  -5.196  -1.334  0.00  0.00    -0.314 N 
ATOM     21  C   UNL     1      -0.075  -6.069  -2.361  0.00  0.00    +0.217 C 
ATOM     22  O   UNL     1       0.757  -5.961  -3.237  0.00  0.00    -0.275 OA
ATOM     23  H   UNL     1      -0.753  -5.281  -0.633  0.00  0.00    +0.149 HD
BRANCH  21  24
ATOM     24  C   UNL     1      -1.093  -7.178  -2.420  0.00  0.00    +0.131 C 
BRANCH  24  25
ATOM     25  C   UNL     1      -0.861  -8.007  -3.657  0.00  0.00    -0.035 A 
ATOM     26  C   UNL     1      -1.492  -7.670  -4.840  0.00  0.00    +0.008 A 
ATOM     27  C   UNL     1      -1.285  -8.426  -5.980  0.00  0.00    +0.050 A 
ATOM     28  C   UNL     1      -0.441  -9.522  -5.932  0.00  0.00    +0.162 A 
ATOM     29  C   UNL     1       0.193  -9.861  -4.745  0.00  0.00    +0.162 A 
ATOM     30  C   UNL     1      -0.014  -9.099  -3.607  0.00  0.00    +0.053 A 
ATOM     31  O   UNL     1       1.023 -10.943  -4.708  0.00  0.00    -0.488 OA
ATOM     32  C   UNL     1       0.396 -12.218  -4.859  0.00  0.00    +0.232 C 
ATOM     33  C   UNL     1       0.204 -12.554  -6.329  0.00  0.00    +0.082 C 
ATOM     34  C   UNL     1      -0.758 -11.602  -7.021  0.00  0.00    +0.232 C 
ATOM     35  O   UNL     1      -0.226 -10.276  -7.049  0.00  0.00    -0.488 OA
ENDBRANCH  24  25
ENDBRANCH  21  24
ENDBRANCH  19  20
ENDBRANCH   1  19
TORSDOF 6
