REMARK  Name = ZINC11917941
REMARK  7 active torsions:
REMARK  status: ('A' for Active; 'I' for Inactive)
REMARK    1  A    between atoms: C_1  and  C_2
REMARK    2  A    between atoms: C_2  and  C_3
REMARK    3  A    between atoms: C_2  and  C_4
REMARK    4  A    between atoms: C_4  and  C_5
REMARK    5  A    between atoms: C_5  and  C_7
REMARK    6  A    between atoms: C_5  and  N_23
REMARK    7  A    between atoms: N_9  and  C_10
REMARK                            x       y       z     vdW  Elec       q    Type
REMARK                         _______ _______ _______ _____ _____    ______ ____
ROOT
ATOM      1  C   UNL     1      -3.143  -1.871   1.089  0.00  0.00    +0.238 C 
ATOM      2  O   UNL     1      -3.544  -2.061   2.218  0.00  0.00    -0.273 OA
ATOM      3  N   UNL     1      -4.005  -1.900   0.053  0.00  0.00    -0.284 N 
ATOM      4  H   UNL     1      -3.676  -1.813  -0.855  0.00  0.00    +0.155 HD
ENDROOT
BRANCH   3   5
ATOM      5  C   UNL     1      -5.378  -2.055   0.289  0.00  0.00    +0.037 A 
ATOM      6  C   UNL     1      -6.298  -1.349  -0.475  0.00  0.00    +0.027 A 
ATOM      7  C   UNL     1      -7.651  -1.501  -0.244  0.00  0.00    +0.051 A 
ATOM      8  C   UNL     1      -8.095  -2.358   0.750  0.00  0.00    +0.167 A 
ATOM      9  C   UNL     1      -7.174  -3.067   1.518  0.00  0.00    +0.169 A 
ATOM     10  C   UNL     1      -5.818  -2.919   1.282  0.00  0.00    +0.073 A 
ATOM     11  O   UNL     1      -7.856  -3.833   2.423  0.00  0.00    -0.447 OA
ATOM     12  C   UNL     1      -9.178  -3.286   2.455  0.00  0.00    +0.254 C 
ATOM     13  O   UNL     1      -9.356  -2.678   1.172  0.00  0.00    -0.448 OA
ATOM     14  C   UNL     1     -10.223  -4.383   2.697  0.00  0.00    +0.093 C 
ATOM     15  C   UNL     1     -10.520  -4.290   4.216  0.00  0.00    +0.008 C 
ATOM     16  C   UNL     1     -10.470  -2.764   4.484  0.00  0.00    +0.008 C 
ATOM     17  C   UNL     1      -9.324  -2.258   3.580  0.00  0.00    +0.093 C 
ENDBRANCH   3   5
BRANCH   1  18
ATOM     18  C   UNL     1      -1.681  -1.602   0.844  0.00  0.00    +0.170 C 
BRANCH  18  19
ATOM     19  N   UNL     1      -0.960  -1.623   2.119  0.00  0.00    -0.230 N 
ATOM     20  C   UNL     1      -0.041  -2.558   2.429  0.00  0.00    +0.227 C 
ATOM     21  O   UNL     1       0.457  -3.357   1.666  0.00  0.00    -0.275 OA
ATOM     22  C   UNL     1       0.258  -2.422   3.932  0.00  0.00    +0.091 C 
ATOM     23  C   UNL     1      -0.778  -3.316   4.619  0.00  0.00    +0.040 C 
ATOM     24  C   UNL     1      -1.241  -2.782   5.930  0.00  0.00    -0.030 C 
ATOM     25  C   UNL     1      -1.097  -1.560   6.323  0.00  0.00    -0.030 C 
ATOM     26  C   UNL     1      -0.390  -0.516   5.516  0.00  0.00    +0.040 C 
ATOM     27  C   UNL     1      -0.074  -0.931   4.109  0.00  0.00    +0.091 C 
ATOM     28  C   UNL     1      -1.153  -0.702   3.091  0.00  0.00    +0.227 C 
ATOM     29  O   UNL     1      -2.024   0.139   3.132  0.00  0.00    -0.275 OA
ENDBRANCH  18  19
BRANCH  18  30
ATOM     30  C   UNL     1      -1.517  -0.230   0.188  0.00  0.00    +0.035 C 
BRANCH  30  32
ATOM     31  C   UNL     1       0.071   1.244  -1.056  0.00  0.00    +0.007 C 
ATOM     32  C   UNL     1      -0.055  -0.029  -0.218  0.00  0.00    -0.015 C 
ATOM     33  C   UNL     1       0.810   0.099   1.038  0.00  0.00    +0.007 C 
ENDBRANCH  30  32
ENDBRANCH  18  30
ENDBRANCH   1  18
TORSDOF 5
