REMARK  Name = ZINC09184757
REMARK  13 active torsions:
REMARK  status: ('A' for Active; 'I' for Inactive)
REMARK    1  A    between atoms: C_1  and  C_2
REMARK    2  A    between atoms: C_2  and  C_3
REMARK    3  A    between atoms: C_3  and  N_4
REMARK    4  A    between atoms: C_5  and  C_23
REMARK    5  A    between atoms: C_8  and  C_15
REMARK    6  A    between atoms: C_17  and  C_22
REMARK    7  A    between atoms: C_20  and  O_21
REMARK    8  A    between atoms: C_26  and  O_32
REMARK    9  A    between atoms: C_27  and  O_29
REMARK   10  A    between atoms: O_29  and  C_30
REMARK   11  A    between atoms: C_30  and  C_31
REMARK   12  A    between atoms: O_32  and  C_33
REMARK   13  A    between atoms: C_33  and  C_34
REMARK                            x       y       z     vdW  Elec       q    Type
REMARK                         _______ _______ _______ _____ _____    ______ ____
ROOT
ATOM      1  N   UNL     1      -1.250  -2.009  -0.017  0.00  0.00    -0.285 N 
ATOM      2  C   UNL     1      -1.246  -2.886  -1.195  0.00  0.00    +0.141 C 
ATOM      3  C   UNL     1      -1.325  -4.293  -0.667  0.00  0.00    +0.035 A 
ATOM      4  C   UNL     1      -1.373  -5.660  -0.957  0.00  0.00    +0.102 A 
ATOM      5  N   UNL     1      -1.441  -6.305   0.191  0.00  0.00    -0.173 NA
ATOM      6  N   UNL     1      -1.440  -5.480   1.177  0.00  0.00    -0.272 N 
ATOM      7  H   UNL     1      -1.484  -5.731   2.113  0.00  0.00    +0.189 HD
ATOM      8  C   UNL     1      -1.369  -4.198   0.711  0.00  0.00    +0.126 A 
ATOM      9  C   UNL     1      -1.316  -2.780   1.083  0.00  0.00    +0.265 C 
ATOM     10  O   UNL     1      -1.333  -2.361   2.225  0.00  0.00    -0.268 OA
ENDROOT
BRANCH   4  11
ATOM     11  C   UNL     1      -1.353  -6.273  -2.309  0.00  0.00    +0.044 A 
ATOM     12  C   UNL     1      -0.423  -5.849  -3.255  0.00  0.00    +0.017 A 
ATOM     13  C   UNL     1      -0.408  -6.422  -4.510  0.00  0.00    -0.050 A 
ATOM     14  C   UNL     1      -1.314  -7.417  -4.833  0.00  0.00    +0.007 A 
ATOM     15  C   UNL     1      -2.241  -7.844  -3.902  0.00  0.00    +0.046 A 
ATOM     16  C   UNL     1      -2.263  -7.282  -2.636  0.00  0.00    +0.126 A 
ATOM     17  C   UNL     1       0.599  -5.963  -5.533  0.00  0.00    +0.044 C 
BRANCH  16  18
ATOM     18  O   UNL     1      -3.171  -7.705  -1.718  0.00  0.00    -0.506 OA
ATOM     19  H   UNL     1      -4.032  -7.271  -1.787  0.00  0.00    +0.292 HD
ENDBRANCH  16  18
ENDBRANCH   4  11
BRANCH   2  20
ATOM     20  C   UNL     1      -2.439  -2.590  -2.066  0.00  0.00    -0.019 A 
ATOM     21  C   UNL     1      -3.690  -2.442  -1.495  0.00  0.00    +0.009 A 
ATOM     22  C   UNL     1      -4.788  -2.170  -2.290  0.00  0.00    +0.050 A 
ATOM     23  C   UNL     1      -4.636  -2.046  -3.662  0.00  0.00    +0.162 A 
ATOM     24  C   UNL     1      -3.378  -2.195  -4.236  0.00  0.00    +0.162 A 
ATOM     25  C   UNL     1      -2.281  -2.462  -3.433  0.00  0.00    +0.055 A 
BRANCH  24  26
ATOM     26  O   UNL     1      -3.224  -2.073  -5.582  0.00  0.00    -0.489 OA
BRANCH  26  27
ATOM     27  C   UNL     1      -1.903  -2.239  -6.101  0.00  0.00    +0.226 C 
ATOM     28  C   UNL     1      -1.928  -2.068  -7.622  0.00  0.00    +0.048 C 
ENDBRANCH  26  27
ENDBRANCH  24  26
BRANCH  23  29
ATOM     29  O   UNL     1      -5.716  -1.779  -4.445  0.00  0.00    -0.489 OA
BRANCH  29  30
ATOM     30  C   UNL     1      -6.976  -1.639  -3.787  0.00  0.00    +0.226 C 
ATOM     31  C   UNL     1      -8.063  -1.344  -4.823  0.00  0.00    +0.048 C 
ENDBRANCH  29  30
ENDBRANCH  23  29
ENDBRANCH   2  20
BRANCH   1  32
ATOM     32  C   UNL     1      -1.186  -0.545  -0.037  0.00  0.00    +0.109 C 
BRANCH  32  34
ATOM     33  C   UNL     1       0.344   1.430  -0.020  0.00  0.00    +0.005 C 
ATOM     34  C   UNL     1       0.277  -0.099   0.000  0.00  0.00    +0.016 C 
ENDBRANCH  32  34
ENDBRANCH   1  32
TORSDOF 9
