REMARK  Name = ZINC08870633
REMARK  7 active torsions:
REMARK  status: ('A' for Active; 'I' for Inactive)
REMARK    1  A    between atoms: C_1  and  C_2
REMARK    2  A    between atoms: C_2  and  C_3
REMARK    3  A    between atoms: C_3  and  C_4
REMARK    4  A    between atoms: C_4  and  C_5
REMARK    5  A    between atoms: C_5  and  C_7
REMARK    6  A    between atoms: C_26  and  N_27
REMARK    7  A    between atoms: C_28  and  C_30
REMARK                            x       y       z     vdW  Elec       q    Type
REMARK                         _______ _______ _______ _____ _____    ______ ____
ROOT
ATOM      1  C   UNL     1       1.658  -4.030   2.654  0.00  0.00    +0.172 C 
ATOM      2  C   UNL     1       2.926  -4.238   3.455  0.00  0.00    -0.011 C 
ATOM      3  C   UNL     1       2.803  -4.879   4.679  0.00  0.00    +0.012 A 
ATOM      4  C   UNL     1       3.979  -5.119   5.517  0.00  0.00    +0.032 A 
ATOM      5  C   UNL     1       3.821  -5.759   6.730  0.00  0.00    +0.012 A 
ATOM      6  C   UNL     1       2.556  -6.172   7.155  0.00  0.00    +0.003 A 
ATOM      7  C   UNL     1       1.434  -5.974   6.418  0.00  0.00    +0.024 A 
ATOM      8  C   UNL     1       1.492  -5.329   5.160  0.00  0.00    +0.042 A 
ATOM      9  N   UNL     1       0.386  -5.139   4.445  0.00  0.00    -0.284 N 
ATOM     10  C   UNL     1       0.371  -4.542   3.264  0.00  0.00    +0.232 C 
ATOM     11  O   UNL     1      -0.680  -4.404   2.668  0.00  0.00    -0.274 OA
ATOM     12  C   UNL     1       5.297  -4.666   5.032  0.00  0.00    +0.196 C 
ATOM     13  O   UNL     1       6.303  -4.843   5.693  0.00  0.00    -0.287 OA
ATOM     14  C   UNL     1       5.357  -3.992   3.721  0.00  0.00    +0.051 A 
ATOM     15  C   UNL     1       4.175  -3.795   2.971  0.00  0.00    -0.007 A 
ATOM     16  C   UNL     1       4.253  -3.151   1.728  0.00  0.00    +0.009 A 
ATOM     17  C   UNL     1       5.474  -2.714   1.246  0.00  0.00    +0.002 A 
ATOM     18  C   UNL     1       6.629  -2.904   1.978  0.00  0.00    +0.024 A 
ATOM     19  C   UNL     1       6.582  -3.544   3.217  0.00  0.00    +0.045 A 
ATOM     20  H   UNL     1      -0.456  -5.456   4.810  0.00  0.00    +0.155 HD
ENDROOT
BRANCH  19  21
ATOM     21  N   UNL     1       7.748  -3.732   3.949  0.00  0.00    -0.281 N 
ATOM     22  C   UNL     1       8.798  -2.908   3.767  0.00  0.00    +0.248 C 
ATOM     23  O   UNL     1       8.693  -1.941   3.039  0.00  0.00    -0.270 OA
ATOM     24  H   UNL     1       7.805  -4.457   4.592  0.00  0.00    +0.155 HD
BRANCH  22  25
ATOM     25  C   UNL     1      10.079  -3.180   4.454  0.00  0.00    +0.037 A 
ATOM     26  C   UNL     1      10.205  -4.293   5.287  0.00  0.00    +0.013 A 
ATOM     27  C   UNL     1      11.403  -4.542   5.925  0.00  0.00    +0.001 A 
ATOM     28  C   UNL     1      12.478  -3.690   5.740  0.00  0.00    +0.000 A 
ATOM     29  C   UNL     1      12.359  -2.585   4.915  0.00  0.00    +0.001 A 
ATOM     30  C   UNL     1      11.169  -2.328   4.268  0.00  0.00    +0.013 A 
ENDBRANCH  22  25
ENDBRANCH  19  21
BRANCH   1  31
ATOM     31  C   UNL     1       1.500  -2.552   2.408  0.00  0.00    +0.150 C 
ATOM     32  O   UNL     1       1.953  -1.757   3.197  0.00  0.00    -0.296 OA
BRANCH  31  33
ATOM     33  C   UNL     1       0.778  -2.065   1.178  0.00  0.00    +0.075 C 
BRANCH  33  34
ATOM     34  C   UNL     1       0.759  -0.535   1.171  0.00  0.00    +0.007 C 
BRANCH  34  36
ATOM     35  C   UNL     1       0.006   1.489  -0.086  0.00  0.00    +0.004 C 
ATOM     36  C   UNL     1       0.026  -0.041  -0.078  0.00  0.00    -0.003 C 
ENDBRANCH  34  36
ENDBRANCH  33  34
ENDBRANCH  31  33
ENDBRANCH   1  31
TORSDOF 6
