REMARK  Name = ZINC59501040
REMARK  7 active torsions:
REMARK  status: ('A' for Active; 'I' for Inactive)
REMARK    1  A    between atoms: C_1  and  C_2
REMARK    2  A    between atoms: C_2  and  O_3
REMARK    3  A    between atoms: O_3  and  C_4
REMARK    4  A    between atoms: C_10  and  C_39
REMARK    5  A    between atoms: C_12  and  N_14
REMARK    6  A    between atoms: C_17  and  C_30
REMARK    7  A    between atoms: C_33  and  N_36
REMARK                            x       y       z     vdW  Elec       q    Type
REMARK                         _______ _______ _______ _____ _____    ______ ____
ROOT
ATOM      1  N   UNL     1       1.844  -7.747   2.911  0.00  0.00    -0.181 NA
ATOM      2  C   UNL     1       1.241  -8.540   2.051  0.00  0.00    +0.188 C 
ATOM      3  N   UNL     1       1.232  -9.911   2.215  0.00  0.00    -0.306 N 
ATOM      4  C   UNL     1      -0.073 -10.598   2.177  0.00  0.00    +0.139 C 
ATOM      5  C   UNL     1      -0.905  -9.921   1.111  0.00  0.00    +0.046 C 
ATOM      6  C   UNL     1      -0.562  -8.713   0.558  0.00  0.00    +0.050 C 
ATOM      7  N   UNL     1       0.579  -8.035   0.939  0.00  0.00    -0.286 N 
ATOM      8  C   UNL     1      -1.577  -8.334  -0.430  0.00  0.00    +0.007 A 
ATOM      9  C   UNL     1      -1.701  -7.224  -1.251  0.00  0.00    +0.010 A 
ATOM     10  C   UNL     1      -2.816  -7.181  -2.093  0.00  0.00    +0.001 A 
ATOM     11  C   UNL     1      -3.752  -8.188  -2.114  0.00  0.00    +0.001 A 
ATOM     12  C   UNL     1      -3.641  -9.315  -1.292  0.00  0.00    +0.012 A 
ATOM     13  C   UNL     1      -2.544  -9.371  -0.454  0.00  0.00    +0.031 A 
ATOM     14  C   UNL     1      -2.108 -10.383   0.533  0.00  0.00    +0.194 C 
ATOM     15  O   UNL     1      -2.680 -11.423   0.797  0.00  0.00    -0.287 OA
ATOM     16  H   UNL     1       0.898  -7.255   0.458  0.00  0.00    +0.155 HD
ATOM     17  H   UNL     1       2.056 -10.406   2.350  0.00  0.00    +0.150 HD
ENDROOT
BRANCH   1  26
ATOM     18  C   UNL     1       0.422  -1.835   1.585  0.00  0.00    +0.121 A 
ATOM     19  C   UNL     1      -0.320  -2.685   0.760  0.00  0.00    +0.048 A 
ATOM     20  C   UNL     1      -0.192  -4.037   0.852  0.00  0.00    +0.032 A 
ATOM     21  C   UNL     1       0.696  -4.590   1.787  0.00  0.00    +0.077 A 
ATOM     22  C   UNL     1       1.450  -3.727   2.625  0.00  0.00    +0.025 A 
ATOM     23  C   UNL     1       1.301  -2.339   2.503  0.00  0.00    +0.057 A 
ATOM     24  C   UNL     1       2.337  -4.302   3.556  0.00  0.00    +0.051 A 
ATOM     25  N   UNL     1       2.429  -5.613   3.611  0.00  0.00    -0.215 NA
ATOM     26  C   UNL     1       1.705  -6.398   2.807  0.00  0.00    +0.254 A 
ATOM     27  N   UNL     1       0.856  -5.912   1.913  0.00  0.00    -0.211 NA
ATOM     28  C   UNL     1       3.162  -3.434   4.471  0.00  0.00    +0.066 C 
BRANCH  18  29
ATOM     29  O   UNL     1       0.272  -0.488   1.469  0.00  0.00    -0.492 OA
BRANCH  29  31
ATOM     30  C   UNL     1      -0.693   1.508   0.508  0.00  0.00    +0.048 C 
ATOM     31  C   UNL     1      -0.661  -0.022   0.492  0.00  0.00    +0.225 C 
ENDBRANCH  29  31
ENDBRANCH  18  29
ENDBRANCH   1  26
BRANCH   4  32
ATOM     32  C   UNL     1      -0.755 -10.478   3.516  0.00  0.00    -0.023 A 
ATOM     33  C   UNL     1      -0.697  -9.287   4.216  0.00  0.00    +0.008 A 
ATOM     34  C   UNL     1      -1.323  -9.177   5.444  0.00  0.00    +0.033 A 
ATOM     35  C   UNL     1      -2.007 -10.257   5.971  0.00  0.00    +0.126 A 
ATOM     36  C   UNL     1      -2.066 -11.446   5.270  0.00  0.00    +0.033 A 
ATOM     37  C   UNL     1      -1.444 -11.555   4.040  0.00  0.00    +0.008 A 
BRANCH  35  38
ATOM     38  N   UNL     1      -2.676 -10.139   7.286  0.00  0.00    +0.056 N 
ATOM     39  O   UNL     1      -2.624  -9.098   7.900  0.00  0.00    -0.126 OA
ATOM     40  O   UNL     1      -3.274 -11.082   7.747  0.00  0.00    -0.126 OA
ENDBRANCH  35  38
ENDBRANCH   4  32
TORSDOF 5
