REMARK  Name = ZINC29566494
REMARK  13 active torsions:
REMARK  status: ('A' for Active; 'I' for Inactive)
REMARK    1  A    between atoms: C_1  and  C_2
REMARK    2  A    between atoms: C_2  and  C_3
REMARK    3  A    between atoms: C_7  and  C_28
REMARK    4  A    between atoms: C_8  and  N_9
REMARK    5  A    between atoms: C_10  and  C_12
REMARK    6  A    between atoms: C_12  and  C_14
REMARK    7  A    between atoms: C_12  and  N_15
REMARK    8  A    between atoms: N_15  and  C_16
REMARK    9  A    between atoms: C_19  and  N_22
REMARK   10  A    between atoms: C_23  and  C_25
REMARK   11  A    between atoms: C_25  and  C_26
REMARK   12  A    between atoms: C_25  and  C_27
REMARK   13  A    between atoms: C_28  and  C_29
REMARK                            x       y       z     vdW  Elec       q    Type
REMARK                         _______ _______ _______ _____ _____    ______ ____
ROOT
ATOM      1  C   UNL     1      -5.382   5.158  -1.414  0.00  0.00    +0.154 C 
ATOM      2  C   UNL     1      -6.244   4.644  -2.569  0.00  0.00    +0.038 C 
ENDROOT
BRANCH   1   4
ATOM      3  N   UNL     1      -7.233   6.415  -0.358  0.00  0.00    -0.284 N 
ATOM      4  C   UNL     1      -6.264   5.486  -0.237  0.00  0.00    +0.237 C 
ATOM      5  O   UNL     1      -6.101   4.915   0.820  0.00  0.00    -0.273 OA
ATOM      6  H   UNL     1      -7.439   6.870  -1.339  0.00  0.00    +0.155 HD
BRANCH   3  12
ATOM      7  C   UNL     1      -7.960   8.122   1.188  0.00  0.00    -0.026 A 
ATOM      8  C   UNL     1      -8.701   8.500   2.291  0.00  0.00    +0.005 A 
ATOM      9  C   UNL     1      -9.450   7.562   2.977  0.00  0.00    +0.001 A 
ATOM     10  C   UNL     1      -9.464   6.244   2.559  0.00  0.00    +0.005 A 
ATOM     11  C   UNL     1      -8.731   5.860   1.454  0.00  0.00    -0.026 A 
ATOM     12  C   UNL     1      -7.978   6.800   0.762  0.00  0.00    +0.040 A 
BRANCH   7  14
ATOM     13  C   UNL     1      -7.956   9.701  -0.724  0.00  0.00    +0.009 C 
ATOM     14  C   UNL     1      -7.140   9.143   0.444  0.00  0.00    +0.033 C 
ENDBRANCH   7  14
BRANCH  11  15
ATOM     15  C   UNL     1      -8.747   4.424   0.999  0.00  0.00    +0.033 C 
ATOM     16  C   UNL     1      -8.015   3.556   2.024  0.00  0.00    +0.009 C 
ENDBRANCH  11  15
ENDBRANCH   3  12
ENDBRANCH   1   4
BRANCH   1  17
ATOM     17  N   UNL     1      -4.416   4.127  -1.029  0.00  0.00    -0.333 N 
ATOM     18  H   UNL     1      -4.647   3.438  -0.203  0.00  0.00    +0.147 HD
BRANCH  17  19
ATOM     19  C   UNL     1      -3.200   4.018  -1.711  0.00  0.00    +0.028 A 
ATOM     20  C   UNL     1      -2.284   3.040  -1.346  0.00  0.00    +0.025 A 
ATOM     21  C   UNL     1      -1.084   2.932  -2.020  0.00  0.00    +0.025 A 
ATOM     22  C   UNL     1      -0.793   3.801  -3.063  0.00  0.00    +0.034 A 
ATOM     23  C   UNL     1      -1.706   4.782  -3.425  0.00  0.00    +0.025 A 
ATOM     24  C   UNL     1      -2.909   4.887  -2.755  0.00  0.00    +0.025 A 
BRANCH  22  25
ATOM     25  N   UNL     1       0.426   3.691  -3.747  0.00  0.00    -0.285 N 
ATOM     26  C   UNL     1       0.975   2.478  -3.955  0.00  0.00    +0.220 C 
ATOM     27  O   UNL     1       0.458   1.489  -3.480  0.00  0.00    -0.275 OA
ATOM     28  H   UNL     1       0.933   4.595  -4.115  0.00  0.00    +0.155 HD
BRANCH  26  29
ATOM     29  C   UNL     1       2.232   2.351  -4.777  0.00  0.00    +0.069 C 
ATOM     30  C   UNL     1       2.642   0.879  -4.857  0.00  0.00    +0.017 C 
ATOM     31  C   UNL     1       1.975   2.887  -6.187  0.00  0.00    +0.017 C 
ENDBRANCH  26  29
ENDBRANCH  22  25
ENDBRANCH  17  19
ENDBRANCH   1  17
TORSDOF 8
