REMARK  Name = ZINC49838346
REMARK  4 active torsions:
REMARK  status: ('A' for Active; 'I' for Inactive)
REMARK    1  A    between atoms: C_1  and  C_2
REMARK    2  A    between atoms: C_3  and  C_11
REMARK    3  A    between atoms: C_4  and  N_10
REMARK    4  A    between atoms: C_5  and  C_7
REMARK                            x       y       z     vdW  Elec       q    Type
REMARK                         _______ _______ _______ _____ _____    ______ ____
ROOT
ATOM      1  C   UNL     1      -0.018   1.503   0.010  0.00  0.00    +0.052 C 
ATOM      2  C   UNL     1       0.002  -0.004   0.002  0.00  0.00    -0.003 A 
ATOM      3  C   UNL     1      -1.073  -0.861   0.002  0.00  0.00    +0.014 A 
ATOM      4  C   UNL     1      -0.826  -2.229  -0.006  0.00  0.00    +0.054 A 
ATOM      5  C   UNL     1       0.520  -2.595  -0.014  0.00  0.00    +0.122 A 
ATOM      6  S   UNL     1       1.343  -1.015  -0.017  0.00  0.00    -0.084 S 
ENDROOT
BRANCH   3   7
ATOM      7  C   UNL     1      -2.462  -0.339   0.012  0.00  0.00    -0.015 A 
ATOM      8  C   UNL     1      -2.929   0.383   1.108  0.00  0.00    +0.011 A 
ATOM      9  C   UNL     1      -4.222   0.866   1.113  0.00  0.00    +0.039 A 
ATOM     10  C   UNL     1      -5.054   0.636   0.029  0.00  0.00    +0.123 A 
ATOM     11  C   UNL     1      -4.593  -0.082  -1.063  0.00  0.00    +0.039 A 
ATOM     12  C   UNL     1      -3.300  -0.564  -1.079  0.00  0.00    +0.011 A 
ATOM     13  F   UNL     1      -6.318   1.111   0.038  0.00  0.00    -0.205 F 
ENDBRANCH   3   7
BRANCH   5  14
ATOM     14  C   UNL     1       1.085  -3.885  -0.023  0.00  0.00    +0.395 C 
ATOM     15  O   UNL     1       0.295  -4.959  -0.025  0.00  0.00    -0.240 OA
ATOM     16  O   UNL     1       2.410  -4.033  -0.030  0.00  0.00    -0.240 OA
ENDBRANCH   5  14
BRANCH   4  17
ATOM     17  N   UNL     1      -1.849  -3.167  -0.007  0.00  0.00    -0.356 N 
ATOM     18  H   UNL     1      -2.774  -2.875  -0.001  0.00  0.00    +0.142 HD
ATOM     19  H   UNL     1      -1.639  -4.114  -0.013  0.00  0.00    +0.142 HD
ENDBRANCH   4  17
TORSDOF 3
