REMARK  Name = ZINC40044847
REMARK  13 active torsions:
REMARK  status: ('A' for Active; 'I' for Inactive)
REMARK    1  A    between atoms: C_1  and  C_2
REMARK    2  A    between atoms: C_2  and  C_3
REMARK    3  A    between atoms: C_3  and  C_4
REMARK    4  A    between atoms: C_4  and  C_5
REMARK    5  A    between atoms: C_5  and  C_6
REMARK    6  A    between atoms: C_6  and  O_7
REMARK    7  A    between atoms: O_7  and  C_8
REMARK    8  A    between atoms: C_11  and  C_16
REMARK    9  A    between atoms: C_13  and  O_14
REMARK   10  A    between atoms: O_14  and  C_15
REMARK   11  A    between atoms: C_23  and  C_40
REMARK   12  A    between atoms: C_25  and  C_39
REMARK   13  A    between atoms: C_35  and  C_38
REMARK                            x       y       z     vdW  Elec       q    Type
REMARK                         _______ _______ _______ _____ _____    ______ ____
ROOT
ATOM      1  C   UNL     1       2.664 -10.137   4.223  0.00  0.00    +0.151 C 
ATOM      2  C   UNL     1       3.758 -10.662   3.353  0.00  0.00    +0.072 A 
ATOM      3  C   UNL     1       5.196 -10.372   3.327  0.00  0.00    +0.199 A 
ATOM      4  O   UNL     1       5.761  -9.726   4.192  0.00  0.00    -0.287 OA
ATOM      5  C   UNL     1       5.895 -10.939   2.147  0.00  0.00    +0.065 A 
ATOM      6  C   UNL     1       7.217 -10.586   1.872  0.00  0.00    +0.018 A 
ATOM      7  C   UNL     1       7.845 -11.113   0.778  0.00  0.00    -0.049 A 
ATOM      8  C   UNL     1       7.173 -11.995  -0.057  0.00  0.00    +0.010 A 
ATOM      9  C   UNL     1       5.869 -12.354   0.200  0.00  0.00    -0.007 A 
ATOM     10  C   UNL     1       5.207 -11.833   1.311  0.00  0.00    +0.142 A 
ATOM     11  O   UNL     1       3.929 -12.207   1.550  0.00  0.00    -0.449 OA
ATOM     12  C   UNL     1       3.203 -11.548   2.473  0.00  0.00    +0.199 A 
ATOM     13  C   UNL     1       1.756 -11.616   2.739  0.00  0.00    +0.288 C 
ATOM     14  O   UNL     1       0.968 -12.311   2.127  0.00  0.00    -0.266 OA
ATOM     15  N   UNL     1       1.431 -10.796   3.761  0.00  0.00    -0.238 N 
ATOM     16  C   UNL     1       0.156 -10.607   4.288  0.00  0.00    +0.129 A 
ATOM     17  C   UNL     1      -0.048  -9.647   5.273  0.00  0.00    +0.044 A 
ATOM     18  C   UNL     1      -1.320  -9.470   5.787  0.00  0.00    +0.008 A 
ATOM     19  C   UNL     1      -2.349 -10.262   5.297  0.00  0.00    -0.032 A 
ATOM     20  C   UNL     1      -2.075 -11.197   4.318  0.00  0.00    +0.116 A 
ATOM     21  N   UNL     1      -0.853 -11.340   3.842  0.00  0.00    -0.240 NA
ATOM     22  C   UNL     1      -3.751 -10.104   5.827  0.00  0.00    +0.045 C 
ATOM     23  C   UNL     1       5.158 -13.312  -0.721  0.00  0.00    +0.047 C 
ATOM     24  C   UNL     1       9.273 -10.735   0.479  0.00  0.00    +0.044 C 
ENDROOT
BRANCH   1  28
ATOM     25  C   UNL     1       2.324  -5.899   3.768  0.00  0.00    +0.162 A 
ATOM     26  C   UNL     1       1.782  -6.746   2.815  0.00  0.00    +0.050 A 
ATOM     27  C   UNL     1       1.894  -8.116   2.965  0.00  0.00    +0.009 A 
ATOM     28  C   UNL     1       2.545  -8.643   4.064  0.00  0.00    -0.018 A 
ATOM     29  C   UNL     1       3.087  -7.803   5.019  0.00  0.00    +0.055 A 
ATOM     30  C   UNL     1       2.984  -6.429   4.872  0.00  0.00    +0.162 A 
BRANCH  30  31
ATOM     31  O   UNL     1       3.522  -5.601   5.807  0.00  0.00    -0.491 OA
ATOM     32  C   UNL     1       4.185  -6.216   6.913  0.00  0.00    +0.277 C 
ENDBRANCH  30  31
BRANCH  25  33
ATOM     33  O   UNL     1       2.215  -4.551   3.622  0.00  0.00    -0.488 OA
BRANCH  33  34
ATOM     34  C   UNL     1       1.524  -4.077   2.464  0.00  0.00    +0.229 C 
BRANCH  34  35
ATOM     35  C   UNL     1       1.503  -2.548   2.473  0.00  0.00    +0.041 C 
BRANCH  35  36
ATOM     36  C   UNL     1       0.763  -2.041   1.233  0.00  0.00    +0.003 C 
BRANCH  36  37
ATOM     37  C   UNL     1       0.742  -0.511   1.242  0.00  0.00    -0.000 C 
BRANCH  37  39
ATOM     38  C   UNL     1      -0.019   1.526   0.010  0.00  0.00    +0.004 C 
ATOM     39  C   UNL     1       0.002  -0.004   0.002  0.00  0.00    -0.003 C 
ENDBRANCH  37  39
ENDBRANCH  36  37
ENDBRANCH  35  36
ENDBRANCH  34  35
ENDBRANCH  33  34
ENDBRANCH  25  33
ENDBRANCH   1  28
TORSDOF 8
