REMARK  Name = ZINC05605531
REMARK  9 active torsions:
REMARK  status: ('A' for Active; 'I' for Inactive)
REMARK    1  A    between atoms: C_1  and  C_2
REMARK    2  A    between atoms: C_2  and  C_3
REMARK    3  A    between atoms: C_3  and  C_4
REMARK    4  A    between atoms: C_4  and  N_5
REMARK    5  A    between atoms: C_6  and  N_28
REMARK    6  A    between atoms: C_7  and  N_14
REMARK    7  A    between atoms: N_14  and  C_15
REMARK    8  A    between atoms: C_15  and  C_16
REMARK    9  A    between atoms: C_21  and  C_23
REMARK                            x       y       z     vdW  Elec       q    Type
REMARK                         _______ _______ _______ _____ _____    ______ ____
ROOT
ATOM      1  N   UNL     1      -0.615   1.794  -5.333  0.00  0.00    -0.280 N 
ATOM      2  C   UNL     1      -0.786   1.082  -4.169  0.00  0.00    +0.127 A 
ATOM      3  C   UNL     1      -0.414   1.653  -2.969  0.00  0.00    +0.140 A 
ATOM      4  C   UNL     1       0.126   2.953  -2.974  0.00  0.00    +0.277 A 
ATOM      5  O   UNL     1       0.459   3.483  -1.928  0.00  0.00    -0.266 OA
ATOM      6  N   UNL     1       0.278   3.605  -4.144  0.00  0.00    -0.273 N 
ATOM      7  H   UNL     1       0.669   4.526  -4.149  0.00  0.00    +0.173 HD
ATOM      8  C   UNL     1      -0.091   3.033  -5.303  0.00  0.00    +0.331 A 
ATOM      9  O   UNL     1       0.052   3.646  -6.343  0.00  0.00    -0.246 OA
ENDROOT
BRANCH   3  10
ATOM     10  N   UNL     1      -0.577   0.949  -1.758  0.00  0.00    -0.257 N 
ATOM     11  C   UNL     1      -1.816   0.708  -1.279  0.00  0.00    +0.223 C 
ATOM     12  O   UNL     1      -1.960   0.037  -0.279  0.00  0.00    -0.275 OA
BRANCH  11  13
ATOM     13  C   UNL     1      -3.020   1.273  -1.988  0.00  0.00    +0.076 C 
ATOM     14  C   UNL     1      -3.498   2.555  -1.276  0.00  0.00    +0.013 C 
ATOM     15  C   UNL     1      -5.043   2.490  -1.373  0.00  0.00    +0.001 C 
ATOM     16  C   UNL     1      -5.334   0.982  -1.173  0.00  0.00    +0.001 C 
ATOM     17  C   UNL     1      -4.188   0.272  -1.922  0.00  0.00    +0.013 C 
ENDBRANCH  11  13
BRANCH  10  18
ATOM     18  C   UNL     1       0.598   0.479  -1.019  0.00  0.00    +0.188 C 
BRANCH  18  19
ATOM     19  C   UNL     1       1.072   1.564  -0.087  0.00  0.00    +0.122 A 
ATOM     20  C   UNL     1       0.595   1.805   1.147  0.00  0.00    +0.046 A 
ATOM     21  C   UNL     1       1.322   2.905   1.659  0.00  0.00    +0.041 A 
ATOM     22  C   UNL     1       2.199   3.270   0.707  0.00  0.00    +0.195 A 
ATOM     23  O   UNL     1       2.047   2.451  -0.347  0.00  0.00    -0.466 OA
ENDBRANCH  18  19
ENDBRANCH  10  18
ENDBRANCH   3  10
BRANCH   2  24
ATOM     24  N   UNL     1      -1.321  -0.184  -4.200  0.00  0.00    -0.343 N 
ATOM     25  H   UNL     1      -1.526  -0.644  -3.371  0.00  0.00    +0.144 HD
ATOM     26  H   UNL     1      -1.494  -0.616  -5.051  0.00  0.00    +0.144 HD
ENDBRANCH   2  24
BRANCH   1  27
ATOM     27  C   UNL     1      -1.005   1.200  -6.614  0.00  0.00    +0.128 C 
BRANCH  27  28
ATOM     28  C   UNL     1      -2.464   1.549  -6.915  0.00  0.00    +0.021 C 
BRANCH  28  30
ATOM     29  C   UNL     1      -4.331   1.278  -8.553  0.00  0.00    +0.004 C 
ATOM     30  C   UNL     1      -2.872   0.928  -8.252  0.00  0.00    -0.002 C 
ENDBRANCH  28  30
ENDBRANCH  27  28
ENDBRANCH   1  27
TORSDOF 8
