REMARK  Name = ZINC39599904
REMARK  6 active torsions:
REMARK  status: ('A' for Active; 'I' for Inactive)
REMARK    1  A    between atoms: C_3  and  O_31
REMARK    2  A    between atoms: C_6  and  C_7
REMARK    3  A    between atoms: C_7  and  N_8
REMARK    4  A    between atoms: C_9  and  C_11
REMARK    5  A    between atoms: C_22  and  C_24
REMARK    6  A    between atoms: O_31  and  C_32
REMARK                            x       y       z     vdW  Elec       q    Type
REMARK                         _______ _______ _______ _____ _____    ______ ____
ROOT
ATOM      1  C   UNL     1      -3.024  -2.088  -2.110  0.00  0.00    +0.100 C 
ATOM      2  C   UNL     1      -2.252  -2.710  -3.296  0.00  0.00    +0.121 C 
ATOM      3  N   UNL     1      -2.622  -4.145  -3.272  0.00  0.00    -0.300 N 
ATOM      4  C   UNL     1      -4.064  -4.149  -2.928  0.00  0.00    +0.115 C 
ATOM      5  C   UNL     1      -4.214  -3.033  -1.874  0.00  0.00    -0.004 C 
ATOM      6  C   UNL     1      -5.529  -2.288  -2.078  0.00  0.00    -0.010 C 
ATOM      7  C   UNL     1      -6.698  -3.232  -1.781  0.00  0.00    -0.082 C 
ATOM      8  N   UNL     1      -6.597  -3.719  -0.400  0.00  0.00    +0.379 N 
ATOM      9  C   UNL     1      -5.374  -4.514  -0.238  0.00  0.00    -0.082 C 
ATOM     10  C   UNL     1      -4.149  -3.624  -0.469  0.00  0.00    -0.010 C 
ATOM     11  C   UNL     1      -1.826  -5.207  -3.509  0.00  0.00    +0.219 C 
ATOM     12  O   UNL     1      -0.640  -5.044  -3.704  0.00  0.00    -0.275 OA
ATOM     13  H   UNL     1      -6.572  -2.933   0.232  0.00  0.00    -0.086 HD
ATOM     14  H   UNL     1      -7.400  -4.292  -0.188  0.00  0.00    -0.086 HD
ENDROOT
BRANCH  11  15
ATOM     15  C   UNL     1      -2.411  -6.596  -3.533  0.00  0.00    +0.079 C 
ATOM     16  C   UNL     1      -1.321  -7.619  -3.190  0.00  0.00    +0.017 C 
ATOM     17  C   UNL     1      -1.977  -8.994  -3.046  0.00  0.00    +0.027 C 
ATOM     18  C   UNL     1      -2.860  -9.272  -4.227  0.00  0.00    -0.031 C 
ATOM     19  C   UNL     1      -3.284  -8.363  -5.045  0.00  0.00    -0.030 C 
ATOM     20  C   UNL     1      -2.948  -6.904  -4.932  0.00  0.00    +0.039 C 
ENDBRANCH  11  15
BRANCH   1  22
ATOM     21  N   UNL     1      -2.342  -1.072   0.040  0.00  0.00    -0.311 N 
ATOM     22  C   UNL     1      -2.147  -2.033  -0.885  0.00  0.00    +0.218 C 
ATOM     23  O   UNL     1      -1.267  -2.853  -0.732  0.00  0.00    -0.275 OA
ATOM     24  H   UNL     1      -3.047  -0.416  -0.083  0.00  0.00    +0.149 HD
BRANCH  21  25
ATOM     25  C   UNL     1      -1.490  -1.018   1.230  0.00  0.00    +0.139 C 
BRANCH  25  31
ATOM     26  C   UNL     1      -2.872  -0.045   3.076  0.00  0.00    +0.009 A 
ATOM     27  C   UNL     1      -3.260   1.015   3.873  0.00  0.00    +0.046 A 
ATOM     28  C   UNL     1      -2.687   2.265   3.691  0.00  0.00    +0.130 A 
ATOM     29  C   UNL     1      -1.724   2.447   2.709  0.00  0.00    +0.046 A 
ATOM     30  C   UNL     1      -1.339   1.385   1.915  0.00  0.00    +0.009 A 
ATOM     31  C   UNL     1      -1.913   0.140   2.098  0.00  0.00    -0.030 A 
BRANCH  28  32
ATOM     32  O   UNL     1      -3.067   3.309   4.473  0.00  0.00    -0.406 OA
BRANCH  32  33
ATOM     33  C   UNL     1      -2.434   4.567   4.230  0.00  0.00    +0.575 C 
ATOM     34  F   UNL     1      -2.689   4.970   2.914  0.00  0.00    -0.133 F 
ATOM     35  F   UNL     1      -2.940   5.523   5.117  0.00  0.00    -0.133 F 
ATOM     36  F   UNL     1      -1.054   4.439   4.419  0.00  0.00    -0.133 F 
ENDBRANCH  32  33
ENDBRANCH  28  32
ENDBRANCH  25  31
ENDBRANCH  21  25
ENDBRANCH   1  22
TORSDOF 6
