REMARK  Name = ZINC39677759
REMARK  7 active torsions:
REMARK  status: ('A' for Active; 'I' for Inactive)
REMARK    1  A    between atoms: C_1  and  C_2
REMARK    2  A    between atoms: C_4  and  C_8
REMARK    3  A    between atoms: N_6  and  C_7
REMARK    4  A    between atoms: C_12  and  C_21
REMARK    5  A    between atoms: N_23  and  C_24
REMARK    6  A    between atoms: C_24  and  C_25
REMARK    7  A    between atoms: C_28  and  C_30
REMARK                            x       y       z     vdW  Elec       q    Type
REMARK                         _______ _______ _______ _____ _____    ______ ____
ROOT
ATOM      1  C   UNL     1       0.155  -3.211  -1.143  0.00  0.00    +0.267 C 
ATOM      2  O   UNL     1       0.182  -3.050  -2.348  0.00  0.00    -0.268 OA
ATOM      3  N   UNL     1       0.135  -4.457  -0.631  0.00  0.00    -0.295 N 
ATOM      4  C   UNL     1       0.095  -4.851   0.797  0.00  0.00    +0.121 C 
ATOM      5  C   UNL     1      -0.861  -6.065   0.841  0.00  0.00    +0.100 C 
ATOM      6  C   UNL     1      -0.820  -6.647  -0.582  0.00  0.00    -0.004 C 
ATOM      7  C   UNL     1       0.141  -5.744  -1.368  0.00  0.00    +0.115 C 
ATOM      8  C   UNL     1      -0.295  -8.080  -0.552  0.00  0.00    -0.010 C 
ATOM      9  C   UNL     1      -0.319  -8.656  -1.971  0.00  0.00    -0.082 C 
ATOM     10  N   UNL     1      -1.692  -8.628  -2.490  0.00  0.00    +0.379 N 
ATOM     11  C   UNL     1      -2.155  -7.240  -2.603  0.00  0.00    -0.082 C 
ATOM     12  C   UNL     1      -2.210  -6.603  -1.211  0.00  0.00    -0.010 C 
ATOM     13  H   UNL     1      -1.715  -9.064  -3.399  0.00  0.00    -0.086 HD
ATOM     14  H   UNL     1      -2.298  -9.134  -1.862  0.00  0.00    -0.086 HD
ENDROOT
BRANCH   1  18
ATOM     15  C   UNL     1       0.151   1.525   0.660  0.00  0.00    +0.065 C 
ATOM     16  C   UNL     1       0.142   0.024   0.528  0.00  0.00    +0.037 A 
ATOM     17  C   UNL     1       0.163  -0.680  -0.628  0.00  0.00    +0.057 A 
ATOM     18  C   UNL     1       0.144  -2.041  -0.242  0.00  0.00    +0.147 A 
ATOM     19  N   UNL     1       0.115  -2.067   1.076  0.00  0.00    -0.167 NA
ATOM     20  N   UNL     1       0.118  -0.869   1.540  0.00  0.00    -0.271 N 
ATOM     21  C   UNL     1       0.096  -0.522   2.963  0.00  0.00    +0.172 C 
ENDBRANCH   1  18
BRANCH   5  22
ATOM     22  C   UNL     1      -2.258  -5.621   1.189  0.00  0.00    +0.218 C 
ATOM     23  O   UNL     1      -2.640  -4.516   0.868  0.00  0.00    -0.275 OA
ATOM     24  N   UNL     1      -3.083  -6.452   1.856  0.00  0.00    -0.310 N 
ATOM     25  H   UNL     1      -2.777  -7.336   2.113  0.00  0.00    +0.149 HD
BRANCH  24  26
ATOM     26  C   UNL     1      -4.441  -6.020   2.195  0.00  0.00    +0.146 C 
BRANCH  26  27
ATOM     27  C   UNL     1      -5.150  -7.126   2.934  0.00  0.00    +0.007 A 
ATOM     28  C   UNL     1      -5.204  -7.361   4.271  0.00  0.00    +0.013 A 
ATOM     29  C   UNL     1      -5.920  -8.443   4.733  0.00  0.00    +0.018 A 
ATOM     30  C   UNL     1      -6.555  -9.249   3.826  0.00  0.00    +0.038 A 
ATOM     31  S   UNL     1      -6.141  -8.458   2.279  0.00  0.00    -0.090 S 
BRANCH  30  32
ATOM     32  C   UNL     1      -7.374 -10.454   4.065  0.00  0.00    +0.078 A 
ATOM     33  C   UNL     1      -7.932 -11.139   2.983  0.00  0.00    +0.029 A 
ATOM     34  C   UNL     1      -8.696 -12.265   3.224  0.00  0.00    +0.004 A 
ATOM     35  C   UNL     1      -8.880 -12.674   4.538  0.00  0.00    +0.020 A 
ATOM     36  C   UNL     1      -8.299 -11.950   5.562  0.00  0.00    +0.111 A 
ATOM     37  N   UNL     1      -7.570 -10.882   5.307  0.00  0.00    -0.254 NA
ENDBRANCH  30  32
ENDBRANCH  26  27
ENDBRANCH  24  26
ENDBRANCH   5  22
TORSDOF 5
