REMARK  Name = ZINC36128864
REMARK  8 active torsions:
REMARK  status: ('A' for Active; 'I' for Inactive)
REMARK    1  A    between atoms: C_1  and  C_2
REMARK    2  A    between atoms: C_2  and  C_3
REMARK    3  A    between atoms: C_7  and  C_23
REMARK    4  A    between atoms: N_10  and  S_11
REMARK    5  A    between atoms: S_11  and  C_14
REMARK    6  A    between atoms: C_16  and  N_22
REMARK    7  A    between atoms: C_18  and  C_21
REMARK    8  A    between atoms: C_19  and  C_20
REMARK                            x       y       z     vdW  Elec       q    Type
REMARK                         _______ _______ _______ _____ _____    ______ ____
ROOT
ATOM      1  S   UNL     1      -1.285   1.143  -2.308  0.00  0.00    +0.062 S 
ATOM      2  O   UNL     1      -0.780   2.278  -1.619  0.00  0.00    -0.153 OA
ATOM      3  O   UNL     1      -1.939   1.244  -3.566  0.00  0.00    -0.153 OA
ENDROOT
BRANCH   1   4
ATOM      4  C   UNL     1      -2.417   0.352  -1.214  0.00  0.00    +0.110 A 
ATOM      5  C   UNL     1      -2.628   0.866   0.051  0.00  0.00    +0.051 A 
ATOM      6  C   UNL     1      -3.521   0.242   0.912  0.00  0.00    +0.027 A 
ATOM      7  C   UNL     1      -4.199  -0.897   0.499  0.00  0.00    +0.026 A 
ATOM      8  C   UNL     1      -3.984  -1.406  -0.767  0.00  0.00    -0.044 A 
ATOM      9  C   UNL     1      -3.098  -0.779  -1.624  0.00  0.00    -0.021 A 
ATOM     10  C   UNL     1      -2.870  -1.334  -3.007  0.00  0.00    +0.046 C 
ATOM     11  C   UNL     1      -4.719  -2.642  -1.216  0.00  0.00    +0.044 C 
BRANCH   6  12
ATOM     12  N   UNL     1      -3.736   0.760   2.192  0.00  0.00    -0.358 N 
ATOM     13  H   UNL     1      -3.262   1.555   2.480  0.00  0.00    +0.142 HD
ATOM     14  H   UNL     1      -4.360   0.323   2.793  0.00  0.00    +0.142 HD
ENDBRANCH   6  12
ENDBRANCH   1   4
BRANCH   1  20
ATOM     15  C   UNL     1       0.938  -0.160  -1.425  0.00  0.00    +0.105 C 
ATOM     16  C   UNL     1       1.086  -1.678  -1.278  0.00  0.00    +0.180 C 
ATOM     17  O   UNL     1       1.410  -2.245  -2.550  0.00  0.00    -0.374 OA
ATOM     18  C   UNL     1       0.401  -2.062  -3.545  0.00  0.00    +0.131 C 
ATOM     19  C   UNL     1       0.217  -0.563  -3.809  0.00  0.00    +0.141 C 
ATOM     20  N   UNL     1      -0.007   0.111  -2.520  0.00  0.00    -0.169 NA
ATOM     21  C   UNL     1       0.826  -2.761  -4.838  0.00  0.00    +0.039 C 
BRANCH  15  23
ATOM     22  C   UNL     1       1.422   0.222   0.997  0.00  0.00    +0.005 C 
ATOM     23  C   UNL     1       0.399   0.434  -0.121  0.00  0.00    +0.019 C 
ENDBRANCH  15  23
ENDBRANCH   1  20
TORSDOF 4
