REMARK  Name = ZINC05660581
REMARK  3 active torsions:
REMARK  status: ('A' for Active; 'I' for Inactive)
REMARK    1  A    between atoms: C_4  and  N_7
REMARK    2  A    between atoms: N_7  and  C_8
REMARK    3  A    between atoms: C_8  and  N_9
REMARK                            x       y       z     vdW  Elec       q    Type
REMARK                         _______ _______ _______ _____ _____    ______ ____
ROOT
ATOM      1  N   UNL     1       5.372   0.241   1.327  0.00  0.00    -0.193 N 
ATOM      2  C   UNL     1       6.418  -0.508   1.748  0.00  0.00    +0.279 A 
ATOM      3  O   UNL     1       6.965  -1.304   1.007  0.00  0.00    -0.265 OA
ATOM      4  C   UNL     1       6.867  -0.322   3.136  0.00  0.00    +0.068 A 
ATOM      5  C   UNL     1       7.936  -1.046   3.663  0.00  0.00    +0.015 A 
ATOM      6  C   UNL     1       8.320  -0.837   4.970  0.00  0.00    +0.001 A 
ATOM      7  C   UNL     1       7.652   0.087   5.762  0.00  0.00    +0.002 A 
ATOM      8  C   UNL     1       6.595   0.813   5.261  0.00  0.00    +0.030 A 
ATOM      9  C   UNL     1       6.186   0.619   3.939  0.00  0.00    +0.100 A 
ATOM     10  N   UNL     1       5.149   1.316   3.412  0.00  0.00    -0.131 NA
ATOM     11  N   UNL     1       4.766   1.151   2.198  0.00  0.00    -0.061 NA
ENDROOT
BRANCH   1  12
ATOM     12  C   UNL     1       4.877   0.102  -0.045  0.00  0.00    +0.253 C 
BRANCH  12  13
ATOM     13  N   UNL     1       3.620  -0.649  -0.037  0.00  0.00    -0.325 N 
ATOM     14  H   UNL     1       3.634  -1.619  -0.042  0.00  0.00    +0.148 HD
BRANCH  13  18
ATOM     15  C   UNL     1      -0.017   1.379   0.010  0.00  0.00    +0.000 A 
ATOM     16  C   UNL     1       1.169   2.089   0.002  0.00  0.00    +0.002 A 
ATOM     17  C   UNL     1       2.377   1.420  -0.013  0.00  0.00    +0.023 A 
ATOM     18  C   UNL     1       2.400   0.031  -0.021  0.00  0.00    +0.028 A 
ATOM     19  C   UNL     1       1.206  -0.680  -0.013  0.00  0.00    +0.023 A 
ATOM     20  C   UNL     1       0.002  -0.004   0.002  0.00  0.00    +0.002 A 
ENDBRANCH  13  18
ENDBRANCH  12  13
ENDBRANCH   1  12
TORSDOF 3
