REMARK  Name = ZINC21956842
REMARK  6 active torsions:
REMARK  status: ('A' for Active; 'I' for Inactive)
REMARK    1  A    between atoms: C_1  and  C_2
REMARK    2  A    between atoms: C_5  and  C_9
REMARK    3  A    between atoms: C_6  and  C_8
REMARK    4  A    between atoms: C_10  and  C_11
REMARK    5  A    between atoms: C_12  and  N_17
REMARK    6  A    between atoms: C_13  and  C_16
REMARK                            x       y       z     vdW  Elec       q    Type
REMARK                         _______ _______ _______ _____ _____    ______ ____
ROOT
ATOM      1  C   UNL     1      -0.035   0.040  -2.486  0.00  0.00    +0.010 C 
ATOM      2  C   UNL     1      -0.042  -0.630  -3.650  0.00  0.00    +0.033 C 
ENDROOT
BRANCH   1   7
ATOM      3  C   UNL     1       0.063  -2.840   2.490  0.00  0.00    +0.044 C 
ATOM      4  C   UNL     1       0.041  -2.085   1.186  0.00  0.00    -0.050 A 
ATOM      5  C   UNL     1       0.039  -2.779  -0.011  0.00  0.00    +0.004 A 
ATOM      6  C   UNL     1       0.019  -2.095  -1.209  0.00  0.00    +0.008 A 
ATOM      7  C   UNL     1      -0.006  -0.698  -1.211  0.00  0.00    -0.022 A 
ATOM      8  C   UNL     1       0.002  -0.004   0.002  0.00  0.00    -0.043 A 
ATOM      9  C   UNL     1       0.023  -0.702   1.192  0.00  0.00    +0.007 A 
ATOM     10  C   UNL     1      -0.018   1.503   0.010  0.00  0.00    +0.044 C 
ENDBRANCH   1   7
BRANCH   2  11
ATOM     11  C   UNL     1      -0.071   0.108  -4.925  0.00  0.00    +0.127 A 
ATOM     12  C   UNL     1      -0.083  -0.457  -6.285  0.00  0.00    +0.094 A 
ATOM     13  C   UNL     1      -0.110   0.645  -7.077  0.00  0.00    +0.155 A 
ATOM     14  O   UNL     1      -0.113   1.711  -6.262  0.00  0.00    -0.357 OA
ATOM     15  N   UNL     1      -0.097   1.412  -5.092  0.00  0.00    -0.077 NA
ATOM     16  C   UNL     1      -0.133   0.667  -8.584  0.00  0.00    +0.091 C 
BRANCH  12  17
ATOM     17  N   UNL     1      -0.069  -1.808  -6.669  0.00  0.00    -0.354 N 
ATOM     18  H   UNL     1      -0.081  -2.077  -7.736  0.00  0.00    +0.142 HD
ATOM     19  H   UNL     1      -0.047  -2.597  -5.903  0.00  0.00    +0.142 HD
ENDBRANCH  12  17
ENDBRANCH   2  11
TORSDOF 3
