REMARK  Name = ZINC03851552
REMARK  2 active torsions:
REMARK  status: ('A' for Active; 'I' for Inactive)
REMARK    1  A    between atoms: C_5  and  C_10
REMARK    2  A    between atoms: C_5  and  O_12
REMARK                            x       y       z     vdW  Elec       q    Type
REMARK                         _______ _______ _______ _____ _____    ______ ____
ROOT
ATOM      1  C   UNL     1      -0.013   1.086   0.008  0.00  0.00    +0.018 C 
ATOM      2  C   UNL     1      -0.926   1.682  -1.125  0.00  0.00    +0.015 C 
ATOM      3  C   UNL     1      -0.890   3.197  -0.747  0.00  0.00    +0.054 C 
ATOM      4  C   UNL     1      -0.877   3.189   0.801  0.00  0.00    +0.173 C 
ATOM      5  C   UNL     1      -0.904   1.670   1.164  0.00  0.00    +0.055 C 
ATOM      6  C   UNL     1      -2.285   1.200   0.692  0.00  0.00    -0.024 C 
ATOM      7  C   UNL     1      -2.298   1.207  -0.631  0.00  0.00    -0.027 C 
ENDROOT
BRANCH   4   8
ATOM      8  C   UNL     1      -2.097   3.887   1.345  0.00  0.00    +0.388 C 
ATOM      9  O   UNL     1      -3.084   3.249   1.623  0.00  0.00    -0.243 OA
ATOM     10  O   UNL     1      -2.086   5.218   1.521  0.00  0.00    -0.243 OA
ENDBRANCH   4   8
BRANCH   4  11
ATOM     11  O   UNL     1       0.314   3.803   1.296  0.00  0.00    -0.377 OA
ATOM     12  H   UNL     1       0.412   4.732   1.044  0.00  0.00    +0.211 HD
ENDBRANCH   4  11
TORSDOF 2
