REMARK  Name = ZINC13564679
REMARK  14 active torsions:
REMARK  status: ('A' for Active; 'I' for Inactive)
REMARK    1  A    between atoms: C_1  and  C_2
REMARK    2  A    between atoms: C_2  and  C_3
REMARK    3  A    between atoms: C_2  and  C_4
REMARK    4  A    between atoms: C_2  and  C_5
REMARK    5  A    between atoms: C_8  and  C_23
REMARK    6  A    between atoms: N_14  and  C_16
REMARK    7  A    between atoms: C_23  and  N_65
REMARK    8  A    between atoms: C_24  and  C_25
REMARK    9  A    between atoms: C_24  and  N_65
REMARK   10  A    between atoms: C_25  and  C_26
REMARK   11  A    between atoms: C_29  and  O_34
REMARK   12  A    between atoms: C_30  and  O_32
REMARK   13  A    between atoms: O_32  and  C_33
REMARK   14  A    between atoms: O_34  and  C_35
REMARK                            x       y       z     vdW  Elec       q    Type
REMARK                         _______ _______ _______ _____ _____    ______ ____
ROOT
ATOM      1  C   UNL     1       3.392   2.370  -0.017  0.00  0.00    +0.078 A 
ATOM      2  C   UNL     1       2.377   1.383  -0.013  0.00  0.00    +0.041 A 
ATOM      3  C   UNL     1       2.397  -0.030  -0.021  0.00  0.00    +0.020 A 
ATOM      4  C   UNL     1       1.220  -0.709  -0.013  0.00  0.00    +0.001 A 
ATOM      5  C   UNL     1       0.002  -0.004   0.002  0.00  0.00    +0.252 A 
ATOM      6  O   UNL     1      -1.050  -0.621   0.009  0.00  0.00    -0.268 OA
ATOM      7  N   UNL     1      -0.016   1.342   0.009  0.00  0.00    -0.307 N 
ATOM      8  H   UNL     1      -0.865   1.811   0.016  0.00  0.00    +0.170 HD
ATOM      9  C   UNL     1       1.152   2.054   0.002  0.00  0.00    +0.145 A 
ATOM     10  N   UNL     1       1.431   3.384   0.006  0.00  0.00    -0.216 N 
ATOM     11  N   UNL     1       2.822   3.542  -0.006  0.00  0.00    -0.168 NA
ENDROOT
BRANCH  10  12
ATOM     12  C   UNL     1       0.488   4.421   0.021  0.00  0.00    +0.068 A 
ATOM     13  C   UNL     1      -0.712   4.278  -0.662  0.00  0.00    +0.029 A 
ATOM     14  C   UNL     1      -1.643   5.299  -0.642  0.00  0.00    +0.022 A 
ATOM     15  C   UNL     1      -1.375   6.467   0.050  0.00  0.00    +0.041 A 
ATOM     16  C   UNL     1      -0.177   6.614   0.727  0.00  0.00    +0.022 A 
ATOM     17  C   UNL     1       0.754   5.594   0.714  0.00  0.00    +0.029 A 
ATOM     18 CL   UNL     1      -2.543   7.751   0.068  0.00  0.00    -0.084 Cl
ENDBRANCH  10  12
BRANCH   1  20
ATOM     19  C   UNL     1       5.241   1.318  -1.291  0.00  0.00    +0.017 C 
ATOM     20  C   UNL     1       4.876   2.109  -0.033  0.00  0.00    +0.007 C 
ATOM     21  C   UNL     1       5.628   3.442  -0.033  0.00  0.00    +0.017 C 
ATOM     22  C   UNL     1       5.266   1.304   1.208  0.00  0.00    +0.017 C 
ENDBRANCH   1  20
BRANCH   4  23
ATOM     23  C   UNL     1       1.218  -2.215  -0.021  0.00  0.00    -0.041 C 
BRANCH  23  24
ATOM     24  N   UNL     1       1.109  -2.706   1.366  0.00  0.00    +0.382 N 
ATOM     25  H   UNL     1       0.236  -2.359   1.780  0.00  0.00    -0.085 HD
ATOM     26  H   UNL     1       1.908  -2.361   1.911  0.00  0.00    -0.085 HD
BRANCH  24  27
ATOM     27  C   UNL     1       1.105  -4.181   1.388  0.00  0.00    -0.077 C 
BRANCH  27  28
ATOM     28  C   UNL     1       0.991  -4.660   2.837  0.00  0.00    +0.016 C 
BRANCH  28  29
ATOM     29  C   UNL     1       0.987  -6.167   2.869  0.00  0.00    -0.045 A 
ATOM     30  C   UNL     1      -0.210  -6.854   2.796  0.00  0.00    +0.007 A 
ATOM     31  C   UNL     1      -0.219  -8.237   2.819  0.00  0.00    +0.049 A 
ATOM     32  C   UNL     1       0.972  -8.936   2.927  0.00  0.00    +0.161 A 
ATOM     33  C   UNL     1       2.177  -8.243   3.006  0.00  0.00    +0.162 A 
ATOM     34  C   UNL     1       2.179  -6.858   2.977  0.00  0.00    +0.053 A 
BRANCH  33  35
ATOM     35  O   UNL     1       3.349  -8.925   3.112  0.00  0.00    -0.491 OA
ATOM     36  C   UNL     1       4.546  -8.148   3.189  0.00  0.00    +0.277 C 
ENDBRANCH  33  35
BRANCH  32  37
ATOM     37  O   UNL     1       0.965 -10.295   2.955  0.00  0.00    -0.491 OA
ATOM     38  C   UNL     1      -0.308 -10.939   2.870  0.00  0.00    +0.277 C 
ENDBRANCH  32  37
ENDBRANCH  28  29
ENDBRANCH  27  28
ENDBRANCH  24  27
ENDBRANCH  23  24
ENDBRANCH   4  23
TORSDOF 9
