REMARK  Name = ZINC46730021
REMARK  9 active torsions:
REMARK  status: ('A' for Active; 'I' for Inactive)
REMARK    1  A    between atoms: C_1  and  C_2
REMARK    2  A    between atoms: C_2  and  C_3
REMARK    3  A    between atoms: C_3  and  C_28
REMARK    4  A    between atoms: N_6  and  C_10
REMARK    5  A    between atoms: C_10  and  C_11
REMARK    6  A    between atoms: N_13  and  C_14
REMARK    7  A    between atoms: N_17  and  C_20
REMARK    8  A    between atoms: C_20  and  C_21
REMARK    9  A    between atoms: C_28  and  C_29
REMARK                            x       y       z     vdW  Elec       q    Type
REMARK                         _______ _______ _______ _____ _____    ______ ____
ROOT
ATOM      1  C   UNL     1      -3.756   2.880   1.656  0.00  0.00    +0.231 C 
ATOM      2  O   UNL     1      -2.686   3.243   1.216  0.00  0.00    -0.274 OA
ATOM      3  N   UNL     1      -4.524   3.739   2.354  0.00  0.00    -0.311 N 
ATOM      4  H   UNL     1      -5.380   3.449   2.706  0.00  0.00    +0.149 HD
ENDROOT
BRANCH   3   5
ATOM      5  C   UNL     1      -4.066   5.112   2.583  0.00  0.00    +0.069 C 
ATOM      6  C   UNL     1      -3.167   5.152   3.822  0.00  0.00    +0.003 C 
ATOM      7  C   UNL     1      -2.757   6.599   4.101  0.00  0.00    -0.077 C 
ATOM      8  N   UNL     1      -3.955   7.415   4.337  0.00  0.00    +0.382 N 
ATOM      9  C   UNL     1      -4.787   7.439   3.127  0.00  0.00    -0.077 C 
ATOM     10  C   UNL     1      -5.275   6.024   2.811  0.00  0.00    +0.003 C 
ATOM     11  H   UNL     1      -4.484   7.020   5.100  0.00  0.00    -0.081 HD
BRANCH   8  12
ATOM     12  C   UNL     1      -3.553   8.785   4.681  0.00  0.00    -0.043 C 
BRANCH  12  13
ATOM     13  C   UNL     1      -4.774   9.591   5.042  0.00  0.00    -0.064 A 
ATOM     14  C   UNL     1      -5.462  10.280   4.062  0.00  0.00    +0.003 A 
ATOM     15  C   UNL     1      -6.582  11.019   4.393  0.00  0.00    +0.020 A 
ATOM     16  C   UNL     1      -7.014  11.069   5.706  0.00  0.00    +0.041 A 
ATOM     17  C   UNL     1      -6.324  10.379   6.687  0.00  0.00    +0.020 A 
ATOM     18  C   UNL     1      -5.208   9.636   6.354  0.00  0.00    +0.003 A 
ATOM     19 CL   UNL     1      -8.420  11.998   6.123  0.00  0.00    -0.084 Cl
ENDBRANCH  12  13
ENDBRANCH   8  12
ENDBRANCH   3   5
BRANCH   1  20
ATOM     20  C   UNL     1      -4.228   1.468   1.421  0.00  0.00    +0.213 C 
BRANCH  20  24
ATOM     21  C   UNL     1      -1.433  -0.534   0.013  0.00  0.00    +0.112 C 
ATOM     22  C   UNL     1      -2.205   0.042   1.184  0.00  0.00    +0.247 C 
ATOM     23  O   UNL     1      -1.958  -0.098   2.363  0.00  0.00    -0.273 OA
ATOM     24  N   UNL     1      -3.222   0.740   0.642  0.00  0.00    -0.215 N 
ATOM     25  C   UNL     1      -3.200   0.687  -0.695  0.00  0.00    +0.310 C 
ATOM     26  O   UNL     1      -4.016   1.240  -1.406  0.00  0.00    -0.252 OA
ATOM     27  N   UNL     1      -2.175  -0.046  -1.163  0.00  0.00    -0.285 N 
ATOM     28  H   UNL     1      -1.964  -0.220  -2.094  0.00  0.00    +0.151 HD
BRANCH  21  30
ATOM     29  C   UNL     1      -0.019   1.526   0.010  0.00  0.00    +0.006 C 
ATOM     30  C   UNL     1       0.002  -0.004   0.002  0.00  0.00    +0.032 C 
ENDBRANCH  21  30
BRANCH  21  31
ATOM     31  C   UNL     1      -1.441  -2.063   0.058  0.00  0.00    +0.032 C 
ATOM     32  C   UNL     1      -2.880  -2.570  -0.058  0.00  0.00    +0.006 C 
ENDBRANCH  21  31
ENDBRANCH  20  24
ENDBRANCH   1  20
TORSDOF 7
