REMARK  Name = ZINC48950956
REMARK  3 active torsions:
REMARK  status: ('A' for Active; 'I' for Inactive)
REMARK    1  A    between atoms: C_6  and  C_7
REMARK    2  A    between atoms: C_7  and  N_11
REMARK    3  A    between atoms: C_12  and  C_14
REMARK                            x       y       z     vdW  Elec       q    Type
REMARK                         _______ _______ _______ _____ _____    ______ ____
ROOT
ATOM      1  C   UNL     1      -1.291  -0.773   0.012  0.00  0.00    +0.060 C 
ATOM      2  C   UNL     1      -1.606  -1.429  -1.343  0.00  0.00    +0.030 C 
ATOM      3  C   UNL     1      -2.112  -2.644  -0.548  0.00  0.00    +0.005 C 
ATOM      4  C   UNL     1      -1.172  -2.196   0.584  0.00  0.00    +0.030 C 
ENDROOT
BRANCH   1  10
ATOM      5  C   UNL     1       1.126  -0.534  -0.594  0.00  0.00    +0.007 A 
ATOM      6  C   UNL     1       2.317   0.167  -0.583  0.00  0.00    +0.015 A 
ATOM      7  C   UNL     1       2.389   1.397   0.047  0.00  0.00    +0.018 A 
ATOM      8  C   UNL     1       1.269   1.923   0.665  0.00  0.00    +0.015 A 
ATOM      9  C   UNL     1       0.079   1.221   0.654  0.00  0.00    +0.007 A 
ATOM     10  C   UNL     1       0.007  -0.008   0.024  0.00  0.00    -0.024 A 
ATOM     11 BR   UNL     1       4.018   2.357   0.063  0.00  0.00    -0.050 Br
ENDBRANCH   1  10
BRANCH   1  12
ATOM     12  N   UNL     1      -2.408  -0.008   0.570  0.00  0.00    -0.301 N 
ATOM     13  C   UNL     1      -2.847   1.100  -0.060  0.00  0.00    +0.261 C 
ATOM     14  O   UNL     1      -2.379   1.412  -1.139  0.00  0.00    -0.269 OA
ATOM     15  H   UNL     1      -2.832  -0.298   1.393  0.00  0.00    +0.150 HD
BRANCH  13  16
ATOM     16  C   UNL     1      -3.889   1.929   0.555  0.00  0.00    +0.103 A 
ATOM     17  C   UNL     1      -4.434   3.079   0.025  0.00  0.00    +0.047 A 
ATOM     18  C   UNL     1      -5.388   3.542   0.938  0.00  0.00    +0.036 A 
ATOM     19  C   UNL     1      -5.407   2.685   1.988  0.00  0.00    +0.098 A 
ATOM     20  N   UNL     1      -4.505   1.697   1.764  0.00  0.00    -0.356 N 
ATOM     21  H   UNL     1      -4.322   0.953   2.359  0.00  0.00    +0.165 HD
ATOM     22 BR   UNL     1      -6.458   5.088   0.743  0.00  0.00    -0.049 Br
ENDBRANCH  13  16
ENDBRANCH   1  12
TORSDOF 3
