REMARK  Name = ZINC09634180
REMARK  12 active torsions:
REMARK  status: ('A' for Active; 'I' for Inactive)
REMARK    1  A    between atoms: C_1  and  N_2
REMARK    2  A    between atoms: N_2  and  C_3
REMARK    3  A    between atoms: C_9  and  C_11
REMARK    4  A    between atoms: C_16  and  C_17
REMARK    5  A    between atoms: C_17  and  O_19
REMARK    6  A    between atoms: O_19  and  C_20
REMARK    7  A    between atoms: C_20  and  C_21
REMARK    8  A    between atoms: N_23  and  C_24
REMARK    9  A    between atoms: C_24  and  C_25
REMARK   10  A    between atoms: C_25  and  C_26
REMARK   11  A    between atoms: C_29  and  S_32
REMARK   12  A    between atoms: S_32  and  N_35
REMARK                            x       y       z     vdW  Elec       q    Type
REMARK                         _______ _______ _______ _____ _____    ______ ____
ROOT
ATOM      1  O   UNL     1       8.635   1.748  -0.551  0.00  0.00    -0.452 OA
ENDROOT
BRANCH   1   2
ATOM      2  C   UNL     1       7.432   1.185  -0.328  0.00  0.00    +0.340 C 
ATOM      3  O   UNL     1       6.443   1.884  -0.229  0.00  0.00    -0.245 OA
BRANCH   2   9
ATOM      4  C   UNL     1       6.047  -0.886  -0.098  0.00  0.00    +0.051 A 
ATOM      5  C   UNL     1       5.952  -2.270   0.026  0.00  0.00    +0.014 A 
ATOM      6  C   UNL     1       7.097  -3.043   0.036  0.00  0.00    +0.001 A 
ATOM      7  C   UNL     1       8.343  -2.451  -0.067  0.00  0.00    +0.001 A 
ATOM      8  C   UNL     1       8.458  -1.079  -0.185  0.00  0.00    +0.016 A 
ATOM      9  C   UNL     1       7.315  -0.283  -0.202  0.00  0.00    +0.071 A 
BRANCH   4  12
ATOM     10  C   UNL     1       4.243  -0.962   2.071  0.00  0.00    +0.138 C 
ATOM     11  N   UNL     1       3.940  -0.136   0.900  0.00  0.00    -0.270 N 
ATOM     12  C   UNL     1       4.824  -0.054  -0.114  0.00  0.00    +0.251 C 
ATOM     13  O   UNL     1       4.616   0.702  -1.042  0.00  0.00    -0.270 OA
BRANCH  11  14
ATOM     14  C   UNL     1       2.734   0.569   0.835  0.00  0.00    +0.036 A 
ATOM     15  C   UNL     1       1.758   0.370   1.803  0.00  0.00    +0.023 A 
ATOM     16  C   UNL     1       0.569   1.068   1.736  0.00  0.00    +0.002 A 
ATOM     17  C   UNL     1       0.348   1.964   0.706  0.00  0.00    +0.000 A 
ATOM     18  C   UNL     1       1.318   2.165  -0.259  0.00  0.00    +0.002 A 
ATOM     19  C   UNL     1       2.510   1.471  -0.198  0.00  0.00    +0.023 A 
ENDBRANCH  11  14
ENDBRANCH   4  12
ENDBRANCH   2   9
ENDBRANCH   1   2
BRANCH   1  20
ATOM     20  C   UNL     1       8.675   3.195  -0.664  0.00  0.00    +0.328 C 
BRANCH  20  21
ATOM     21  C   UNL     1      10.093   3.640  -0.912  0.00  0.00    +0.251 C 
ATOM     22  O   UNL     1      10.982   2.819  -0.986  0.00  0.00    -0.272 OA
ATOM     23  N   UNL     1      10.373   4.952  -1.051  0.00  0.00    -0.312 N 
ATOM     24  H   UNL     1       9.661   5.608  -0.991  0.00  0.00    +0.149 HD
BRANCH  23  25
ATOM     25  C   UNL     1      11.751   5.385  -1.292  0.00  0.00    +0.109 C 
BRANCH  25  26
ATOM     26  C   UNL     1      11.793   6.910  -1.410  0.00  0.00    +0.054 C 
BRANCH  26  27
ATOM     27  C   UNL     1      13.212   7.355  -1.658  0.00  0.00    -0.046 A 
ATOM     28  C   UNL     1      14.039   7.652  -0.592  0.00  0.00    +0.005 A 
ATOM     29  C   UNL     1      15.341   8.056  -0.819  0.00  0.00    +0.029 A 
ATOM     30  C   UNL     1      15.813   8.173  -2.113  0.00  0.00    +0.105 A 
ATOM     31  C   UNL     1      14.984   7.881  -3.180  0.00  0.00    +0.029 A 
ATOM     32  C   UNL     1      13.683   7.473  -2.952  0.00  0.00    +0.005 A 
BRANCH  30  33
ATOM     33  S   UNL     1      17.472   8.693  -2.403  0.00  0.00    +0.056 S 
ATOM     34  O   UNL     1      18.207   8.379  -1.228  0.00  0.00    -0.153 OA
ATOM     35  O   UNL     1      17.835   8.197  -3.684  0.00  0.00    -0.153 OA
BRANCH  33  36
ATOM     36  N   UNL     1      17.453  10.344  -2.523  0.00  0.00    -0.204 NA
ATOM     37  H   UNL     1      16.617  10.828  -2.432  0.00  0.00    +0.144 HD
ATOM     38  H   UNL     1      18.278  10.828  -2.684  0.00  0.00    +0.144 HD
ENDBRANCH  33  36
ENDBRANCH  30  33
ENDBRANCH  26  27
ENDBRANCH  25  26
ENDBRANCH  23  25
ENDBRANCH  20  21
ENDBRANCH   1  20
TORSDOF 11
