REMARK  Name = ZINC65508574
REMARK  2 active torsions:
REMARK  status: ('A' for Active; 'I' for Inactive)
REMARK    1  A    between atoms: C_3  and  C_5
REMARK    2  A    between atoms: C_11  and  C_17
REMARK                            x       y       z     vdW  Elec       q    Type
REMARK                         _______ _______ _______ _____ _____    ______ ____
ROOT
ATOM      1  C   UNL     1       2.436  -0.980   0.053  0.00  0.00    +0.055 C 
ATOM      2  N   UNL     1       3.300  -0.849  -0.905  0.00  0.00    -0.156 NA
ATOM      3  N   UNL     1       4.093  -1.985  -1.067  0.00  0.00    -0.138 NA
ATOM      4  C   UNL     1       3.863  -2.862  -0.155  0.00  0.00    +0.133 C 
ATOM      5  C   UNL     1       2.629  -2.372   0.596  0.00  0.00    +0.109 C 
ATOM      6  C   UNL     1       3.022  -2.374   2.076  0.00  0.00    +0.044 C 
ATOM      7  C   UNL     1       3.410  -3.802   2.466  0.00  0.00    +0.105 C 
ATOM      8  C   UNL     1       4.350  -4.436   1.488  0.00  0.00    +0.219 C 
ATOM      9  O   UNL     1       4.999  -5.392   1.858  0.00  0.00    -0.275 OA
ATOM     10  N   UNL     1       4.512  -4.012   0.217  0.00  0.00    -0.272 N 
ATOM     11  H   UNL     1       5.076  -4.496  -0.407  0.00  0.00    +0.156 HD
ENDROOT
BRANCH   6  12
ATOM     12  C   UNL     1       4.194  -1.451   2.291  0.00  0.00    -0.037 C 
ATOM     13  C   UNL     1       5.412  -1.663   1.706  0.00  0.00    +0.004 C 
ATOM     14  C   UNL     1       6.495  -0.705   1.904  0.00  0.00    -0.002 C 
ATOM     15  C   UNL     1       6.480   0.220   2.871  0.00  0.00    +0.004 C 
ATOM     16  C   UNL     1       5.330   0.248   3.832  0.00  0.00    +0.158 C 
ATOM     17  C   UNL     1       4.113  -0.306   3.104  0.00  0.00    -0.014 C 
ATOM     18  C   UNL     1       3.109   0.534   3.404  0.00  0.00    +0.025 C 
ATOM     19  C   UNL     1       3.635   1.688   4.027  0.00  0.00    +0.106 C 
ATOM     20  N   UNL     1       4.918   1.574   4.269  0.00  0.00    -0.279 NA
ENDBRANCH   6  12
BRANCH   1  23
ATOM     21  C   UNL     1       0.059   1.482  -0.190  0.00  0.00    +0.001 C 
ATOM     22  C   UNL     1       1.595   1.415  -0.164  0.00  0.00    +0.009 C 
ATOM     23  C   UNL     1       1.446   0.051   0.530  0.00  0.00    +0.036 C 
ATOM     24  C   UNL     1       0.070  -0.056  -0.149  0.00  0.00    +0.009 C 
ENDBRANCH   1  23
TORSDOF 2
