REMARK  Name = ZINC12712519
REMARK  8 active torsions:
REMARK  status: ('A' for Active; 'I' for Inactive)
REMARK    1  A    between atoms: C_1  and  C_2
REMARK    2  A    between atoms: C_2  and  O_3
REMARK    3  A    between atoms: O_3  and  C_4
REMARK    4  A    between atoms: C_7  and  C_10
REMARK    5  A    between atoms: C_24  and  C_25
REMARK    6  A    between atoms: C_24  and  N_59
REMARK    7  A    between atoms: C_28  and  N_30
REMARK    8  A    between atoms: C_31  and  C_33
REMARK                            x       y       z     vdW  Elec       q    Type
REMARK                         _______ _______ _______ _____ _____    ______ ____
ROOT
ATOM      1  C   UNL     1      -2.473  -2.408   1.446  0.00  0.00    +0.011 C 
ATOM      2  C   UNL     1      -2.884  -2.622   2.884  0.00  0.00    +0.011 A 
ATOM      3  C   UNL     1      -2.688  -1.698   3.852  0.00  0.00    -0.022 A 
ATOM      4  C   UNL     1      -3.198  -2.255   5.085  0.00  0.00    +0.003 A 
ATOM      5  C   UNL     1      -3.264  -1.768   6.394  0.00  0.00    +0.010 A 
ATOM      6  C   UNL     1      -3.829  -2.591   7.336  0.00  0.00    +0.001 A 
ATOM      7  C   UNL     1      -4.313  -3.850   7.018  0.00  0.00    +0.002 A 
ATOM      8  C   UNL     1      -4.261  -4.358   5.732  0.00  0.00    +0.026 A 
ATOM      9  C   UNL     1      -3.694  -3.543   4.754  0.00  0.00    +0.047 A 
ATOM     10  N   UNL     1      -3.487  -3.728   3.416  0.00  0.00    -0.359 N 
ATOM     11  H   UNL     1      -3.732  -4.524   2.919  0.00  0.00    +0.166 HD
ATOM     12  C   UNL     1      -2.046  -0.356   3.603  0.00  0.00    +0.019 C 
ATOM     13  C   UNL     1      -2.046  -0.104   2.089  0.00  0.00    -0.072 C 
ATOM     14  N   UNL     1      -1.492  -1.296   1.409  0.00  0.00    +0.391 N 
ATOM     15  H   UNL     1      -0.638  -1.591   1.897  0.00  0.00    -0.080 HD
ENDROOT
BRANCH   1  19
ATOM     16  C   UNL     1      -0.612  -5.948  -0.058  0.00  0.00    +0.121 A 
ATOM     17  C   UNL     1      -1.934  -5.669  -0.376  0.00  0.00    +0.046 A 
ATOM     18  C   UNL     1      -2.533  -4.524   0.112  0.00  0.00    +0.006 A 
ATOM     19  C   UNL     1      -1.817  -3.656   0.916  0.00  0.00    -0.055 A 
ATOM     20  C   UNL     1      -0.498  -3.929   1.230  0.00  0.00    +0.006 A 
ATOM     21  C   UNL     1       0.104  -5.076   0.749  0.00  0.00    +0.046 A 
BRANCH  16  22
ATOM     22  O   UNL     1      -0.021  -7.075  -0.536  0.00  0.00    -0.492 OA
BRANCH  22  24
ATOM     23  C   UNL     1       1.832  -8.604  -0.795  0.00  0.00    +0.048 C 
ATOM     24  C   UNL     1       1.342  -7.298  -0.168  0.00  0.00    +0.225 C 
ENDBRANCH  22  24
ENDBRANCH  16  22
ENDBRANCH   1  19
BRANCH  14  25
ATOM     25  C   UNL     1      -1.157  -0.968   0.009  0.00  0.00    -0.034 C 
BRANCH  25  26
ATOM     26  C   UNL     1       0.002  -0.004   0.002  0.00  0.00    -0.025 A 
ATOM     27  C   UNL     1       1.331  -0.269  -0.012  0.00  0.00    +0.011 A 
ATOM     28  C   UNL     1       2.226   0.785  -0.015  0.00  0.00    +0.031 A 
ATOM     29  C   UNL     1       1.741   2.058  -0.004  0.00  0.00    +0.072 A 
ATOM     30  S   UNL     1      -0.022   1.781   0.012  0.00  0.00    -0.080 S 
BRANCH  29  31
ATOM     31  N   UNL     1       2.443   3.267  -0.004  0.00  0.00    -0.280 N 
ATOM     32  C   UNL     1       1.771   4.435   0.009  0.00  0.00    +0.214 C 
ATOM     33  O   UNL     1       0.558   4.438   0.021  0.00  0.00    -0.276 OA
ATOM     34  C   UNL     1       2.527   5.739   0.009  0.00  0.00    +0.109 C 
ATOM     35  H   UNL     1       3.413   3.265  -0.013  0.00  0.00    +0.155 HD
ENDBRANCH  29  31
ENDBRANCH  25  26
ENDBRANCH  14  25
TORSDOF 6
