REMARK  Name = ZINC37063064
REMARK  5 active torsions:
REMARK  status: ('A' for Active; 'I' for Inactive)
REMARK    1  A    between atoms: C_3  and  N_9
REMARK    2  A    between atoms: C_6  and  C_7
REMARK    3  A    between atoms: N_9  and  S_10
REMARK    4  A    between atoms: S_10  and  C_13
REMARK    5  A    between atoms: C_14  and  N_21
REMARK                            x       y       z     vdW  Elec       q    Type
REMARK                         _______ _______ _______ _____ _____    ______ ____
ROOT
ATOM      1  S   UNL     1       5.676   0.801  -0.043  0.00  0.00    +0.094 S 
ATOM      2  O   UNL     1       6.031   0.116   1.150  0.00  0.00    -0.148 OA
ATOM      3  O   UNL     1       5.842   0.224  -1.331  0.00  0.00    -0.148 OA
ENDROOT
BRANCH   1   4
ATOM      4  C   UNL     1       6.585   2.310  -0.048  0.00  0.00    +0.145 A 
ATOM      5  C   UNL     1       6.857   2.955  -1.248  0.00  0.00    +0.054 A 
ATOM      6  C   UNL     1       7.573   4.145  -1.247  0.00  0.00    +0.040 A 
ATOM      7  C   UNL     1       8.014   4.684  -0.053  0.00  0.00    +0.021 A 
ATOM      8  C   UNL     1       7.742   4.040   1.141  0.00  0.00    +0.032 A 
ATOM      9  C   UNL     1       7.024   2.857   1.143  0.00  0.00    +0.047 A 
ATOM     10 BR   UNL     1       6.648   1.984   2.778  0.00  0.00    -0.048 Br
ATOM     11 BR   UNL     1       8.989   6.304  -0.051  0.00  0.00    -0.050 Br
BRANCH   5  12
ATOM     12  N   UNL     1       6.411   2.408  -2.453  0.00  0.00    -0.356 N 
ATOM     13  H   UNL     1       5.661   1.792  -2.458  0.00  0.00    +0.142 HD
ATOM     14  H   UNL     1       6.851   2.643  -3.284  0.00  0.00    +0.142 HD
ENDBRANCH   5  12
ENDBRANCH   1   4
BRANCH   1  15
ATOM     15  N   UNL     1       4.074   1.195   0.096  0.00  0.00    -0.098 NA
BRANCH  15  18
ATOM     16  C   UNL     1       0.809  -0.467   0.272  0.00  0.00    +0.021 A 
ATOM     17  C   UNL     1       1.764   0.523   0.243  0.00  0.00    +0.028 A 
ATOM     18  C   UNL     1       3.111   0.191   0.126  0.00  0.00    +0.074 A 
ATOM     19  C   UNL     1       3.496  -1.144   0.038  0.00  0.00    +0.028 A 
ATOM     20  C   UNL     1       2.546  -2.140   0.067  0.00  0.00    +0.021 A 
ATOM     21  C   UNL     1       1.192  -1.809   0.184  0.00  0.00    +0.052 A 
BRANCH  21  22
ATOM     22  C   UNL     1       0.201  -2.842   0.215  0.00  0.00    +0.099 C 
ATOM     23  N   UNL     1      -0.585  -3.662   0.240  0.00  0.00    -0.191 NA
ENDBRANCH  21  22
ENDBRANCH  15  18
ENDBRANCH   1  15
TORSDOF 5
