REMARK  Name = ZINC63384206
REMARK  13 active torsions:
REMARK  status: ('A' for Active; 'I' for Inactive)
REMARK    1  A    between atoms: C_1  and  C_2
REMARK    2  A    between atoms: C_2  and  C_3
REMARK    3  A    between atoms: C_3  and  C_4
REMARK    4  A    between atoms: C_4  and  C_5
REMARK    5  A    between atoms: C_5  and  C_6
REMARK    6  A    between atoms: C_6  and  N_7
REMARK    7  A    between atoms: C_8  and  C_10
REMARK    8  A    between atoms: C_10  and  C_12
REMARK    9  A    between atoms: C_10  and  N_16
REMARK   10  A    between atoms: C_12  and  C_13
REMARK   11  A    between atoms: C_13  and  S_14
REMARK   12  A    between atoms: S_14  and  C_15
REMARK   13  A    between atoms: C_17  and  C_19
REMARK                            x       y       z     vdW  Elec       q    Type
REMARK                         _______ _______ _______ _____ _____    ______ ____
ROOT
ATOM      1  C   UNL     1       4.005  -9.960  -5.898  0.00  0.00    +0.167 C 
ATOM      2  C   UNL     1       2.634 -10.497  -6.352  0.00  0.00    +0.065 C 
ATOM      3  C   UNL     1       2.118 -11.382  -5.245  0.00  0.00    -0.034 C 
ATOM      4  C   UNL     1       0.947 -11.382  -4.614  0.00  0.00    -0.001 A 
ATOM      5  C   UNL     1      -0.280 -10.599  -4.831  0.00  0.00    +0.010 A 
ATOM      6  C   UNL     1      -1.307 -10.845  -3.975  0.00  0.00    +0.001 A 
ATOM      7  C   UNL     1      -1.236 -11.779  -2.937  0.00  0.00    +0.002 A 
ATOM      8  C   UNL     1      -0.150 -12.547  -2.669  0.00  0.00    +0.026 A 
ATOM      9  C   UNL     1       0.991 -12.385  -3.507  0.00  0.00    +0.043 A 
ATOM     10  N   UNL     1       2.139 -12.994  -3.493  0.00  0.00    -0.375 N 
ATOM     11  C   UNL     1       2.939 -12.498  -4.613  0.00  0.00    +0.131 C 
ATOM     12  C   UNL     1       4.259 -11.883  -4.148  0.00  0.00    +0.134 C 
ATOM     13  N   UNL     1       4.265 -10.460  -4.542  0.00  0.00    -0.276 N 
ATOM     14  C   UNL     1       4.527  -9.715  -3.451  0.00  0.00    +0.248 C 
ATOM     15  O   UNL     1       4.718  -8.515  -3.457  0.00  0.00    -0.270 OA
ATOM     16  C   UNL     1       4.550 -10.563  -2.257  0.00  0.00    +0.042 A 
ATOM     17  C   UNL     1       4.385 -11.914  -2.661  0.00  0.00    -0.013 A 
ATOM     18  C   UNL     1       4.362 -12.952  -1.757  0.00  0.00    +0.006 A 
ATOM     19  C   UNL     1       4.517 -12.624  -0.413  0.00  0.00    +0.000 A 
ATOM     20  C   UNL     1       4.689 -11.319   0.002  0.00  0.00    +0.001 A 
ATOM     21  C   UNL     1       4.709 -10.236  -0.908  0.00  0.00    +0.013 A 
ATOM     22  H   UNL     1       2.418 -13.664  -2.848  0.00  0.00    +0.160 HD
ENDROOT
BRANCH   1  24
ATOM     23  N   UNL     1       3.193  -7.795  -5.020  0.00  0.00    -0.302 N 
ATOM     24  C   UNL     1       3.985  -8.453  -5.890  0.00  0.00    +0.235 C 
ATOM     25  O   UNL     1       4.680  -7.833  -6.666  0.00  0.00    -0.274 OA
ATOM     26  H   UNL     1       2.637  -8.291  -4.399  0.00  0.00    +0.150 HD
BRANCH  23  27
ATOM     27  C   UNL     1       3.173  -6.330  -5.012  0.00  0.00    +0.160 C 
BRANCH  27  29
ATOM     28  N   UNL     1       2.659  -4.518  -3.408  0.00  0.00    -0.314 N 
ATOM     29  C   UNL     1       2.749  -5.841  -3.651  0.00  0.00    +0.233 C 
ATOM     30  O   UNL     1       2.489  -6.637  -2.774  0.00  0.00    -0.274 OA
ATOM     31  H   UNL     1       2.867  -3.881  -4.109  0.00  0.00    +0.149 HD
BRANCH  28  32
ATOM     32  C   UNL     1       2.246  -4.043  -2.086  0.00  0.00    +0.104 C 
BRANCH  32  33
ATOM     33  C   UNL     1       2.225  -2.513  -2.077  0.00  0.00    +0.019 C 
BRANCH  33  34
ATOM     34  C   UNL     1       1.794  -2.016  -0.696  0.00  0.00    +0.002 C 
BRANCH  34  35
ATOM     35  C   UNL     1       1.774  -0.486  -0.687  0.00  0.00    -0.000 C 
BRANCH  35  37
ATOM     36  C   UNL     1       1.322   1.540   0.703  0.00  0.00    +0.004 C 
ATOM     37  C   UNL     1       1.343   0.010   0.695  0.00  0.00    -0.003 C 
ENDBRANCH  35  37
ENDBRANCH  34  35
ENDBRANCH  33  34
ENDBRANCH  32  33
ENDBRANCH  28  32
ENDBRANCH  27  29
BRANCH  27  38
ATOM     38  C   UNL     1       2.184  -5.827  -6.066  0.00  0.00    +0.042 C 
BRANCH  38  39
ATOM     39  C   UNL     1       2.682  -6.218  -7.459  0.00  0.00    +0.071 C 
BRANCH  39  40
ATOM     40  S   UNL     1       1.509  -5.622  -8.708  0.00  0.00    -0.164 S 
ATOM     41  C   UNL     1       2.235  -6.159 -10.282  0.00  0.00    +0.084 C 
ENDBRANCH  39  40
ENDBRANCH  38  39
ENDBRANCH  27  38
ENDBRANCH  23  27
ENDBRANCH   1  24
TORSDOF 11
