REMARK  Name = ZINC13122596
REMARK  8 active torsions:
REMARK  status: ('A' for Active; 'I' for Inactive)
REMARK    1  A    between atoms: C_1  and  C_2
REMARK    2  A    between atoms: C_2  and  C_3
REMARK    3  A    between atoms: C_6  and  O_9
REMARK    4  A    between atoms: O_9  and  C_10
REMARK    5  A    between atoms: C_10  and  C_11
REMARK    6  A    between atoms: N_13  and  C_14
REMARK    7  A    between atoms: C_17  and  C_21
REMARK    8  A    between atoms: C_18  and  O_20
REMARK                            x       y       z     vdW  Elec       q    Type
REMARK                         _______ _______ _______ _____ _____    ______ ____
ROOT
ATOM      1  C   UNL     1      -9.336  -3.558  -1.892  0.00  0.00    +0.037 A 
ATOM      2  C   UNL     1     -10.100  -3.207  -0.783  0.00  0.00    +0.024 A 
ATOM      3  C   UNL     1     -11.341  -3.772  -0.590  0.00  0.00    +0.018 A 
ATOM      4  C   UNL     1     -11.835  -4.702  -1.509  0.00  0.00    +0.078 A 
ATOM      5  C   UNL     1     -11.064  -5.054  -2.625  0.00  0.00    +0.131 A 
ATOM      6  C   UNL     1      -9.821  -4.476  -2.813  0.00  0.00    +0.069 A 
ENDROOT
BRANCH   4   7
ATOM      7  C   UNL     1     -13.163  -5.310  -1.304  0.00  0.00    +0.232 A 
ATOM      8  N   UNL     1     -13.716  -6.192  -2.099  0.00  0.00    -0.209 NA
ATOM      9  C   UNL     1     -14.933  -6.527  -1.600  0.00  0.00    +0.110 A 
ATOM     10  C   UNL     1     -15.941  -7.399  -2.019  0.00  0.00    +0.031 A 
ATOM     11  C   UNL     1     -17.093  -7.521  -1.274  0.00  0.00    +0.002 A 
ATOM     12  C   UNL     1     -17.258  -6.783  -0.112  0.00  0.00    +0.004 A 
ATOM     13  C   UNL     1     -16.272  -5.917   0.315  0.00  0.00    +0.048 A 
ATOM     14  C   UNL     1     -15.105  -5.783  -0.422  0.00  0.00    +0.156 A 
ATOM     15  O   UNL     1     -13.983  -5.044  -0.270  0.00  0.00    -0.435 OA
ENDBRANCH   4   7
BRANCH   1  18
ATOM     16  C   UNL     1      -7.299  -2.699  -1.019  0.00  0.00    +0.255 C 
ATOM     17  O   UNL     1      -7.721  -2.870   0.105  0.00  0.00    -0.272 OA
ATOM     18  N   UNL     1      -8.079  -2.980  -2.082  0.00  0.00    -0.283 N 
ATOM     19  H   UNL     1      -7.766  -2.781  -2.978  0.00  0.00    +0.155 HD
BRANCH  16  20
ATOM     20  C   UNL     1      -5.902  -2.172  -1.227  0.00  0.00    +0.324 C 
BRANCH  20  21
ATOM     21  O   UNL     1      -5.282  -1.953   0.042  0.00  0.00    -0.483 OA
BRANCH  21  25
ATOM     22  C   UNL     1      -1.420  -0.503   0.012  0.00  0.00    -0.047 A 
ATOM     23  C   UNL     1      -2.054  -0.754   1.215  0.00  0.00    +0.007 A 
ATOM     24  C   UNL     1      -3.347  -1.239   1.228  0.00  0.00    +0.046 A 
ATOM     25  C   UNL     1      -4.010  -1.475   0.032  0.00  0.00    +0.121 A 
ATOM     26  C   UNL     1      -3.372  -1.223  -1.174  0.00  0.00    +0.046 A 
ATOM     27  C   UNL     1      -2.080  -0.732  -1.181  0.00  0.00    +0.007 A 
BRANCH  22  29
ATOM     28  C   UNL     1      -0.037   1.555   0.018  0.00  0.00    +0.009 C 
ATOM     29  C   UNL     1      -0.009   0.025   0.001  0.00  0.00    +0.032 C 
ENDBRANCH  22  29
ENDBRANCH  21  25
ENDBRANCH  20  21
ENDBRANCH  16  20
ENDBRANCH   1  18
BRANCH   5  30
ATOM     30  O   UNL     1     -11.538  -5.957  -3.522  0.00  0.00    -0.506 OA
ATOM     31  H   UNL     1     -12.046  -5.564  -4.245  0.00  0.00    +0.292 HD
ENDBRANCH   5  30
TORSDOF 7
