REMARK  Name = ZINC45064037
REMARK  6 active torsions:
REMARK  status: ('A' for Active; 'I' for Inactive)
REMARK    1  A    between atoms: C_1  and  C_2
REMARK    2  A    between atoms: C_2  and  C_3
REMARK    3  A    between atoms: C_3  and  N_4
REMARK    4  A    between atoms: C_6  and  N_22
REMARK    5  A    between atoms: C_8  and  C_9
REMARK    6  A    between atoms: C_15  and  C_17
REMARK                            x       y       z     vdW  Elec       q    Type
REMARK                         _______ _______ _______ _____ _____    ______ ____
ROOT
ATOM      1  C   UNL     1      -1.746  -2.046  -2.012  0.00  0.00    +0.263 C 
ATOM      2  O   UNL     1      -2.316  -3.062  -2.365  0.00  0.00    -0.268 OA
ATOM      3  N   UNL     1      -2.303  -0.843  -2.252  0.00  0.00    -0.293 N 
ATOM      4  C   UNL     1      -1.674   0.464  -1.987  0.00  0.00    +0.108 C 
ATOM      5  C   UNL     1      -2.378   1.447  -2.955  0.00  0.00    +0.021 C 
ATOM      6  C   UNL     1      -3.834   0.911  -2.939  0.00  0.00    +0.024 C 
ATOM      7  C   UNL     1      -3.637  -0.615  -2.828  0.00  0.00    +0.080 C 
ENDROOT
BRANCH   1  12
ATOM      8  N   UNL     1       0.283  -3.276  -1.121  0.00  0.00    -0.341 N 
ATOM      9  C   UNL     1       1.423  -2.947  -0.455  0.00  0.00    +0.109 A 
ATOM     10  C   UNL     1       1.423  -1.608  -0.224  0.00  0.00    +0.043 A 
ATOM     11  C   UNL     1       0.242  -1.080  -0.765  0.00  0.00    +0.055 A 
ATOM     12  C   UNL     1      -0.453  -2.132  -1.325  0.00  0.00    +0.106 A 
BRANCH  10  13
ATOM     13  N   UNL     1       2.428  -0.881   0.440  0.00  0.00    -0.357 N 
ATOM     14  H   UNL     1       3.212  -1.338   0.781  0.00  0.00    +0.142 HD
ATOM     15  H   UNL     1       2.337   0.078   0.557  0.00  0.00    +0.142 HD
ENDBRANCH  10  13
BRANCH   8  16
ATOM     16  C   UNL     1      -0.093  -4.623  -1.556  0.00  0.00    +0.122 C 
BRANCH  16  18
ATOM     17  C   UNL     1      -0.155  -6.192  -3.499  0.00  0.00    +0.005 C 
ATOM     18  C   UNL     1       0.346  -4.833  -3.006  0.00  0.00    +0.018 C 
ENDBRANCH  16  18
ENDBRANCH   8  16
ENDBRANCH   1  12
BRANCH   7  19
ATOM     19  C   UNL     1      -4.708  -1.210  -1.911  0.00  0.00    +0.010 C 
ATOM     20  C   UNL     1      -4.625  -2.750  -1.931  0.00  0.00    +0.005 C 
ATOM     21  C   UNL     1      -6.102  -3.211  -1.861  0.00  0.00    +0.000 C 
ATOM     22  C   UNL     1      -6.829  -2.165  -2.743  0.00  0.00    +0.000 C 
ATOM     23  C   UNL     1      -6.109  -0.838  -2.427  0.00  0.00    +0.005 C 
ENDBRANCH   7  19
TORSDOF 5
