REMARK  Name = ZINC22508042
REMARK  5 active torsions:
REMARK  status: ('A' for Active; 'I' for Inactive)
REMARK    1  A    between atoms: C_1  and  C_2
REMARK    2  A    between atoms: C_2  and  C_7
REMARK    3  A    between atoms: N_9  and  N_10
REMARK    4  A    between atoms: N_10  and  C_11
REMARK    5  A    between atoms: C_11  and  C_12
REMARK                            x       y       z     vdW  Elec       q    Type
REMARK                         _______ _______ _______ _____ _____    ______ ____
ROOT
ATOM      1  C   UNL     1       5.433   3.173  -2.032  0.00  0.00    +0.234 C 
ATOM      2  O   UNL     1       5.790   3.512  -0.924  0.00  0.00    -0.274 OA
ATOM      3  N   UNL     1       4.193   2.677  -2.219  0.00  0.00    -0.264 N 
ATOM      4  C   UNL     1       3.325   2.554  -1.141  0.00  0.00    +0.165 A 
ATOM      5  N   UNL     1       2.087   2.098  -1.121  0.00  0.00    -0.229 NA
ATOM      6  C   UNL     1       1.395   2.049  -0.000  0.00  0.00    +0.054 A 
ATOM      7  C   UNL     1       1.983   2.480   1.142  0.00  0.00    +0.014 A 
ATOM      8  S   UNL     1       3.590   2.962   0.527  0.00  0.00    -0.057 S 
ATOM      9  C   UNL     1       1.434   2.536   2.545  0.00  0.00    +0.044 C 
ATOM     10  C   UNL     1       0.335   1.484   2.704  0.00  0.00    +0.005 C 
ATOM     11  C   UNL     1       0.157   1.153   4.187  0.00  0.00    +0.000 C 
ATOM     12  C   UNL     1      -1.244   0.581   4.417  0.00  0.00    +0.000 C 
ATOM     13  C   UNL     1      -1.468  -0.609   3.482  0.00  0.00    +0.000 C 
ATOM     14  C   UNL     1      -2.087  -0.119   2.172  0.00  0.00    +0.000 C 
ATOM     15  C   UNL     1      -1.909  -1.188   1.092  0.00  0.00    +0.000 C 
ATOM     16  C   UNL     1      -1.420  -0.532  -0.200  0.00  0.00    +0.000 C 
ATOM     17  C   UNL     1       0.002  -0.004   0.002  0.00  0.00    +0.006 C 
ATOM     18  C   UNL     1      -0.019   1.526   0.010  0.00  0.00    +0.056 C 
ATOM     19  H   UNL     1       3.869   2.370  -3.224  0.00  0.00    +0.157 HD
ENDROOT
BRANCH   1  20
ATOM     20  C   UNL     1       6.375   3.306  -3.201  0.00  0.00    +0.198 C 
BRANCH  20  21
ATOM     21  N   UNL     1       7.651   3.867  -2.739  0.00  0.00    -0.232 NA
ATOM     22  H   UNL     1       7.510   4.748  -2.268  0.00  0.00    +0.145 HD
BRANCH  21  25
ATOM     23  C   UNL     1       9.762   4.501  -3.554  0.00  0.00    +0.286 C 
ATOM     24  O   UNL     1      10.091   4.831  -2.435  0.00  0.00    -0.269 OA
ATOM     25  N   UNL     1       8.530   4.002  -3.776  0.00  0.00    -0.246 N 
ATOM     26  H   UNL     1       8.233   3.702  -4.792  0.00  0.00    +0.169 HD
BRANCH  23  28
ATOM     27  C   UNL     1      10.897   3.305  -5.410  0.00  0.00    +0.085 C 
ATOM     28  C   UNL     1      10.732   4.649  -4.698  0.00  0.00    +0.247 C 
ATOM     29  O   UNL     1      12.007   5.087  -4.197  0.00  0.00    -0.339 OA
ATOM     30  C   UNL     1      12.521   5.975  -5.219  0.00  0.00    +0.192 C 
ATOM     31  C   UNL     1      11.227   6.674  -5.709  0.00  0.00    +0.192 C 
ATOM     32  O   UNL     1      10.239   5.627  -5.624  0.00  0.00    -0.339 OA
ENDBRANCH  23  28
ENDBRANCH  21  25
ENDBRANCH  20  21
ENDBRANCH   1  20
TORSDOF 4
