REMARK  Name = ZINC36649880
REMARK  3 active torsions:
REMARK  status: ('A' for Active; 'I' for Inactive)
REMARK    1  A    between atoms: C_7  and  C_13
REMARK    2  A    between atoms: N_15  and  C_16
REMARK    3  A    between atoms: C_19  and  C_22
REMARK                            x       y       z     vdW  Elec       q    Type
REMARK                         _______ _______ _______ _____ _____    ______ ____
ROOT
ATOM      1  C   UNL     1       1.321  -2.677  -1.444  0.00  0.00    +0.225 C 
ATOM      2  O   UNL     1       1.354  -1.883  -2.360  0.00  0.00    -0.275 OA
ATOM      3  N   UNL     1       1.359  -4.000  -1.698  0.00  0.00    -0.285 N 
ATOM      4  H   UNL     1       1.400  -4.634  -0.965  0.00  0.00    +0.155 HD
ENDROOT
BRANCH   1  11
ATOM      5  C   UNL     1      -0.019   1.375   0.019  0.00  0.00    +0.000 A 
ATOM      6  C   UNL     1       1.165   2.089   0.003  0.00  0.00    +0.002 A 
ATOM      7  C   UNL     1       2.375   1.423  -0.021  0.00  0.00    +0.023 A 
ATOM      8  C   UNL     1       2.401   0.035  -0.029  0.00  0.00    +0.037 A 
ATOM      9  C   UNL     1       1.210  -0.679  -0.013  0.00  0.00    -0.014 A 
ATOM     10  C   UNL     1       0.003  -0.007   0.011  0.00  0.00    +0.006 A 
ATOM     11  C   UNL     1       1.238  -2.185  -0.022  0.00  0.00    +0.116 C 
ATOM     12  C   UNL     1       2.457  -2.678   0.759  0.00  0.00    +0.113 C 
ATOM     13  C   UNL     1       3.688  -1.940   0.307  0.00  0.00    +0.218 C 
ATOM     14  O   UNL     1       4.753  -2.520   0.266  0.00  0.00    -0.275 OA
ATOM     15  N   UNL     1       3.622  -0.645  -0.053  0.00  0.00    -0.285 N 
ATOM     16  H   UNL     1       4.427  -0.181  -0.331  0.00  0.00    +0.155 HD
ENDBRANCH   1  11
BRANCH   3  17
ATOM     17  C   UNL     1       1.339  -4.460  -3.019  0.00  0.00    +0.033 A 
ATOM     18  C   UNL     1       1.984  -3.737  -4.015  0.00  0.00    +0.024 A 
ATOM     19  C   UNL     1       1.966  -4.188  -5.318  0.00  0.00    +0.012 A 
ATOM     20  C   UNL     1       1.298  -5.370  -5.636  0.00  0.00    +0.002 A 
ATOM     21  C   UNL     1       0.651  -6.093  -4.635  0.00  0.00    +0.012 A 
ATOM     22  C   UNL     1       0.677  -5.641  -3.333  0.00  0.00    +0.024 A 
BRANCH  20  23
ATOM     23  C   UNL     1       1.276  -5.856  -7.037  0.00  0.00    +0.090 A 
ATOM     24  C   UNL     1       0.662  -6.981  -7.479  0.00  0.00    +0.121 A 
ATOM     25  N   UNL     1       0.883  -7.069  -8.850  0.00  0.00    -0.300 N 
ATOM     26  C   UNL     1       0.562  -7.918  -9.887  0.00  0.00    +0.100 A 
ATOM     27  C   UNL     1       0.973  -7.663 -11.129  0.00  0.00    +0.067 A 
ATOM     28  S   UNL     1       1.880  -6.140 -10.912  0.00  0.00    -0.058 S 
ATOM     29  C   UNL     1       1.635  -5.966  -9.160  0.00  0.00    +0.178 A 
ATOM     30  N   UNL     1       1.858  -5.254  -8.094  0.00  0.00    -0.221 NA
ENDBRANCH  20  23
ENDBRANCH   3  17
TORSDOF 3
