REMARK  Name = ZINC59795438
REMARK  7 active torsions:
REMARK  status: ('A' for Active; 'I' for Inactive)
REMARK    1  A    between atoms: C_6  and  C_7
REMARK    2  A    between atoms: C_10  and  S_13
REMARK    3  A    between atoms: S_13  and  C_14
REMARK    4  A    between atoms: C_14  and  C_15
REMARK    5  A    between atoms: N_17  and  C_18
REMARK    6  A    between atoms: C_21  and  S_24
REMARK    7  A    between atoms: S_24  and  N_27
REMARK                            x       y       z     vdW  Elec       q    Type
REMARK                         _______ _______ _______ _____ _____    ______ ____
ROOT
ATOM      1  C   UNL     1      -0.109  -7.159  -0.619  0.00  0.00    +0.227 C 
ATOM      2  O   UNL     1       0.596  -7.983  -1.163  0.00  0.00    -0.275 OA
ATOM      3  N   UNL     1      -1.256  -7.541  -0.025  0.00  0.00    -0.285 N 
ATOM      4  H   UNL     1      -1.786  -6.895   0.467  0.00  0.00    +0.155 HD
ENDROOT
BRANCH   3   5
ATOM      5  C   UNL     1      -1.684  -8.870  -0.118  0.00  0.00    +0.034 A 
ATOM      6  C   UNL     1      -3.039  -9.161  -0.209  0.00  0.00    +0.025 A 
ATOM      7  C   UNL     1      -3.458 -10.474  -0.300  0.00  0.00    +0.030 A 
ATOM      8  C   UNL     1      -2.529 -11.499  -0.303  0.00  0.00    +0.106 A 
ATOM      9  C   UNL     1      -1.179 -11.213  -0.213  0.00  0.00    +0.030 A 
ATOM     10  C   UNL     1      -0.754  -9.902  -0.127  0.00  0.00    +0.025 A 
BRANCH   8  11
ATOM     11  S   UNL     1      -3.067 -13.172  -0.420  0.00  0.00    +0.061 S 
ATOM     12  O   UNL     1      -2.038 -13.971   0.147  0.00  0.00    -0.153 OA
ATOM     13  O   UNL     1      -4.405 -13.203   0.057  0.00  0.00    -0.153 OA
BRANCH  11  14
ATOM     14  N   UNL     1      -3.130 -13.555  -2.030  0.00  0.00    -0.177 NA
ATOM     15  C   UNL     1      -4.360 -13.318  -2.751  0.00  0.00    +0.109 C 
ATOM     16  C   UNL     1      -5.266 -14.571  -2.658  0.00  0.00    +0.017 C 
ATOM     17  C   UNL     1      -4.711 -15.664  -3.470  0.00  0.00    +0.001 C 
ATOM     18  C   UNL     1      -3.341 -16.154  -3.013  0.00  0.00    +0.001 C 
ATOM     19  C   UNL     1      -2.269 -15.284  -3.621  0.00  0.00    +0.017 C 
ATOM     20  C   UNL     1      -1.925 -14.117  -2.671  0.00  0.00    +0.109 C 
ENDBRANCH  11  14
ENDBRANCH   8  11
ENDBRANCH   3   5
BRANCH   1  21
ATOM     21  C   UNL     1       0.299  -5.709  -0.608  0.00  0.00    +0.173 C 
BRANCH  21  22
ATOM     22  S   UNL     1       1.877  -5.517  -1.481  0.00  0.00    -0.077 S 
BRANCH  22  26
ATOM     23  C   UNL     1       2.022  -1.679  -0.915  0.00  0.00    +0.182 A 
ATOM     24  N   UNL     1       1.457  -2.889  -0.795  0.00  0.00    -0.201 NA
ATOM     25  H   UNL     1       4.025  -3.568  -2.385  0.00  0.00    +0.191 HD
ATOM     26  C   UNL     1       2.213  -3.791  -1.382  0.00  0.00    +0.185 A 
ATOM     27  N   UNL     1       3.293  -3.161  -1.896  0.00  0.00    -0.253 N 
ATOM     28  N   UNL     1       3.145  -1.799  -1.587  0.00  0.00    -0.152 NA
BRANCH  23  34
ATOM     29  C   UNL     1       2.152   0.788  -0.574  0.00  0.00    +0.013 A 
ATOM     30  C   UNL     1       1.632   1.965  -0.076  0.00  0.00    +0.021 A 
ATOM     31  C   UNL     1       0.430   1.957   0.612  0.00  0.00    +0.041 A 
ATOM     32  C   UNL     1      -0.254   0.769   0.804  0.00  0.00    +0.021 A 
ATOM     33  C   UNL     1       0.258  -0.413   0.311  0.00  0.00    +0.013 A 
ATOM     34  C   UNL     1       1.467  -0.410  -0.382  0.00  0.00    +0.021 A 
ATOM     35 CL   UNL     1      -0.219   3.441   1.236  0.00  0.00    -0.084 Cl
ENDBRANCH  23  34
ENDBRANCH  22  26
ENDBRANCH  21  22
ENDBRANCH   1  21
TORSDOF 7
