REMARK  Name = ZINC09828939
REMARK  9 active torsions:
REMARK  status: ('A' for Active; 'I' for Inactive)
REMARK    1  A    between atoms: C_4  and  C_7
REMARK    2  A    between atoms: C_7  and  C_8
REMARK    3  A    between atoms: C_8  and  N_9
REMARK    4  A    between atoms: C_10  and  C_12
REMARK    5  A    between atoms: N_14  and  C_15
REMARK    6  A    between atoms: C_15  and  C_16
REMARK    7  A    between atoms: C_16  and  C_18
REMARK    8  A    between atoms: C_16  and  N_63
REMARK    9  A    between atoms: N_25  and  C_28
REMARK                            x       y       z     vdW  Elec       q    Type
REMARK                         _______ _______ _______ _____ _____    ______ ____
ROOT
ATOM      1  C   UNL     1      -0.475   1.345  -7.224  0.00  0.00    +0.017 C 
ENDROOT
BRANCH   1   7
ATOM      2  C   UNL     1       0.020  -0.543  -5.791  0.00  0.00    -0.059 C 
ATOM      3  C   UNL     1      -0.039  -2.070  -5.695  0.00  0.00    +0.086 C 
ATOM      4  N   UNL     1       0.794  -2.657  -6.754  0.00  0.00    -0.331 N 
ATOM      5  C   UNL     1       0.328  -2.234  -8.082  0.00  0.00    +0.086 C 
ATOM      6  C   UNL     1       0.387  -0.707  -8.177  0.00  0.00    -0.059 C 
ATOM      7  N   UNL     1      -0.472  -0.130  -7.122  0.00  0.00    +0.389 N 
ATOM      8  H   UNL     1      -1.431  -0.475  -7.246  0.00  0.00    -0.081 HD
BRANCH   4   9
ATOM      9  C   UNL     1       0.822  -4.051  -6.654  0.00  0.00    +0.065 A 
ATOM     10  C   UNL     1       1.614  -4.795  -7.518  0.00  0.00    +0.026 A 
ATOM     11  C   UNL     1       1.642  -6.173  -7.414  0.00  0.00    +0.002 A 
ATOM     12  C   UNL     1       0.877  -6.812  -6.457  0.00  0.00    +0.003 A 
ATOM     13  C   UNL     1       0.083  -6.076  -5.596  0.00  0.00    +0.040 A 
ATOM     14  C   UNL     1       0.052  -4.697  -5.691  0.00  0.00    +0.144 A 
ATOM     15  F   UNL     1      -0.724  -3.978  -4.852  0.00  0.00    -0.204 F 
ENDBRANCH   4   9
ENDBRANCH   1   7
BRANCH   1  16
ATOM     16  C   UNL     1      -0.985   1.741  -8.586  0.00  0.00    +0.093 A 
ATOM     17  C   UNL     1      -0.516   2.753  -9.338  0.00  0.00    +0.043 A 
ATOM     18  C   UNL     1      -1.276   2.763 -10.530  0.00  0.00    +0.041 A 
ATOM     19  C   UNL     1      -2.169   1.762 -10.432  0.00  0.00    +0.195 A 
ATOM     20  O   UNL     1      -1.988   1.146  -9.252  0.00  0.00    -0.469 OA
ENDBRANCH   1  16
BRANCH   1  21
ATOM     21  C   UNL     1      -1.401   1.915  -6.147  0.00  0.00    +0.097 C 
BRANCH  21  24
ATOM     22  C   UNL     1      -3.732   1.701  -5.468  0.00  0.00    +0.299 C 
ATOM     23  O   UNL     1      -3.553   2.605  -4.677  0.00  0.00    -0.265 OA
ATOM     24  N   UNL     1      -2.718   1.281  -6.250  0.00  0.00    -0.309 N 
ATOM     25  H   UNL     1      -2.861   0.558  -6.882  0.00  0.00    +0.149 HD
BRANCH  22  27
ATOM     26  N   UNL     1      -6.088   1.474  -4.790  0.00  0.00    -0.307 N 
ATOM     27  C   UNL     1      -5.075   1.054  -5.572  0.00  0.00    +0.299 C 
ATOM     28  O   UNL     1      -5.253   0.150  -6.362  0.00  0.00    -0.265 OA
ATOM     29  H   UNL     1      -5.946   2.197  -4.158  0.00  0.00    +0.149 HD
BRANCH  26  30
ATOM     30  C   UNL     1      -7.405   0.840  -4.892  0.00  0.00    +0.109 C 
BRANCH  30  31
ATOM     31  C   UNL     1      -8.367   1.499  -3.902  0.00  0.00    +0.054 C 
BRANCH  31  35
ATOM     32  C   UNL     1     -12.206  -0.349  -4.202  0.00  0.00    +0.000 A 
ATOM     33  C   UNL     1     -11.268  -0.845  -3.316  0.00  0.00    +0.000 A 
ATOM     34  C   UNL     1     -10.025  -0.247  -3.219  0.00  0.00    +0.004 A 
ATOM     35  C   UNL     1      -9.721   0.847  -4.008  0.00  0.00    -0.046 A 
ATOM     36  C   UNL     1     -10.662   1.346  -4.890  0.00  0.00    +0.004 A 
ATOM     37  C   UNL     1     -11.902   0.745  -4.990  0.00  0.00    +0.000 A 
ENDBRANCH  31  35
ENDBRANCH  30  31
ENDBRANCH  26  30
ENDBRANCH  22  27
ENDBRANCH  21  24
ENDBRANCH   1  21
TORSDOF 9
