REMARK  Name = ZINC36597612
REMARK  17 active torsions:
REMARK  status: ('A' for Active; 'I' for Inactive)
REMARK    1  A    between atoms: C_1  and  C_2
REMARK    2  A    between atoms: C_5  and  C_7
REMARK    3  A    between atoms: C_7  and  N_8
REMARK    4  A    between atoms: N_8  and  C_9
REMARK    5  A    between atoms: C_9  and  C_11
REMARK    6  A    between atoms: C_9  and  C_18
REMARK    7  A    between atoms: N_20  and  C_21
REMARK    8  A    between atoms: C_21  and  C_22
REMARK    9  A    between atoms: C_21  and  C_23
REMARK   10  A    between atoms: C_21  and  C_24
REMARK   11  A    between atoms: C_24  and  C_25
REMARK   12  A    between atoms: C_25  and  C_26
REMARK   13  A    between atoms: C_25  and  C_27
REMARK   14  A    between atoms: C_25  and  C_28
REMARK   15  A    between atoms: C_29  and  C_31
REMARK   16  A    between atoms: C_32  and  O_38
REMARK   17  A    between atoms: C_36  and  O_37
REMARK                            x       y       z     vdW  Elec       q    Type
REMARK                         _______ _______ _______ _____ _____    ______ ____
ROOT
ATOM      1  N   UNL     1       3.377  -4.429  -2.454  0.00  0.00    -0.274 N 
ATOM      2  C   UNL     1       2.281  -4.663  -3.203  0.00  0.00    +0.255 C 
ATOM      3  O   UNL     1       2.129  -4.077  -4.258  0.00  0.00    -0.270 OA
ENDROOT
BRANCH   2   4
ATOM      4  C   UNL     1       1.268  -5.628  -2.745  0.00  0.00    +0.119 A 
ATOM      5  C   UNL     1       0.194  -5.201  -1.951  0.00  0.00    +0.133 A 
ATOM      6  C   UNL     1      -0.754  -6.118  -1.526  0.00  0.00    +0.046 A 
ATOM      7  C   UNL     1      -0.643  -7.449  -1.881  0.00  0.00    +0.007 A 
ATOM      8  C   UNL     1       0.412  -7.881  -2.663  0.00  0.00    +0.046 A 
ATOM      9  C   UNL     1       1.368  -6.981  -3.104  0.00  0.00    +0.133 A 
BRANCH   9  10
ATOM     10  O   UNL     1       2.399  -7.406  -3.876  0.00  0.00    -0.506 OA
ATOM     11  H   UNL     1       3.176  -7.687  -3.374  0.00  0.00    +0.292 HD
ENDBRANCH   9  10
BRANCH   5  12
ATOM     12  O   UNL     1       0.083  -3.895  -1.601  0.00  0.00    -0.506 OA
ATOM     13  H   UNL     1      -0.425  -3.362  -2.227  0.00  0.00    +0.292 HD
ENDBRANCH   5  12
ENDBRANCH   2   4
BRANCH   1  14
ATOM     14  C   UNL     1       3.560  -5.136  -1.183  0.00  0.00    +0.183 C 
BRANCH  14  19
ATOM     15  C   UNL     1       2.753  -1.659   2.381  0.00  0.00    +0.086 C 
ATOM     16  C   UNL     1       2.548  -2.845   1.474  0.00  0.00    +0.102 A 
ATOM     17  C   UNL     1       1.470  -3.650   1.464  0.00  0.00    +0.045 A 
ATOM     18  C   UNL     1       1.696  -4.625   0.465  0.00  0.00    +0.046 A 
ATOM     19  C   UNL     1       2.898  -4.357  -0.076  0.00  0.00    +0.122 A 
ATOM     20  O   UNL     1       3.407  -3.275   0.536  0.00  0.00    -0.463 OA
ENDBRANCH  14  19
ENDBRANCH   1  14
BRANCH   1  21
ATOM     21  C   UNL     1       4.385  -3.469  -2.910  0.00  0.00    +0.193 C 
BRANCH  21  22
ATOM     22  C   UNL     1       3.723  -2.147  -3.201  0.00  0.00    -0.018 A 
ATOM     23  C   UNL     1       2.824  -1.611  -2.298  0.00  0.00    +0.007 A 
ATOM     24  C   UNL     1       2.216  -0.398  -2.564  0.00  0.00    +0.020 A 
ATOM     25  C   UNL     1       2.510   0.280  -3.734  0.00  0.00    +0.041 A 
ATOM     26  C   UNL     1       3.410  -0.257  -4.637  0.00  0.00    +0.020 A 
ATOM     27  C   UNL     1       4.021  -1.467  -4.367  0.00  0.00    +0.007 A 
ATOM     28 CL   UNL     1       1.747   1.803  -4.070  0.00  0.00    -0.084 Cl
ENDBRANCH  21  22
BRANCH  21  29
ATOM     29  C   UNL     1       5.425  -3.285  -1.835  0.00  0.00    +0.239 C 
ATOM     30  O   UNL     1       5.252  -3.763  -0.735  0.00  0.00    -0.273 OA
ATOM     31  N   UNL     1       6.549  -2.588  -2.098  0.00  0.00    -0.308 N 
ATOM     32  H   UNL     1       6.688  -2.205  -2.978  0.00  0.00    +0.149 HD
BRANCH  31  33
ATOM     33  C   UNL     1       7.560  -2.409  -1.053  0.00  0.00    +0.030 C 
ATOM     34  C   UNL     1       7.062  -1.385  -0.031  0.00  0.00    +0.031 C 
ATOM     35  C   UNL     1       7.813  -3.746  -0.354  0.00  0.00    +0.031 C 
BRANCH  33  36
ATOM     36  C   UNL     1       8.861  -1.909  -1.684  0.00  0.00    +0.031 C 
BRANCH  36  37
ATOM     37  C   UNL     1       9.080  -2.610  -3.026  0.00  0.00    -0.036 C 
ATOM     38  C   UNL     1       8.259  -1.906  -4.109  0.00  0.00    +0.010 C 
ATOM     39  C   UNL     1      10.564  -2.554  -3.394  0.00  0.00    +0.010 C 
ATOM     40  C   UNL     1       8.636  -4.070  -2.917  0.00  0.00    +0.010 C 
ENDBRANCH  36  37
ENDBRANCH  33  36
ENDBRANCH  31  33
ENDBRANCH  21  29
ENDBRANCH   1  21
TORSDOF 11
