REMARK  Name = ZINC14550903
REMARK  7 active torsions:
REMARK  status: ('A' for Active; 'I' for Inactive)
REMARK    1  A    between atoms: C_1  and  C_2
REMARK    2  A    between atoms: C_2  and  O_3
REMARK    3  A    between atoms: O_3  and  C_4
REMARK    4  A    between atoms: C_7  and  N_10
REMARK    5  A    between atoms: C_11  and  C_13
REMARK    6  A    between atoms: C_20  and  C_29
REMARK    7  A    between atoms: C_32  and  N_35
REMARK                            x       y       z     vdW  Elec       q    Type
REMARK                         _______ _______ _______ _____ _____    ______ ____
ROOT
ATOM      1  C   UNL     1      -1.508   1.796  -2.223  0.00  0.00    +0.058 A 
ATOM      2  C   UNL     1      -1.801   2.325  -3.480  0.00  0.00    +0.015 A 
ATOM      3  C   UNL     1      -0.774   2.721  -4.308  0.00  0.00    +0.001 A 
ATOM      4  C   UNL     1       0.540   2.596  -3.896  0.00  0.00    +0.006 A 
ATOM      5  C   UNL     1       0.852   2.073  -2.650  0.00  0.00    -0.019 A 
ATOM      6  C   UNL     1      -0.169   1.669  -1.806  0.00  0.00    +0.044 A 
ATOM      7  N   UNL     1       0.074   1.136  -0.550  0.00  0.00    -0.336 N 
ATOM      8  C   UNL     1       1.348   1.591   0.009  0.00  0.00    +0.105 C 
ATOM      9  C   UNL     1       2.486   1.210  -0.942  0.00  0.00    +0.029 C 
ATOM     10  C   UNL     1       2.301   1.972  -2.272  0.00  0.00    +0.049 C 
ATOM     11  C   UNL     1       2.874   3.343  -1.994  0.00  0.00    -0.023 C 
ATOM     12  C   UNL     1       3.691   3.300  -0.971  0.00  0.00    -0.030 C 
ATOM     13  C   UNL     1       3.785   1.889  -0.425  0.00  0.00    +0.033 C 
ATOM     14  H   UNL     1       0.028   0.128  -0.570  0.00  0.00    +0.147 HD
ENDROOT
BRANCH   8  15
ATOM     15  C   UNL     1       1.315   3.088   0.179  0.00  0.00    -0.027 A 
ATOM     16  C   UNL     1       2.187   3.702   1.060  0.00  0.00    +0.008 A 
ATOM     17  C   UNL     1       2.160   5.075   1.213  0.00  0.00    +0.033 A 
ATOM     18  C   UNL     1       1.255   5.834   0.493  0.00  0.00    +0.126 A 
ATOM     19  C   UNL     1       0.380   5.219  -0.383  0.00  0.00    +0.033 A 
ATOM     20  C   UNL     1       0.410   3.846  -0.539  0.00  0.00    +0.008 A 
BRANCH  18  21
ATOM     21  N   UNL     1       1.224   7.304   0.661  0.00  0.00    +0.056 N 
ATOM     22  O   UNL     1       0.427   7.972   0.026  0.00  0.00    -0.126 OA
ATOM     23  O   UNL     1       1.995   7.846   1.433  0.00  0.00    -0.126 OA
ENDBRANCH  18  21
ENDBRANCH   8  15
BRANCH   1  25
ATOM     24  N   UNL     1      -3.883   1.492  -1.727  0.00  0.00    -0.281 N 
ATOM     25  C   UNL     1      -2.601   1.370  -1.329  0.00  0.00    +0.250 C 
ATOM     26  O   UNL     1      -2.346   0.909  -0.234  0.00  0.00    -0.270 OA
ATOM     27  H   UNL     1      -4.085   1.788  -2.629  0.00  0.00    +0.155 HD
BRANCH  24  31
ATOM     28  C   UNL     1      -6.981   0.599   0.916  0.00  0.00    +0.121 A 
ATOM     29  C   UNL     1      -5.807   1.166   1.390  0.00  0.00    +0.047 A 
ATOM     30  C   UNL     1      -4.781   1.462   0.515  0.00  0.00    +0.027 A 
ATOM     31  C   UNL     1      -4.923   1.192  -0.840  0.00  0.00    +0.034 A 
ATOM     32  C   UNL     1      -6.101   0.628  -1.314  0.00  0.00    +0.027 A 
ATOM     33  C   UNL     1      -7.124   0.328  -0.437  0.00  0.00    +0.047 A 
BRANCH  28  34
ATOM     34  O   UNL     1      -7.992   0.308   1.778  0.00  0.00    -0.492 OA
BRANCH  34  36
ATOM     35  C   UNL     1     -10.189  -0.530   2.335  0.00  0.00    +0.048 C 
ATOM     36  C   UNL     1      -9.172  -0.275   1.221  0.00  0.00    +0.225 C 
ENDBRANCH  34  36
ENDBRANCH  28  34
ENDBRANCH  24  31
ENDBRANCH   1  25
TORSDOF 6
