REMARK  Name = ZINC48644805
REMARK  6 active torsions:
REMARK  status: ('A' for Active; 'I' for Inactive)
REMARK    1  A    between atoms: C_1  and  C_2
REMARK    2  A    between atoms: C_2  and  C_3
REMARK    3  A    between atoms: C_2  and  N_4
REMARK    4  A    between atoms: N_7  and  C_8
REMARK    5  A    between atoms: N_7  and  C_9
REMARK    6  A    between atoms: C_9  and  C_10
REMARK                            x       y       z     vdW  Elec       q    Type
REMARK                         _______ _______ _______ _____ _____    ______ ____
ROOT
ATOM      1  C   UNL     1      -3.202  -3.530  -1.016  0.00  0.00    +0.144 C 
ENDROOT
BRANCH   1   2
ATOM      2  C   UNL     1      -3.083  -4.556   0.081  0.00  0.00    -0.026 A 
ATOM      3  C   UNL     1      -1.868  -5.171   0.322  0.00  0.00    +0.009 A 
ATOM      4  C   UNL     1      -1.754  -6.112   1.328  0.00  0.00    +0.050 A 
ATOM      5  C   UNL     1      -2.857  -6.443   2.097  0.00  0.00    +0.166 A 
ATOM      6  C   UNL     1      -4.081  -5.824   1.855  0.00  0.00    +0.167 A 
ATOM      7  C   UNL     1      -4.187  -4.877   0.849  0.00  0.00    +0.054 A 
ATOM      8  O   UNL     1      -5.001  -6.315   2.735  0.00  0.00    -0.453 OA
ATOM      9  C   UNL     1      -4.430  -7.534   3.248  0.00  0.00    +0.466 C 
ATOM     10  O   UNL     1      -3.010  -7.322   3.130  0.00  0.00    -0.453 OA
ENDBRANCH   1   2
BRANCH   1  14
ATOM     11  N   UNL     1      -1.372  -0.511   0.012  0.00  0.00    -0.297 N 
ATOM     12  C   UNL     1      -1.643  -1.734  -0.485  0.00  0.00    +0.302 C 
ATOM     13  O   UNL     1      -0.747  -2.417  -0.942  0.00  0.00    -0.253 OA
ATOM     14  N   UNL     1      -2.908  -2.201  -0.475  0.00  0.00    -0.284 N 
ATOM     15  C   UNL     1      -3.988  -1.378   0.076  0.00  0.00    +0.134 C 
ATOM     16  H   UNL     1      -2.087   0.033   0.377  0.00  0.00    +0.150 HD
BRANCH  11  18
ATOM     17  C   UNL     1      -0.019   1.526   0.010  0.00  0.00    +0.027 C 
ATOM     18  C   UNL     1       0.002  -0.004   0.002  0.00  0.00    +0.068 C 
ATOM     19  C   UNL     1       0.742  -0.511   1.242  0.00  0.00    +0.027 C 
ENDBRANCH  11  18
ENDBRANCH   1  14
TORSDOF 3
