REMARK  Name = ZINC31737104
REMARK  11 active torsions:
REMARK  status: ('A' for Active; 'I' for Inactive)
REMARK    1  A    between atoms: C_1  and  O_2
REMARK    2  A    between atoms: O_2  and  C_3
REMARK    3  A    between atoms: C_3  and  C_5
REMARK    4  A    between atoms: C_5  and  C_7
REMARK    5  A    between atoms: C_5  and  N_18
REMARK    6  A    between atoms: C_7  and  C_8
REMARK    7  A    between atoms: C_19  and  C_21
REMARK    8  A    between atoms: C_22  and  C_23
REMARK    9  A    between atoms: C_26  and  S_29
REMARK   10  A    between atoms: S_29  and  N_32
REMARK   11  A    between atoms: N_32  and  C_33
REMARK                            x       y       z     vdW  Elec       q    Type
REMARK                         _______ _______ _______ _____ _____    ______ ____
ROOT
ATOM      1  N   UNL     1      -3.469   5.896   7.166  0.00  0.00    -0.299 N 
ATOM      2  C   UNL     1      -3.670   4.680   6.618  0.00  0.00    +0.238 C 
ATOM      3  O   UNL     1      -4.478   3.917   7.112  0.00  0.00    -0.271 OA
ATOM      4  H   UNL     1      -2.738   6.586   6.719  0.00  0.00    +0.150 HD
ENDROOT
BRANCH   2   5
ATOM      5  C   UNL     1      -2.914   4.279   5.430  0.00  0.00    +0.068 C 
ATOM      6  C   UNL     1      -3.115   3.063   4.882  0.00  0.00    +0.013 C 
BRANCH   6   7
ATOM      7  C   UNL     1      -2.356   2.660   3.687  0.00  0.00    -0.025 A 
ATOM      8  C   UNL     1      -2.561   1.400   3.117  0.00  0.00    +0.010 A 
ATOM      9  C   UNL     1      -1.846   1.029   1.998  0.00  0.00    +0.029 A 
ATOM     10  C   UNL     1      -0.927   1.900   1.439  0.00  0.00    +0.105 A 
ATOM     11  C   UNL     1      -0.714   3.147   2.002  0.00  0.00    +0.029 A 
ATOM     12  C   UNL     1      -1.425   3.534   3.118  0.00  0.00    +0.010 A 
BRANCH  10  13
ATOM     13  S   UNL     1      -0.017   1.417   0.010  0.00  0.00    +0.059 S 
ATOM     14  O   UNL     1       0.002  -0.004   0.002  0.00  0.00    -0.153 OA
ATOM     15  O   UNL     1       1.172   2.195   0.003  0.00  0.00    -0.153 OA
BRANCH  13  16
ATOM     16  N   UNL     1      -0.897   1.885  -1.312  0.00  0.00    -0.187 NA
ATOM     17  H   UNL     1      -1.442   1.126  -1.892  0.00  0.00    +0.148 HD
BRANCH  16  18
ATOM     18  C   UNL     1      -1.125   3.309  -1.574  0.00  0.00    +0.077 C 
ATOM     19  C   UNL     1      -2.456   3.705  -2.215  0.00  0.00    +0.022 C 
ATOM     20  C   UNL     1      -1.165   3.761  -3.035  0.00  0.00    +0.022 C 
ENDBRANCH  16  18
ENDBRANCH  13  16
ENDBRANCH  10  13
ENDBRANCH   6   7
ENDBRANCH   2   5
BRANCH   1  21
ATOM     21  C   UNL     1      -4.224   6.297   8.355  0.00  0.00    +0.186 C 
BRANCH  21  22
ATOM     22  C   UNL     1      -3.527   5.786   9.589  0.00  0.00    +0.328 C 
ATOM     23  O   UNL     1      -2.505   5.151   9.486  0.00  0.00    -0.249 OA
BRANCH  22  25
ATOM     24  C   UNL     1      -3.318   5.512  11.947  0.00  0.00    +0.280 C 
ATOM     25  O   UNL     1      -4.043   6.035  10.803  0.00  0.00    -0.467 OA
ENDBRANCH  22  25
ENDBRANCH  21  22
BRANCH  21  26
ATOM     26  C   UNL     1      -4.310   7.824   8.413  0.00  0.00    +0.071 C 
BRANCH  26  27
ATOM     27  C   UNL     1      -5.114   8.326   7.242  0.00  0.00    -0.020 A 
ATOM     28  C   UNL     1      -4.628   8.760   6.067  0.00  0.00    +0.087 A 
ATOM     29  N   UNL     1      -5.657   9.135   5.247  0.00  0.00    -0.360 N 
ATOM     30  H   UNL     1      -5.445   9.512   4.236  0.00  0.00    +0.165 HD
ATOM     31  C   UNL     1      -6.860   8.956   5.893  0.00  0.00    +0.047 A 
ATOM     32  C   UNL     1      -6.572   8.441   7.170  0.00  0.00    +0.003 A 
ATOM     33  C   UNL     1      -7.612   8.158   8.057  0.00  0.00    +0.010 A 
ATOM     34  C   UNL     1      -8.906   8.382   7.679  0.00  0.00    +0.001 A 
ATOM     35  C   UNL     1      -9.195   8.889   6.420  0.00  0.00    +0.002 A 
ATOM     36  C   UNL     1      -8.184   9.176   5.529  0.00  0.00    +0.026 A 
ENDBRANCH  26  27
ENDBRANCH  21  26
ENDBRANCH   1  21
TORSDOF 10
