REMARK  Name = ZINC20706637
REMARK  7 active torsions:
REMARK  status: ('A' for Active; 'I' for Inactive)
REMARK    1  A    between atoms: C_1  and  C_2
REMARK    2  A    between atoms: C_5  and  N_9
REMARK    3  A    between atoms: C_7  and  C_8
REMARK    4  A    between atoms: N_9  and  S_10
REMARK    5  A    between atoms: S_10  and  C_13
REMARK    6  A    between atoms: C_26  and  C_29
REMARK    7  A    between atoms: C_34  and  O_35
REMARK                            x       y       z     vdW  Elec       q    Type
REMARK                         _______ _______ _______ _____ _____    ______ ____
ROOT
ATOM      1  C   UNL     1       3.591   1.996   0.420  0.00  0.00    +0.109 A 
ATOM      2  C   UNL     1       4.329   1.784  -0.731  0.00  0.00    +0.030 A 
ATOM      3  C   UNL     1       3.778   1.069  -1.775  0.00  0.00    +0.025 A 
ATOM      4  C   UNL     1       2.488   0.565  -1.668  0.00  0.00    +0.031 A 
ATOM      5  C   UNL     1       1.744   0.775  -0.517  0.00  0.00    -0.018 A 
ATOM      6  C   UNL     1       2.309   1.495   0.526  0.00  0.00    +0.034 A 
ATOM      7  C   UNL     1       0.351   0.252  -0.358  0.00  0.00    +0.049 C 
ATOM      8  C   UNL     1      -0.659   1.364  -0.509  0.00  0.00    -0.023 C 
ATOM      9  C   UNL     1      -1.729   0.923  -1.125  0.00  0.00    -0.030 C 
ATOM     10  C   UNL     1      -1.580  -0.547  -1.463  0.00  0.00    +0.033 C 
ATOM     11  C   UNL     1      -0.038  -0.765  -1.448  0.00  0.00    +0.029 C 
ATOM     12  C   UNL     1       0.497  -0.324  -2.813  0.00  0.00    +0.108 C 
ATOM     13  N   UNL     1       1.943  -0.157  -2.736  0.00  0.00    -0.336 N 
ATOM     14  H   UNL     1       2.589  -0.595  -3.510  0.00  0.00    +0.147 HD
ENDROOT
BRANCH  12  15
ATOM     15  C   UNL     1      -0.108   1.005  -3.187  0.00  0.00    +0.014 A 
ATOM     16  C   UNL     1       0.455   2.177  -2.719  0.00  0.00    +0.009 A 
ATOM     17  C   UNL     1      -0.097   3.396  -3.065  0.00  0.00    +0.001 A 
ATOM     18  C   UNL     1      -1.219   3.446  -3.872  0.00  0.00    +0.004 A 
ATOM     19  C   UNL     1      -1.788   2.277  -4.338  0.00  0.00    +0.046 A 
ATOM     20  C   UNL     1      -1.233   1.052  -3.997  0.00  0.00    +0.122 A 
BRANCH  20  21
ATOM     21  O   UNL     1      -1.792  -0.099  -4.454  0.00  0.00    -0.506 OA
ATOM     22  H   UNL     1      -2.684  -0.060  -5.096  0.00  0.00    +0.292 HD
ENDBRANCH  20  21
ENDBRANCH  12  15
BRANCH   1  23
ATOM     23  S   UNL     1       4.290   2.908   1.755  0.00  0.00    +0.072 S 
ATOM     24  O   UNL     1       3.682   2.420   2.943  0.00  0.00    -0.150 OA
ATOM     25  O   UNL     1       5.697   2.900   1.560  0.00  0.00    -0.150 OA
BRANCH  23  26
ATOM     26  N   UNL     1       3.798   4.480   1.584  0.00  0.00    -0.216 N 
ATOM     27  H   UNL     1       4.542   5.275   1.427  0.00  0.00    +0.174 HD
BRANCH  26  32
ATOM     28  C   UNL     1      -1.720   5.769   1.809  0.00  0.00    +0.044 C 
ATOM     29  C   UNL     1      -0.254   5.426   1.749  0.00  0.00    -0.047 A 
ATOM     30  C   UNL     1       0.408   5.434   0.534  0.00  0.00    +0.005 A 
ATOM     31  C   UNL     1       1.752   5.126   0.477  0.00  0.00    +0.025 A 
ATOM     32  C   UNL     1       2.439   4.797   1.639  0.00  0.00    +0.048 A 
ATOM     33  C   UNL     1       1.771   4.790   2.857  0.00  0.00    +0.028 A 
ATOM     34  C   UNL     1       0.427   5.104   2.908  0.00  0.00    -0.046 A 
ATOM     35  C   UNL     1      -0.298   5.096   4.229  0.00  0.00    +0.044 C 
ENDBRANCH  26  32
ENDBRANCH  23  26
ENDBRANCH   1  23
TORSDOF 5
