REMARK  Name = ZINC64042835
REMARK  7 active torsions:
REMARK  status: ('A' for Active; 'I' for Inactive)
REMARK    1  A    between atoms: C_7  and  C_10
REMARK    2  A    between atoms: C_10  and  C_11
REMARK    3  A    between atoms: N_13  and  N_14
REMARK    4  A    between atoms: C_15  and  C_17
REMARK    5  A    between atoms: C_17  and  C_18
REMARK    6  A    between atoms: C_18  and  N_19
REMARK    7  A    between atoms: C_20  and  C_22
REMARK                            x       y       z     vdW  Elec       q    Type
REMARK                         _______ _______ _______ _____ _____    ______ ____
ROOT
ATOM      1  N   UNL     1      -0.567  -5.122  -3.001  0.00  0.00    -0.234 N 
ATOM      2  C   UNL     1      -1.380  -6.168  -3.245  0.00  0.00    +0.231 C 
ATOM      3  O   UNL     1      -1.926  -6.740  -2.325  0.00  0.00    -0.274 OA
ATOM      4  H   UNL     1      -0.131  -4.665  -3.737  0.00  0.00    +0.173 HD
ENDROOT
BRANCH   1   7
ATOM      5  C   UNL     1       0.460  -3.646  -1.440  0.00  0.00    +0.233 C 
ATOM      6  O   UNL     1       1.006  -3.075  -2.360  0.00  0.00    -0.274 OA
ATOM      7  N   UNL     1      -0.353  -4.693  -1.684  0.00  0.00    -0.234 N 
ATOM      8  H   UNL     1      -0.790  -5.150  -0.948  0.00  0.00    +0.173 HD
BRANCH   5   9
ATOM      9  C   UNL     1       0.691  -3.186  -0.024  0.00  0.00    +0.130 C 
BRANCH   9  16
ATOM     10  C   UNL     1      -0.016   1.348   0.009  0.00  0.00    +0.001 A 
ATOM     11  C   UNL     1       1.166   2.101   0.002  0.00  0.00    +0.002 A 
ATOM     12  C   UNL     1       2.391   1.535  -0.013  0.00  0.00    +0.026 A 
ATOM     13  C   UNL     1       2.529   0.120  -0.022  0.00  0.00    +0.043 A 
ATOM     14  N   UNL     1       3.587  -0.654  -0.037  0.00  0.00    -0.380 N 
ATOM     15  C   UNL     1       3.143  -2.053  -0.041  0.00  0.00    +0.145 C 
ATOM     16  C   UNL     1       1.631  -2.008  -0.025  0.00  0.00    -0.033 C 
ATOM     17  C   UNL     1       1.295  -0.698  -0.014  0.00  0.00    -0.001 A 
ATOM     18  C   UNL     1       0.002  -0.004   0.002  0.00  0.00    +0.010 A 
ATOM     19  H   UNL     1       4.509  -0.353  -0.045  0.00  0.00    +0.160 HD
ENDBRANCH   9  16
ENDBRANCH   5   9
ENDBRANCH   1   7
BRANCH   2  20
ATOM     20  C   UNL     1      -1.611  -6.629  -4.661  0.00  0.00    +0.116 C 
BRANCH  20  21
ATOM     21  C   UNL     1      -2.566  -7.824  -4.660  0.00  0.00    +0.113 C 
BRANCH  21  22
ATOM     22  N   UNL     1      -2.790  -8.272  -6.036  0.00  0.00    -0.314 N 
ATOM     23  C   UNL     1      -3.603  -9.319  -6.280  0.00  0.00    +0.219 C 
ATOM     24  O   UNL     1      -4.149  -9.890  -5.360  0.00  0.00    -0.275 OA
ATOM     25  H   UNL     1      -2.353  -7.815  -6.772  0.00  0.00    +0.149 HD
BRANCH  23  26
ATOM     26  C   UNL     1      -3.834  -9.780  -7.697  0.00  0.00    +0.048 C 
ATOM     27  C   UNL     1      -4.446  -8.639  -8.511  0.00  0.00    +0.019 C 
ATOM     28  C   UNL     1      -4.680  -9.106  -9.949  0.00  0.00    -0.009 C 
ATOM     29  C   UNL     1      -5.635 -10.302  -9.947  0.00  0.00    +0.007 C 
ATOM     30  C   UNL     1      -5.023 -11.443  -9.133  0.00  0.00    -0.009 C 
ATOM     31  C   UNL     1      -4.789 -10.975  -7.695  0.00  0.00    +0.019 C 
ATOM     32  C   UNL     1      -3.689 -11.857  -9.758  0.00  0.00    +0.007 C 
ATOM     33  C   UNL     1      -2.734 -10.662  -9.759  0.00  0.00    -0.009 C 
ATOM     34  C   UNL     1      -3.346  -9.521 -10.574  0.00  0.00    +0.007 C 
ATOM     35  C   UNL     1      -2.500 -10.194  -8.322  0.00  0.00    +0.019 C 
ENDBRANCH  23  26
ENDBRANCH  21  22
ENDBRANCH  20  21
ENDBRANCH   2  20
TORSDOF 7
