REMARK  Name = ZINC00889133
REMARK  8 active torsions:
REMARK  status: ('A' for Active; 'I' for Inactive)
REMARK    1  A    between atoms: C_3  and  O_11
REMARK    2  A    between atoms: C_4  and  N_8
REMARK    3  A    between atoms: O_11  and  C_12
REMARK    4  A    between atoms: C_12  and  C_13
REMARK    5  A    between atoms: N_15  and  N_16
REMARK    6  A    between atoms: C_17  and  C_18
REMARK    7  A    between atoms: C_21  and  O_26
REMARK    8  A    between atoms: C_23  and  O_24
REMARK                            x       y       z     vdW  Elec       q    Type
REMARK                         _______ _______ _______ _____ _____    ______ ____
ROOT
ATOM      1  C   UNL     1       4.840   4.125  -0.023  0.00  0.00    +0.270 C 
ATOM      2  O   UNL     1       5.812   3.398  -0.036  0.00  0.00    -0.270 OA
ATOM      3  N   UNL     1       5.000   5.463  -0.018  0.00  0.00    -0.204 N 
ATOM      4  H   UNL     1       4.223   6.044  -0.008  0.00  0.00    +0.177 HD
ENDROOT
BRANCH   3   5
ATOM      5  N   UNL     1       6.287   6.015  -0.028  0.00  0.00    -0.188 NA
ATOM      6  C   UNL     1       6.441   7.304  -0.023  0.00  0.00    +0.142 C 
BRANCH   6   7
ATOM      7  C   UNL     1       7.795   7.885  -0.033  0.00  0.00    +0.038 A 
ATOM      8  C   UNL     1       7.963   9.272  -0.022  0.00  0.00    +0.032 A 
ATOM      9  C   UNL     1       9.232   9.811  -0.031  0.00  0.00    +0.061 A 
ATOM     10  C   UNL     1      10.346   8.979  -0.052  0.00  0.00    +0.148 A 
ATOM     11  C   UNL     1      10.188   7.601  -0.064  0.00  0.00    +0.102 A 
ATOM     12  C   UNL     1       8.919   7.048  -0.048  0.00  0.00    +0.143 A 
ATOM     13 BR   UNL     1      11.709   6.477  -0.093  0.00  0.00    -0.043 Br
ATOM     14 BR   UNL     1       9.458  11.689  -0.016  0.00  0.00    -0.046 Br
BRANCH  12  15
ATOM     15  O   UNL     1       8.764   5.698  -0.054  0.00  0.00    -0.505 OA
ATOM     16  H   UNL     1       8.711   5.312  -0.939  0.00  0.00    +0.292 HD
ENDBRANCH  12  15
BRANCH  10  17
ATOM     17  O   UNL     1      11.593   9.518  -0.061  0.00  0.00    -0.504 OA
ATOM     18  H   UNL     1      11.964   9.666   0.819  0.00  0.00    +0.292 HD
ENDBRANCH  10  17
ENDBRANCH   6   7
ENDBRANCH   3   5
BRANCH   1  19
ATOM     19  C   UNL     1       3.455   3.531  -0.013  0.00  0.00    +0.326 C 
BRANCH  19  20
ATOM     20  O   UNL     1       3.549   2.105  -0.021  0.00  0.00    -0.480 OA
BRANCH  20  23
ATOM     21  C   UNL     1      -0.017   1.379   0.010  0.00  0.00    +0.024 A 
ATOM     22  C   UNL     1       1.170   2.087   0.002  0.00  0.00    +0.049 A 
ATOM     23  C   UNL     1       2.380   1.410  -0.013  0.00  0.00    +0.151 A 
ATOM     24  C   UNL     1       2.397   0.023  -0.021  0.00  0.00    +0.169 A 
ATOM     25  C   UNL     1       1.209  -0.681  -0.013  0.00  0.00    +0.056 A 
ATOM     26  C   UNL     1       0.002  -0.004   0.002  0.00  0.00    +0.043 A 
ATOM     27 CL   UNL     1      -1.490  -0.891   0.011  0.00  0.00    -0.083 Cl
BRANCH  24  28
ATOM     28  N   UNL     1       3.687  -0.702  -0.037  0.00  0.00    +0.060 N 
ATOM     29  O   UNL     1       3.701  -1.911  -0.044  0.00  0.00    -0.126 OA
ATOM     30  O   UNL     1       4.727  -0.085  -0.044  0.00  0.00    -0.126 OA
ENDBRANCH  24  28
ENDBRANCH  20  23
ENDBRANCH  19  20
ENDBRANCH   1  19
TORSDOF 8
