REMARK  Name = ZINC33631602
REMARK  5 active torsions:
REMARK  status: ('A' for Active; 'I' for Inactive)
REMARK    1  A    between atoms: C_5  and  C_7
REMARK    2  A    between atoms: C_16  and  C_24
REMARK    3  A    between atoms: C_17  and  N_23
REMARK    4  A    between atoms: C_18  and  C_19
REMARK    5  A    between atoms: C_18  and  C_21
REMARK                            x       y       z     vdW  Elec       q    Type
REMARK                         _______ _______ _______ _____ _____    ______ ____
ROOT
ATOM      1  C   UNL     1       1.066   3.242   1.081  0.00  0.00    +0.067 C 
ATOM      2  C   UNL     1       1.189   2.215  -0.046  0.00  0.00    +0.030 C 
ATOM      3  C   UNL     1       2.488   1.447   0.030  0.00  0.00    +0.009 C 
ATOM      4  C   UNL     1       2.304   0.080   0.686  0.00  0.00    +0.005 C 
ATOM      5  C   UNL     1       1.280  -0.716  -0.134  0.00  0.00    +0.027 C 
ATOM      6  C   UNL     1      -0.023   0.042  -0.105  0.00  0.00    -0.022 C 
ATOM      7  C   UNL     1      -0.042   1.359  -0.041  0.00  0.00    -0.029 C 
ATOM      8  C   UNL     1      -1.347   2.058   0.096  0.00  0.00    +0.074 C 
ATOM      9  C   UNL     1      -1.368   3.353   0.497  0.00  0.00    +0.054 C 
ATOM     10  C   UNL     1      -0.133   4.148   0.797  0.00  0.00    +0.188 C 
ENDROOT
BRANCH   1  15
ATOM     11  C   UNL     1       3.951   5.457   0.070  0.00  0.00    +0.000 A 
ATOM     12  C   UNL     1       4.627   5.595   1.268  0.00  0.00    +0.001 A 
ATOM     13  C   UNL     1       4.151   4.971   2.406  0.00  0.00    +0.015 A 
ATOM     14  C   UNL     1       2.998   4.209   2.346  0.00  0.00    +0.021 A 
ATOM     15  C   UNL     1       2.321   4.072   1.147  0.00  0.00    -0.027 A 
ATOM     16  C   UNL     1       2.801   4.692   0.008  0.00  0.00    +0.005 A 
ATOM     17 BR   UNL     1       2.346   3.355   3.902  0.00  0.00    -0.050 Br
ENDBRANCH   1  15
BRANCH   9  18
ATOM     18  N   UNL     1      -2.581   3.967   0.637  0.00  0.00    -0.358 N 
ATOM     19  H   UNL     1      -2.632   5.017   0.961  0.00  0.00    +0.142 HD
ATOM     20  H   UNL     1      -3.506   3.412   0.425  0.00  0.00    +0.142 HD
ENDBRANCH   9  18
BRANCH  10  21
ATOM     21  C   UNL     1      -0.382   4.998   1.973  0.00  0.00    +0.091 C 
ATOM     22  N   UNL     1      -0.574   5.654   2.880  0.00  0.00    -0.194 NA
ENDBRANCH  10  21
BRANCH  10  23
ATOM     23  C   UNL     1       0.177   5.007  -0.357  0.00  0.00    +0.091 C 
ATOM     24  N   UNL     1       0.417   5.670  -1.248  0.00  0.00    -0.194 NA
ENDBRANCH  10  23
BRANCH   8  25
ATOM     25  C   UNL     1      -2.570   1.371  -0.195  0.00  0.00    +0.101 C 
ATOM     26  N   UNL     1      -3.540   0.826  -0.425  0.00  0.00    -0.191 NA
ENDBRANCH   8  25
TORSDOF 5
