REMARK  Name = ZINC12497601
REMARK  8 active torsions:
REMARK  status: ('A' for Active; 'I' for Inactive)
REMARK    1  A    between atoms: C_1  and  C_2
REMARK    2  A    between atoms: C_2  and  C_4
REMARK    3  A    between atoms: C_2  and  O_20
REMARK    4  A    between atoms: N_6  and  C_7
REMARK    5  A    between atoms: C_7  and  N_9
REMARK    6  A    between atoms: N_9  and  C_10
REMARK    7  A    between atoms: C_14  and  N_16
REMARK    8  A    between atoms: O_20  and  C_21
REMARK                            x       y       z     vdW  Elec       q    Type
REMARK                         _______ _______ _______ _____ _____    ______ ____
ROOT
ATOM      1  C   UNL     1       1.677   1.353  -0.728  0.00  0.00    +0.259 C 
ATOM      2  O   UNL     1       1.808   2.479  -1.159  0.00  0.00    -0.271 OA
ATOM      3  N   UNL     1       0.444   0.852  -0.515  0.00  0.00    -0.265 N 
ATOM      4  H   UNL     1       0.339  -0.048  -0.170  0.00  0.00    +0.157 HD
ENDROOT
BRANCH   1   6
ATOM      5  C   UNL     1       2.921  -0.693  -1.373  0.00  0.00    +0.062 C 
ATOM      6  C   UNL     1       2.893   0.513  -0.432  0.00  0.00    +0.256 C 
BRANCH   6   7
ATOM      7  O   UNL     1       4.072   1.297  -0.627  0.00  0.00    -0.478 OA
BRANCH   7   8
ATOM      8  C   UNL     1       5.184   0.919   0.057  0.00  0.00    +0.140 A 
ATOM      9  C   UNL     1       5.178  -0.253   0.799  0.00  0.00    +0.048 A 
ATOM     10  C   UNL     1       6.311  -0.638   1.489  0.00  0.00    +0.023 A 
ATOM     11  C   UNL     1       7.449   0.149   1.449  0.00  0.00    +0.043 A 
ATOM     12  C   UNL     1       7.456   1.321   0.714  0.00  0.00    +0.043 A 
ATOM     13  C   UNL     1       6.326   1.707   0.017  0.00  0.00    +0.084 A 
ATOM     14 CL   UNL     1       6.335   3.178  -0.905  0.00  0.00    -0.080 Cl
ATOM     15 CL   UNL     1       8.869  -0.335   2.323  0.00  0.00    -0.083 Cl
ENDBRANCH   7   8
ENDBRANCH   6   7
ENDBRANCH   1   6
BRANCH   3  16
ATOM     16  C   UNL     1      -0.644   1.601  -0.785  0.00  0.00    +0.141 C 
ATOM     17  S   UNL     1      -0.459   3.191  -1.393  0.00  0.00    -0.018 S 
BRANCH  16  18
ATOM     18  N   UNL     1      -1.877   1.099  -0.576  0.00  0.00    -0.297 N 
ATOM     19  H   UNL     1      -1.982   0.231  -0.157  0.00  0.00    +0.154 HD
BRANCH  18  20
ATOM     20  C   UNL     1      -3.005   1.829  -0.965  0.00  0.00    +0.035 A 
ATOM     21  C   UNL     1      -4.123   1.873  -0.143  0.00  0.00    +0.025 A 
ATOM     22  C   UNL     1      -5.233   2.599  -0.526  0.00  0.00    +0.024 A 
ATOM     23  C   UNL     1      -5.236   3.274  -1.735  0.00  0.00    +0.071 A 
ATOM     24  C   UNL     1      -4.126   3.227  -2.559  0.00  0.00    +0.146 A 
ATOM     25  C   UNL     1      -3.011   2.507  -2.177  0.00  0.00    +0.057 A 
ATOM     26 CL   UNL     1      -6.636   4.181  -2.217  0.00  0.00    -0.081 Cl
BRANCH  24  27
ATOM     27  N   UNL     1      -4.133   3.950  -3.851  0.00  0.00    +0.058 N 
ATOM     28  O   UNL     1      -3.155   3.910  -4.576  0.00  0.00    -0.126 OA
ATOM     29  O   UNL     1      -5.115   4.586  -4.188  0.00  0.00    -0.126 OA
ENDBRANCH  24  27
ENDBRANCH  18  20
ENDBRANCH  16  18
ENDBRANCH   3  16
TORSDOF 7
