REMARK  Name = ZINC63835581
REMARK  9 active torsions:
REMARK  status: ('A' for Active; 'I' for Inactive)
REMARK    1  A    between atoms: C_1  and  C_2
REMARK    2  A    between atoms: C_4  and  S_10
REMARK    3  A    between atoms: C_5  and  C_9
REMARK    4  A    between atoms: N_7  and  C_8
REMARK    5  A    between atoms: S_10  and  N_13
REMARK    6  A    between atoms: N_13  and  C_14
REMARK    7  A    between atoms: C_14  and  C_15
REMARK    8  A    between atoms: C_15  and  C_17
REMARK    9  A    between atoms: C_15  and  C_22
REMARK                            x       y       z     vdW  Elec       q    Type
REMARK                         _______ _______ _______ _____ _____    ______ ____
ROOT
ATOM      1  C   UNL     1       2.274   3.074  -3.965  0.00  0.00    +0.069 C 
ENDROOT
BRANCH   1   2
ATOM      2  C   UNL     1       3.733   3.439  -4.056  0.00  0.00    -0.032 C 
ATOM      3  C   UNL     1       4.448   3.654  -5.184  0.00  0.00    -0.000 A 
ATOM      4  C   UNL     1       4.096   3.611  -6.608  0.00  0.00    +0.010 A 
ATOM      5  C   UNL     1       5.051   3.878  -7.528  0.00  0.00    +0.001 A 
ATOM      6  C   UNL     1       6.365   4.192  -7.156  0.00  0.00    +0.002 A 
ATOM      7  C   UNL     1       6.765   4.251  -5.868  0.00  0.00    +0.026 A 
ATOM      8  C   UNL     1       5.843   3.989  -4.817  0.00  0.00    +0.043 A 
ATOM      9  N   UNL     1       5.984   3.982  -3.514  0.00  0.00    -0.380 N 
ATOM     10  C   UNL     1       4.692   3.647  -2.905  0.00  0.00    +0.145 C 
ATOM     11  H   UNL     1       6.805   4.170  -3.033  0.00  0.00    +0.160 HD
ENDBRANCH   1   2
BRANCH   1  12
ATOM     12  C   UNL     1       1.537   4.138  -3.193  0.00  0.00    -0.002 A 
ATOM     13  C   UNL     1       0.505   4.921  -3.591  0.00  0.00    +0.012 A 
ATOM     14  C   UNL     1      -0.021   5.840  -2.703  0.00  0.00    +0.008 A 
ATOM     15  C   UNL     1       0.511   5.932  -1.460  0.00  0.00    +0.045 A 
ATOM     16  S   UNL     1       1.792   4.689  -1.514  0.00  0.00    -0.101 S 
ENDBRANCH   1  12
BRANCH   1  17
ATOM     17  C   UNL     1       2.128   1.730  -3.247  0.00  0.00    +0.119 C 
BRANCH  17  18
ATOM     18  N   UNL     1       0.723   1.318  -3.264  0.00  0.00    -0.189 NA
ATOM     19  H   UNL     1       0.031   1.960  -3.488  0.00  0.00    +0.148 HD
BRANCH  18  20
ATOM     20  S   UNL     1       0.314  -0.245  -2.900  0.00  0.00    +0.058 S 
ATOM     21  O   UNL     1       1.165  -1.078  -3.675  0.00  0.00    -0.153 OA
ATOM     22  O   UNL     1      -1.103  -0.323  -2.974  0.00  0.00    -0.153 OA
BRANCH  20  25
ATOM     23  C   UNL     1      -0.019   1.526   0.010  0.00  0.00    +0.032 C 
ATOM     24  C   UNL     1       0.002  -0.004   0.002  0.00  0.00    +0.123 C 
ATOM     25  C   UNL     1       0.745  -0.517  -1.213  0.00  0.00    +0.119 C 
ATOM     26  C   UNL     1       1.776  -1.206  -0.766  0.00  0.00    +0.040 C 
ATOM     27  N   UNL     1       1.821  -1.222   0.614  0.00  0.00    -0.280 N 
ATOM     28  N   UNL     1       0.778  -0.516   1.149  0.00  0.00    -0.224 NA
ATOM     29  C   UNL     1       1.263   0.586   1.991  0.00  0.00    +0.128 C 
ATOM     30  C   UNL     1       2.781  -1.893  -1.654  0.00  0.00    +0.063 C 
ATOM     31  H   UNL     1       2.501  -1.676   1.135  0.00  0.00    +0.166 HD
ENDBRANCH  20  25
ENDBRANCH  18  20
ENDBRANCH  17  18
ENDBRANCH   1  17
TORSDOF 6
