REMARK  Name = ZINC02326602
REMARK  5 active torsions:
REMARK  status: ('A' for Active; 'I' for Inactive)
REMARK    1  A    between atoms: C_2  and  C_3
REMARK    2  A    between atoms: C_3  and  O_4
REMARK    3  A    between atoms: O_4  and  C_5
REMARK    4  A    between atoms: C_8  and  C_11
REMARK    5  A    between atoms: C_11  and  C_13
REMARK                            x       y       z     vdW  Elec       q    Type
REMARK                         _______ _______ _______ _____ _____    ______ ____
ROOT
ATOM      1  C   UNL     1       1.634  -2.723   0.714  0.00  0.00    +0.066 C 
ATOM      2  C   UNL     1       1.830  -2.610  -0.808  0.00  0.00    -0.055 C 
ATOM      3  C   UNL     1       3.241  -3.108  -1.179  0.00  0.00    -0.016 C 
ATOM      4  C   UNL     1       3.695  -2.094  -2.262  0.00  0.00    -0.020 C 
ATOM      5  C   UNL     1       3.065  -0.778  -1.741  0.00  0.00    -0.076 C 
ATOM      6  C   UNL     1       1.457  -0.403   0.041  0.00  0.00    +0.060 C 
ATOM      7  C   UNL     1       1.809  -1.288   1.232  0.00  0.00    +0.085 C 
ATOM      8  C   UNL     1       0.928  -1.020   2.418  0.00  0.00    -0.011 A 
ATOM      9  C   UNL     1      -0.433  -1.062   2.618  0.00  0.00    +0.006 A 
ATOM     10  C   UNL     1      -0.961  -0.755   3.860  0.00  0.00    +0.000 A 
ATOM     11  C   UNL     1      -0.117  -0.406   4.899  0.00  0.00    +0.002 A 
ATOM     12  C   UNL     1       1.247  -0.361   4.703  0.00  0.00    +0.023 A 
ATOM     13  C   UNL     1       1.787  -0.668   3.456  0.00  0.00    +0.038 A 
ATOM     14  N   UNL     1       3.112  -0.694   3.016  0.00  0.00    -0.285 N 
ATOM     15  C   UNL     1       3.211  -1.048   1.720  0.00  0.00    +0.228 C 
ATOM     16  O   UNL     1       4.231  -1.153   1.073  0.00  0.00    -0.275 OA
ATOM     17  C   UNL     1       2.235   0.885   0.064  0.00  0.00    -0.027 A 
ATOM     18  C   UNL     1       3.580   1.177   0.047  0.00  0.00    +0.004 A 
ATOM     19  C   UNL     1       4.003   2.494   0.079  0.00  0.00    +0.000 A 
ATOM     20  C   UNL     1       3.072   3.515   0.128  0.00  0.00    +0.002 A 
ATOM     21  C   UNL     1       1.723   3.227   0.144  0.00  0.00    +0.023 A 
ATOM     22  C   UNL     1       1.289   1.904   0.112  0.00  0.00    +0.036 A 
ATOM     23  N   UNL     1       0.000   1.366   0.120  0.00  0.00    -0.286 N 
ATOM     24  C   UNL     1       0.011   0.021   0.081  0.00  0.00    +0.212 C 
ATOM     25  O   UNL     1      -0.957  -0.710   0.077  0.00  0.00    -0.277 OA
ATOM     26  H   UNL     1       3.873  -0.481   3.579  0.00  0.00    +0.155 HD
ATOM     27  H   UNL     1      -0.809   1.900   0.147  0.00  0.00    +0.155 HD
ATOM     28  N   UNL     1       1.755  -1.190  -1.167  0.00  0.00    +0.395 N 
ATOM     29  H   UNL     1       1.013  -1.045  -1.862  0.00  0.00    -0.079 HD
ENDROOT
BRANCH   1  30
ATOM     30  C   UNL     1       0.250  -3.231   1.030  0.00  0.00    +0.166 C 
ATOM     31  O   UNL     1      -0.647  -3.085   0.227  0.00  0.00    -0.292 OA
BRANCH  30  35
ATOM     32  C   UNL     1      -0.503  -5.166   4.721  0.00  0.00    +0.121 A 
ATOM     33  C   UNL     1      -1.534  -5.000   3.803  0.00  0.00    +0.046 A 
ATOM     34  C   UNL     1      -1.295  -4.375   2.606  0.00  0.00    +0.015 A 
ATOM     35  C   UNL     1      -0.011  -3.902   2.310  0.00  0.00    +0.018 A 
ATOM     36  C   UNL     1       1.025  -4.076   3.236  0.00  0.00    +0.015 A 
ATOM     37  C   UNL     1       0.775  -4.698   4.432  0.00  0.00    +0.046 A 
BRANCH  32  38
ATOM     38  O   UNL     1      -0.744  -5.786   5.903  0.00  0.00    -0.488 OA
BRANCH  38  39
ATOM     39  C   UNL     1       0.359  -5.923   6.801  0.00  0.00    +0.256 C 
BRANCH  39  41
ATOM     40  C   UNL     1       0.633  -7.593   8.561  0.00  0.00    +0.007 C 
ATOM     41  C   UNL     1      -0.095  -6.631   8.052  0.00  0.00    +0.006 C 
ENDBRANCH  39  41
ENDBRANCH  38  39
ENDBRANCH  32  38
ENDBRANCH  30  35
ENDBRANCH   1  30
TORSDOF 5
