REMARK  Name = ZINC39483345
REMARK  8 active torsions:
REMARK  status: ('A' for Active; 'I' for Inactive)
REMARK    1  A    between atoms: C_1  and  C_2
REMARK    2  A    between atoms: C_2  and  C_3
REMARK    3  A    between atoms: C_3  and  C_4
REMARK    4  A    between atoms: C_19  and  C_20
REMARK    5  A    between atoms: C_22  and  O_36
REMARK    6  A    between atoms: C_24  and  S_26
REMARK    7  A    between atoms: S_26  and  O_29
REMARK    8  A    between atoms: O_29  and  C_30
REMARK                            x       y       z     vdW  Elec       q    Type
REMARK                         _______ _______ _______ _____ _____    ______ ____
ROOT
ATOM      1  C   UNL     1       0.247  -1.741  -0.454  0.00  0.00    -0.021 A 
ATOM      2  C   UNL     1       1.239  -2.357   0.274  0.00  0.00    +0.006 A 
ATOM      3  C   UNL     1       1.306  -3.742   0.357  0.00  0.00    +0.001 A 
ATOM      4  C   UNL     1       0.375  -4.529  -0.285  0.00  0.00    +0.015 A 
ATOM      5  C   UNL     1      -0.642  -3.928  -1.023  0.00  0.00    +0.065 A 
ATOM      6  C   UNL     1      -0.710  -2.518  -1.116  0.00  0.00    +0.082 A 
ATOM      7  N   UNL     1      -1.682  -1.960  -1.857  0.00  0.00    -0.229 NA
ATOM      8  C   UNL     1      -2.602  -2.678  -2.468  0.00  0.00    +0.140 A 
ATOM      9  N   UNL     1      -2.659  -4.046  -2.364  0.00  0.00    -0.293 N 
ATOM     10  C   UNL     1      -1.668  -4.715  -1.717  0.00  0.00    +0.262 A 
ATOM     11  O   UNL     1      -1.641  -5.932  -1.701  0.00  0.00    -0.267 OA
ATOM     12  C   UNL     1      -3.771  -4.819  -2.899  0.00  0.00    +0.127 C 
ATOM     13  C   UNL     1      -4.468  -4.164  -4.070  0.00  0.00    +0.026 C 
ATOM     14  C   UNL     1      -4.793  -2.702  -3.816  0.00  0.00    +0.040 C 
ATOM     15  C   UNL     1      -3.584  -1.974  -3.304  0.00  0.00    -0.004 C 
ATOM     16  C   UNL     1      -3.400  -0.675  -3.610  0.00  0.00    +0.015 C 
ENDROOT
BRANCH  16  17
ATOM     17  C   UNL     1      -4.459   0.074  -4.308  0.00  0.00    -0.019 A 
ATOM     18  C   UNL     1      -5.803  -0.222  -4.067  0.00  0.00    +0.053 A 
ATOM     19  C   UNL     1      -6.792   0.487  -4.727  0.00  0.00    +0.119 A 
ATOM     20  C   UNL     1      -6.447   1.488  -5.626  0.00  0.00    +0.076 A 
ATOM     21  C   UNL     1      -5.118   1.782  -5.867  0.00  0.00    +0.132 A 
ATOM     22  C   UNL     1      -4.123   1.088  -5.210  0.00  0.00    +0.038 A 
BRANCH  21  23
ATOM     23  S   UNL     1      -4.693   3.054  -7.010  0.00  0.00    +0.151 S 
ATOM     24  O   UNL     1      -3.378   2.766  -7.468  0.00  0.00    -0.131 OA
ATOM     25  O   UNL     1      -5.795   3.188  -7.897  0.00  0.00    -0.131 OA
BRANCH  23  26
ATOM     26  O   UNL     1      -4.605   4.355  -6.225  0.00  0.00    -0.342 OA
BRANCH  26  27
ATOM     27  C   UNL     1      -3.485   4.466  -5.463  0.00  0.00    +0.157 A 
ATOM     28  C   UNL     1      -3.485   4.002  -4.156  0.00  0.00    +0.048 A 
ATOM     29  C   UNL     1      -2.345   4.116  -3.384  0.00  0.00    +0.004 A 
ATOM     30  C   UNL     1      -1.205   4.693  -3.913  0.00  0.00    +0.000 A 
ATOM     31  C   UNL     1      -1.203   5.158  -5.216  0.00  0.00    +0.004 A 
ATOM     32  C   UNL     1      -2.339   5.040  -5.994  0.00  0.00    +0.048 A 
ENDBRANCH  26  27
ENDBRANCH  23  26
ENDBRANCH  21  23
BRANCH  19  33
ATOM     33  O   UNL     1      -8.100   0.203  -4.496  0.00  0.00    -0.507 OA
ATOM     34  H   UNL     1      -8.492   0.713  -3.774  0.00  0.00    +0.292 HD
ENDBRANCH  19  33
ENDBRANCH  16  17
BRANCH   1  35
ATOM     35  C   UNL     1       0.187  -0.238  -0.533  0.00  0.00    +0.037 C 
BRANCH  35  37
ATOM     36  C   UNL     1      -0.828   1.819   0.459  0.00  0.00    +0.004 C 
ATOM     37  C   UNL     1      -0.768   0.292   0.538  0.00  0.00    +0.001 C 
ENDBRANCH  35  37
ENDBRANCH   1  35
TORSDOF 7
