REMARK  Name = ZINC12454825
REMARK  3 active torsions:
REMARK  status: ('A' for Active; 'I' for Inactive)
REMARK    1  A    between atoms: C_1  and  C_2
REMARK    2  A    between atoms: C_10  and  C_11
REMARK    3  A    between atoms: C_19  and  C_21
REMARK                            x       y       z     vdW  Elec       q    Type
REMARK                         _______ _______ _______ _____ _____    ______ ____
ROOT
ATOM      1  C   UNL     1      -2.986   1.570   0.056  0.00  0.00    +0.283 C 
ATOM      2  O   UNL     1      -2.075   1.567   0.862  0.00  0.00    -0.267 OA
ATOM      3  N   UNL     1      -4.202   2.027   0.415  0.00  0.00    -0.278 N 
ATOM      4  C   UNL     1      -4.430   2.647   1.731  0.00  0.00    +0.128 C 
ATOM      5  C   UNL     1      -5.457   1.801   2.485  0.00  0.00    +0.123 C 
ATOM      6  N   UNL     1      -6.591   1.479   1.629  0.00  0.00    -0.312 N 
ATOM      7  C   UNL     1      -6.558   1.488   0.295  0.00  0.00    +0.238 C 
ATOM      8  O   UNL     1      -7.545   1.125  -0.309  0.00  0.00    -0.273 OA
ATOM      9  C   UNL     1      -5.353   1.933  -0.495  0.00  0.00    +0.193 C 
ATOM     10  H   UNL     1      -7.427   1.242   2.058  0.00  0.00    +0.149 HD
ENDROOT
BRANCH   1  20
ATOM     11  C   UNL     1      -0.378   0.200  -0.941  0.00  0.00    +0.048 C 
ATOM     12  C   UNL     1      -1.622   0.476  -1.746  0.00  0.00    +0.008 A 
ATOM     13  C   UNL     1      -1.850   0.149  -3.152  0.00  0.00    +0.027 A 
ATOM     14  C   UNL     1      -1.083  -0.469  -4.145  0.00  0.00    +0.012 A 
ATOM     15  C   UNL     1      -1.601  -0.630  -5.399  0.00  0.00    +0.004 A 
ATOM     16  C   UNL     1      -2.883  -0.185  -5.694  0.00  0.00    +0.042 A 
ATOM     17  C   UNL     1      -3.656   0.427  -4.729  0.00  0.00    +0.166 A 
ATOM     18  C   UNL     1      -3.149   0.602  -3.444  0.00  0.00    +0.171 A 
ATOM     19  O   UNL     1      -3.652   1.149  -2.320  0.00  0.00    -0.447 OA
ATOM     20  C   UNL     1      -2.760   1.075  -1.309  0.00  0.00    +0.194 A 
ATOM     21  F   UNL     1      -4.901   0.856  -5.030  0.00  0.00    -0.202 F 
ENDBRANCH   1  20
BRANCH   9  22
ATOM     22  C   UNL     1      -5.620   3.281  -1.113  0.00  0.00    -0.018 A 
ATOM     23  C   UNL     1      -5.976   4.350  -0.312  0.00  0.00    +0.009 A 
ATOM     24  C   UNL     1      -6.215   5.588  -0.877  0.00  0.00    +0.038 A 
ATOM     25  C   UNL     1      -6.110   5.755  -2.248  0.00  0.00    +0.123 A 
ATOM     26  C   UNL     1      -5.758   4.682  -3.050  0.00  0.00    +0.038 A 
ATOM     27  C   UNL     1      -5.514   3.447  -2.482  0.00  0.00    +0.009 A 
ATOM     28  F   UNL     1      -6.349   6.963  -2.802  0.00  0.00    -0.205 F 
ENDBRANCH   9  22
TORSDOF 2
