REMARK  Name = ZINC19329900
REMARK  12 active torsions:
REMARK  status: ('A' for Active; 'I' for Inactive)
REMARK    1  A    between atoms: C_1  and  C_2
REMARK    2  A    between atoms: C_3  and  C_32
REMARK    3  A    between atoms: C_5  and  S_7
REMARK    4  A    between atoms: S_7  and  N_10
REMARK    5  A    between atoms: N_10  and  C_11
REMARK    6  A    between atoms: C_11  and  C_12
REMARK    7  A    between atoms: N_14  and  C_25
REMARK    8  A    between atoms: N_16  and  C_18
REMARK    9  A    between atoms: C_18  and  C_19
REMARK   10  A    between atoms: C_25  and  C_26
REMARK   11  A    between atoms: C_32  and  O_34
REMARK   12  A    between atoms: O_34  and  C_35
REMARK                            x       y       z     vdW  Elec       q    Type
REMARK                         _______ _______ _______ _____ _____    ______ ____
ROOT
ATOM      1  C   UNL     1      -0.610   1.879   3.641  0.00  0.00    +0.002 C 
ATOM      2  C   UNL     1      -2.014   1.274   3.735  0.00  0.00    -0.071 C 
ATOM      3  N   UNL     1      -2.739   1.537   2.484  0.00  0.00    +0.391 N 
ATOM      4  C   UNL     1      -2.034   0.956   1.335  0.00  0.00    +0.009 C 
ATOM      5  N   UNL     1      -0.700   1.560   1.217  0.00  0.00    -0.314 NA
ATOM      6  C   UNL     1       0.105   1.297   2.418  0.00  0.00    +0.085 C 
ATOM      7  H   UNL     1      -2.780   2.627   2.339  0.00  0.00    -0.079 HD
ENDROOT
BRANCH   1   8
ATOM      8  C   UNL     1       0.179   1.539   4.907  0.00  0.00    +0.109 C 
BRANCH   8   9
ATOM      9  N   UNL     1       1.478   2.217   4.869  0.00  0.00    -0.187 NA
ATOM     10  H   UNL     1       1.924   2.497   3.903  0.00  0.00    +0.148 HD
BRANCH   9  11
ATOM     11  S   UNL     1       2.387   2.341   6.247  0.00  0.00    +0.092 S 
ATOM     12  O   UNL     1       3.584   3.016   5.884  0.00  0.00    -0.150 OA
ATOM     13  O   UNL     1       1.520   2.822   7.264  0.00  0.00    -0.150 OA
BRANCH  11  18
ATOM     14  C   UNL     1       2.278  -2.426   8.520  0.00  0.00    +0.087 C 
ATOM     15  C   UNL     1       2.770  -1.274   7.681  0.00  0.00    +0.118 A 
ATOM     16  C   UNL     1       3.923  -1.254   6.951  0.00  0.00    +0.101 A 
ATOM     17  C   UNL     1       3.961   0.069   6.309  0.00  0.00    +0.086 A 
ATOM     18  C   UNL     1       2.853   0.707   6.713  0.00  0.00    +0.259 A 
ATOM     19  O   UNL     1       2.151  -0.101   7.524  0.00  0.00    -0.441 OA
BRANCH  16  20
ATOM     20  C   UNL     1       4.918  -2.332   6.828  0.00  0.00    +0.342 C 
ATOM     21  O   UNL     1       4.752  -3.382   7.417  0.00  0.00    -0.245 OA
BRANCH  20  22
ATOM     22  O   UNL     1       6.013  -2.155   6.062  0.00  0.00    -0.464 OA
ATOM     23  C   UNL     1       6.951  -3.260   5.987  0.00  0.00    +0.280 C 
ENDBRANCH  20  22
ENDBRANCH  16  20
ENDBRANCH  11  18
ENDBRANCH   9  11
ENDBRANCH   8   9
ENDBRANCH   1   8
BRANCH   5  24
ATOM     24  C   UNL     1      -0.013   1.086   0.008  0.00  0.00    +0.117 C 
BRANCH  24  25
ATOM     25  C   UNL     1      -0.742   1.585  -1.213  0.00  0.00    -0.033 A 
ATOM     26  C   UNL     1      -1.750   0.825  -1.775  0.00  0.00    +0.005 A 
ATOM     27  C   UNL     1      -2.422   1.285  -2.892  0.00  0.00    +0.000 A 
ATOM     28  C   UNL     1      -2.078   2.501  -3.453  0.00  0.00    +0.000 A 
ATOM     29  C   UNL     1      -1.066   3.259  -2.894  0.00  0.00    +0.000 A 
ATOM     30  C   UNL     1      -0.398   2.801  -1.774  0.00  0.00    +0.005 A 
ENDBRANCH  24  25
ENDBRANCH   5  24
BRANCH   3  31
ATOM     31  C   UNL     1      -4.119   1.040   2.561  0.00  0.00    -0.041 C 
BRANCH  31  32
ATOM     32  C   UNL     1      -4.106  -0.437   2.859  0.00  0.00    -0.064 A 
ATOM     33  C   UNL     1      -4.086  -1.351   1.822  0.00  0.00    +0.002 A 
ATOM     34  C   UNL     1      -4.069  -2.706   2.095  0.00  0.00    +0.000 A 
ATOM     35  C   UNL     1      -4.082  -3.147   3.405  0.00  0.00    +0.000 A 
ATOM     36  C   UNL     1      -4.107  -2.233   4.441  0.00  0.00    +0.000 A 
ATOM     37  C   UNL     1      -4.119  -0.878   4.169  0.00  0.00    +0.002 A 
ENDBRANCH  31  32
ENDBRANCH   3  31
TORSDOF 10
