REMARK  Name = ZINC52618889
REMARK  7 active torsions:
REMARK  status: ('A' for Active; 'I' for Inactive)
REMARK    1  A    between atoms: C_1  and  C_2
REMARK    2  A    between atoms: C_2  and  C_3
REMARK    3  A    between atoms: C_7  and  C_36
REMARK    4  A    between atoms: C_9  and  C_35
REMARK    5  A    between atoms: N_12  and  C_13
REMARK    6  A    between atoms: C_22  and  C_24
REMARK    7  A    between atoms: C_29  and  C_30
REMARK                            x       y       z     vdW  Elec       q    Type
REMARK                         _______ _______ _______ _____ _____    ______ ____
ROOT
ATOM      1  C   UNL     1      -0.545  -2.783  -1.404  0.00  0.00    +0.107 C 
ATOM      2  C   UNL     1      -0.601  -3.711  -0.192  0.00  0.00    +0.027 C 
ATOM      3  C   UNL     1      -1.750  -4.705  -0.397  0.00  0.00    +0.007 C 
ATOM      4  C   UNL     1      -1.361  -5.667  -1.518  0.00  0.00    +0.035 C 
ATOM      5  C   UNL     1      -0.904  -4.905  -2.735  0.00  0.00    -0.042 A 
ATOM      6  C   UNL     1      -0.525  -3.581  -2.682  0.00  0.00    -0.024 A 
ATOM      7  C   UNL     1      -0.107  -2.935  -3.839  0.00  0.00    +0.006 A 
ATOM      8  C   UNL     1      -0.068  -3.602  -5.043  0.00  0.00    +0.009 A 
ATOM      9  C   UNL     1      -0.454  -4.940  -5.102  0.00  0.00    -0.017 A 
ATOM     10  C   UNL     1      -0.871  -5.584  -3.943  0.00  0.00    +0.012 A 
ENDROOT
BRANCH   1  19
ATOM     11  C   UNL     1       0.718  -0.497  -1.257  0.00  0.00    +0.160 C 
ATOM     12  N   UNL     1       2.143  -0.150  -1.198  0.00  0.00    -0.323 N 
ATOM     13  C   UNL     1       2.862  -1.351  -1.233  0.00  0.00    +0.070 A 
ATOM     14  C   UNL     1       4.231  -1.593  -1.204  0.00  0.00    -0.025 A 
ATOM     15  C   UNL     1       4.673  -2.908  -1.253  0.00  0.00    +0.026 A 
ATOM     16  C   UNL     1       3.745  -3.927  -1.328  0.00  0.00    +0.015 A 
ATOM     17  N   UNL     1       2.452  -3.670  -1.355  0.00  0.00    -0.346 N 
ATOM     18  C   UNL     1       1.982  -2.429  -1.310  0.00  0.00    +0.123 A 
ATOM     19  N   UNL     1       0.666  -1.962  -1.328  0.00  0.00    -0.290 N 
ATOM     20  C   UNL     1       4.218  -5.357  -1.382  0.00  0.00    +0.063 C 
ATOM     21  C   UNL     1       5.213  -0.453  -1.122  0.00  0.00    +0.046 C 
ATOM     22  H   UNL     1       2.517   0.744  -1.145  0.00  0.00    +0.148 HD
ATOM     23  H   UNL     1       1.826  -4.409  -1.409  0.00  0.00    +0.167 HD
BRANCH  11  25
ATOM     24  C   UNL     1      -0.019   1.526   0.010  0.00  0.00    +0.007 C 
ATOM     25  C   UNL     1       0.002  -0.004   0.002  0.00  0.00    +0.039 C 
ENDBRANCH  11  25
ENDBRANCH   1  19
BRANCH   9  26
ATOM     26  C   UNL     1      -0.420  -5.670  -6.392  0.00  0.00    -0.007 A 
ATOM     27  C   UNL     1       0.202  -6.913  -6.477  0.00  0.00    +0.009 A 
ATOM     28  C   UNL     1       0.230  -7.590  -7.679  0.00  0.00    +0.001 A 
ATOM     29  C   UNL     1      -0.356  -7.040  -8.807  0.00  0.00    +0.001 A 
ATOM     30  C   UNL     1      -0.977  -5.810  -8.742  0.00  0.00    +0.012 A 
ATOM     31  C   UNL     1      -1.021  -5.115  -7.534  0.00  0.00    +0.030 A 
BRANCH  31  32
ATOM     32  C   UNL     1      -1.690  -3.799  -7.457  0.00  0.00    +0.207 A 
ATOM     33  N   UNL     1      -1.800  -3.020  -6.379  0.00  0.00    -0.106 NA
ATOM     34  N   UNL     1      -2.450  -1.964  -6.728  0.00  0.00    -0.021 NA
ATOM     35  N   UNL     1      -2.754  -2.045  -7.976  0.00  0.00    -0.021 NA
ATOM     36  N   UNL     1      -2.299  -3.153  -8.454  0.00  0.00    -0.106 NA
ENDBRANCH  31  32
ENDBRANCH   9  26
TORSDOF 4
