REMARK  Name = ZINC24762582
REMARK  4 active torsions:
REMARK  status: ('A' for Active; 'I' for Inactive)
REMARK    1  A    between atoms: C_4  and  C_7
REMARK    2  A    between atoms: C_7  and  C_12
REMARK    3  A    between atoms: C_12  and  N_13
REMARK    4  A    between atoms: C_14  and  C_16
REMARK                            x       y       z     vdW  Elec       q    Type
REMARK                         _______ _______ _______ _____ _____    ______ ____
ROOT
ATOM      1  N   UNL     1       2.573  -2.582  -1.120  0.00  0.00    -0.309 N 
ATOM      2  C   UNL     1       2.440  -3.606  -1.986  0.00  0.00    +0.265 C 
ATOM      3  O   UNL     1       3.290  -3.799  -2.834  0.00  0.00    -0.268 OA
ATOM      4  H   UNL     1       1.804  -2.407  -0.353  0.00  0.00    +0.149 HD
ENDROOT
BRANCH   2   5
ATOM      5  C   UNL     1       1.263  -4.494  -1.905  0.00  0.00    +0.153 A 
ATOM      6  C   UNL     1       1.107  -5.611  -2.850  0.00  0.00    +0.020 A 
ATOM      7  C   UNL     1       2.039  -5.895  -3.842  0.00  0.00    +0.011 A 
ATOM      8  C   UNL     1       1.825  -6.964  -4.686  0.00  0.00    +0.001 A 
ATOM      9  C   UNL     1       0.695  -7.759  -4.553  0.00  0.00    +0.001 A 
ATOM     10  C   UNL     1      -0.240  -7.498  -3.574  0.00  0.00    +0.014 A 
ATOM     11  C   UNL     1      -0.042  -6.424  -2.712  0.00  0.00    +0.050 A 
ATOM     12  C   UNL     1      -0.986  -6.075  -1.641  0.00  0.00    +0.272 A 
ATOM     13  O   UNL     1      -1.999  -6.727  -1.467  0.00  0.00    -0.266 OA
ATOM     14  N   UNL     1      -0.705  -5.014  -0.857  0.00  0.00    -0.242 N 
ATOM     15  H   UNL     1      -1.395  -4.729  -0.049  0.00  0.00    +0.192 HD
ATOM     16  N   UNL     1       0.343  -4.293  -0.994  0.00  0.00    -0.166 NA
ENDBRANCH   2   5
BRANCH   1  17
ATOM     17  C   UNL     1       3.741  -1.701  -1.201  0.00  0.00    +0.116 C 
BRANCH  17  18
ATOM     18  C   UNL     1       3.714  -0.710  -0.035  0.00  0.00    +0.011 C 
ATOM     19  C   UNL     1       3.672  -1.472   1.306  0.00  0.00    +0.013 C 
ATOM     20  C   UNL     1       5.155  -1.538   1.751  0.00  0.00    +0.001 C 
ATOM     21  C   UNL     1       5.702  -0.154   1.321  0.00  0.00    +0.001 C 
ATOM     22  C   UNL     1       5.005   0.127  -0.025  0.00  0.00    +0.013 C 
BRANCH  18  26
ATOM     23  C   UNL     1       0.310   1.849  -0.369  0.00  0.00    +0.000 A 
ATOM     24  C   UNL     1       1.124   1.924   0.745  0.00  0.00    +0.000 A 
ATOM     25  C   UNL     1       2.226   1.096   0.853  0.00  0.00    +0.004 A 
ATOM     26  C   UNL     1       2.513   0.193  -0.153  0.00  0.00    -0.040 A 
ATOM     27  C   UNL     1       1.699   0.118  -1.268  0.00  0.00    +0.004 A 
ATOM     28  C   UNL     1       0.597   0.946  -1.376  0.00  0.00    +0.000 A 
ENDBRANCH  18  26
ENDBRANCH  17  18
ENDBRANCH   1  17
TORSDOF 4
