REMARK  Name = ZINC25092123
REMARK  7 active torsions:
REMARK  status: ('A' for Active; 'I' for Inactive)
REMARK    1  A    between atoms: C_1  and  C_2
REMARK    2  A    between atoms: C_2  and  C_3
REMARK    3  A    between atoms: C_2  and  C_4
REMARK    4  A    between atoms: C_2  and  C_5
REMARK    5  A    between atoms: C_11  and  N_13
REMARK    6  A    between atoms: C_14  and  C_16
REMARK    7  A    between atoms: C_16  and  C_17
REMARK                            x       y       z     vdW  Elec       q    Type
REMARK                         _______ _______ _______ _____ _____    ______ ____
ROOT
ATOM      1  N   UNL     1      -1.208  -0.920   0.204  0.00  0.00    -0.312 N 
ATOM      2  C   UNL     1       0.055  -0.451   0.152  0.00  0.00    +0.217 C 
ATOM      3  O   UNL     1       0.988  -1.224   0.121  0.00  0.00    -0.276 OA
ATOM      4  H   UNL     1      -2.055  -0.219   0.233  0.00  0.00    +0.149 HD
ENDROOT
BRANCH   1  10
ATOM      5  C   UNL     1      -2.794  -2.663  -0.449  0.00  0.00    +0.015 C 
ATOM      6  C   UNL     1      -3.049  -4.172  -0.430  0.00  0.00    +0.006 C 
ATOM      7  C   UNL     1      -3.082  -4.665   1.018  0.00  0.00    +0.000 C 
ATOM      8  C   UNL     1      -1.741  -4.367   1.689  0.00  0.00    +0.002 C 
ATOM      9  C   UNL     1      -1.486  -2.858   1.670  0.00  0.00    +0.022 C 
ATOM     10  C   UNL     1      -1.452  -2.365   0.223  0.00  0.00    +0.077 C 
BRANCH   5  12
ATOM     11  C   UNL     1      -1.548  -2.771  -2.613  0.00  0.00    +0.011 C 
ATOM     12  C   UNL     1      -2.760  -2.170  -1.897  0.00  0.00    -0.033 C 
ATOM     13  C   UNL     1      -4.041  -2.603  -2.613  0.00  0.00    +0.011 C 
ATOM     14  C   UNL     1      -2.657  -0.644  -1.914  0.00  0.00    +0.011 C 
ENDBRANCH   5  12
ENDBRANCH   1  10
BRANCH   2  15
ATOM     15  C   UNL     1       0.306   1.035   0.134  0.00  0.00    +0.150 C 
BRANCH  15  16
ATOM     16  C   UNL     1       1.812   1.297   0.073  0.00  0.00    +0.268 C 
ATOM     17  C   UNL     1       2.059   2.777  -0.071  0.00  0.00    +0.259 C 
ATOM     18  O   UNL     1       2.184   3.270  -1.172  0.00  0.00    -0.271 OA
ATOM     19  N   UNL     1       2.139   3.553   1.031  0.00  0.00    -0.280 N 
ATOM     20  C   UNL     1       2.110   2.950   2.296  0.00  0.00    +0.076 A 
ATOM     21  C   UNL     1       1.975   3.717   3.441  0.00  0.00    +0.027 A 
ATOM     22  C   UNL     1       1.940   3.105   4.680  0.00  0.00    +0.002 A 
ATOM     23  C   UNL     1       2.046   1.730   4.779  0.00  0.00    +0.004 A 
ATOM     24  C   UNL     1       2.198   0.959   3.641  0.00  0.00    +0.047 A 
ATOM     25  C   UNL     1       2.240   1.566   2.397  0.00  0.00    +0.143 A 
ATOM     26  O   UNL     1       2.426   0.823   1.274  0.00  0.00    -0.477 OA
ATOM     27  H   UNL     1       2.227   4.644   0.930  0.00  0.00    +0.155 HD
ENDBRANCH  15  16
ENDBRANCH   2  15
TORSDOF 4
