REMARK  Name = ZINC39456428
REMARK  7 active torsions:
REMARK  status: ('A' for Active; 'I' for Inactive)
REMARK    1  A    between atoms: C_1  and  C_2
REMARK    2  A    between atoms: C_3  and  C_30
REMARK    3  A    between atoms: N_6  and  S_7
REMARK    4  A    between atoms: S_7  and  C_8
REMARK    5  A    between atoms: C_11  and  C_19
REMARK    6  A    between atoms: C_19  and  C_20
REMARK    7  A    between atoms: C_35  and  O_36
REMARK                            x       y       z     vdW  Elec       q    Type
REMARK                         _______ _______ _______ _____ _____    ______ ____
ROOT
ATOM      1  C   UNL     1      -0.520   1.323  -0.170  0.00  0.00    +0.065 C 
ATOM      2  C   UNL     1      -0.427  -0.180  -0.109  0.00  0.00    +0.036 A 
ATOM      3  C   UNL     1      -0.483  -1.027  -1.180  0.00  0.00    +0.011 A 
ATOM      4  C   UNL     1      -0.361  -2.337  -0.686  0.00  0.00    -0.011 A 
ATOM      5  C   UNL     1      -0.218  -2.241   0.674  0.00  0.00    +0.083 A 
ATOM      6  N   UNL     1      -0.269  -0.922   1.021  0.00  0.00    -0.285 N 
ATOM      7  C   UNL     1      -0.018  -3.424   1.532  0.00  0.00    +0.100 A 
ATOM      8  C   UNL     1       0.949  -4.424   1.054  0.00  0.00    +0.049 A 
ATOM      9  C   UNL     1       1.149  -5.574   1.798  0.00  0.00    -0.021 A 
ATOM     10  C   UNL     1       0.424  -5.713   2.998  0.00  0.00    +0.005 A 
ATOM     11  C   UNL     1       0.581  -6.862   3.795  0.00  0.00    +0.010 A 
ATOM     12  C   UNL     1      -0.116  -6.976   4.958  0.00  0.00    +0.001 A 
ATOM     13  C   UNL     1      -0.986  -5.968   5.372  0.00  0.00    +0.002 A 
ATOM     14  C   UNL     1      -1.167  -4.846   4.623  0.00  0.00    +0.028 A 
ATOM     15  C   UNL     1      -0.470  -4.693   3.410  0.00  0.00    +0.072 A 
ATOM     16  N   UNL     1      -0.659  -3.596   2.664  0.00  0.00    -0.244 NA
ATOM     17  C   UNL     1       1.677  -4.150  -0.184  0.00  0.00    +0.166 C 
ATOM     18  O   UNL     1       2.846  -3.829  -0.129  0.00  0.00    -0.292 OA
ATOM     19  C   UNL     1       1.001  -4.260  -1.531  0.00  0.00    +0.084 C 
ATOM     20  C   UNL     1      -0.396  -3.629  -1.452  0.00  0.00    +0.046 C 
ENDROOT
BRANCH   3  21
ATOM     21  C   UNL     1      -0.643  -0.636  -2.603  0.00  0.00    +0.026 A 
ATOM     22  C   UNL     1       0.479  -0.389  -3.390  0.00  0.00    +0.012 A 
ATOM     23  C   UNL     1       0.325  -0.025  -4.713  0.00  0.00    +0.001 A 
ATOM     24  C   UNL     1      -0.940   0.095  -5.260  0.00  0.00    +0.004 A 
ATOM     25  C   UNL     1      -2.060  -0.147  -4.486  0.00  0.00    +0.046 A 
ATOM     26  C   UNL     1      -1.919  -0.519  -3.159  0.00  0.00    +0.125 A 
BRANCH  26  27
ATOM     27  O   UNL     1      -3.019  -0.763  -2.399  0.00  0.00    -0.506 OA
ATOM     28  H   UNL     1      -3.363   0.017  -1.942  0.00  0.00    +0.292 HD
ENDBRANCH  26  27
ENDBRANCH   3  21
BRANCH   6  29
ATOM     29  S   UNL     1      -0.158  -0.325   2.562  0.00  0.00    -0.047 S 
ATOM     30  C   UNL     1      -1.877  -0.282   3.140  0.00  0.00    +0.110 C 
ENDBRANCH   6  29
BRANCH   9  31
ATOM     31  C   UNL     1       2.111  -6.640   1.341  0.00  0.00    +0.071 C 
BRANCH  31  32
ATOM     32  C   UNL     1       1.386  -7.628   0.464  0.00  0.00    -0.043 A 
ATOM     33  C   UNL     1       0.663  -8.658   1.036  0.00  0.00    +0.004 A 
ATOM     34  C   UNL     1      -0.002  -9.565   0.232  0.00  0.00    +0.000 A 
ATOM     35  C   UNL     1       0.055  -9.441  -1.144  0.00  0.00    +0.000 A 
ATOM     36  C   UNL     1       0.778  -8.411  -1.715  0.00  0.00    +0.000 A 
ATOM     37  C   UNL     1       1.439  -7.501  -0.911  0.00  0.00    +0.004 A 
ENDBRANCH  31  32
ENDBRANCH   9  31
TORSDOF 5
