REMARK  Name = ZINC06761978
REMARK  9 active torsions:
REMARK  status: ('A' for Active; 'I' for Inactive)
REMARK    1  A    between atoms: C_1  and  C_2
REMARK    2  A    between atoms: C_2  and  C_3
REMARK    3  A    between atoms: C_2  and  C_4
REMARK    4  A    between atoms: C_2  and  C_5
REMARK    5  A    between atoms: C_8  and  O_11
REMARK    6  A    between atoms: O_11  and  C_12
REMARK    7  A    between atoms: C_14  and  O_34
REMARK    8  A    between atoms: C_16  and  O_33
REMARK    9  A    between atoms: C_25  and  C_28
REMARK                            x       y       z     vdW  Elec       q    Type
REMARK                         _______ _______ _______ _____ _____    ______ ____
ROOT
ATOM      1  C   UNL     1      -3.599   1.824   0.029  0.00  0.00    +0.339 C 
ATOM      2  C   UNL     1      -4.787   0.892   0.281  0.00  0.00    +0.214 C 
ATOM      3  C   UNL     1      -6.094   1.690   0.204  0.00  0.00    +0.180 C 
ATOM      4  C   UNL     1      -6.160   2.382  -1.158  0.00  0.00    +0.184 C 
ATOM      5  C   UNL     1      -4.930   3.287  -1.308  0.00  0.00    +0.179 C 
ATOM      6  O   UNL     1      -3.754   2.484  -1.231  0.00  0.00    -0.331 OA
ATOM      7  C   UNL     1      -5.021   4.008  -2.653  0.00  0.00    +0.197 C 
ATOM      8  O   UNL     1      -6.271   4.708  -2.704  0.00  0.00    -0.342 OA
ATOM      9  C   UNL     1      -7.419   3.879  -2.522  0.00  0.00    +0.319 C 
ATOM     10  O   UNL     1      -7.333   3.187  -1.271  0.00  0.00    -0.336 OA
ENDROOT
BRANCH   9  11
ATOM     11  C   UNL     1      -8.660   4.734  -2.535  0.00  0.00    +0.161 A 
ATOM     12  C   UNL     1      -9.066   5.517  -3.551  0.00  0.00    +0.050 A 
ATOM     13  C   UNL     1     -10.270   6.132  -3.139  0.00  0.00    +0.041 A 
ATOM     14  C   UNL     1     -10.524   5.695  -1.892  0.00  0.00    +0.195 A 
ATOM     15  O   UNL     1      -9.546   4.849  -1.532  0.00  0.00    -0.463 OA
ENDBRANCH   9  11
BRANCH   3  16
ATOM     16  O   UNL     1      -7.207   0.805   0.347  0.00  0.00    -0.386 OA
ATOM     17  H   UNL     1      -7.218   0.321   1.184  0.00  0.00    +0.210 HD
ENDBRANCH   3  16
BRANCH   2  18
ATOM     18  O   UNL     1      -4.664   0.305   1.578  0.00  0.00    -0.383 OA
ATOM     19  H   UNL     1      -3.860  -0.218   1.698  0.00  0.00    +0.210 HD
ENDBRANCH   2  18
BRANCH   1  20
ATOM     20  O   UNL     1      -2.392   1.060   0.020  0.00  0.00    -0.461 OA
BRANCH  20  24
ATOM     21  C   UNL     1       1.156   3.166   0.007  0.00  0.00    -0.042 A 
ATOM     22  C   UNL     1       1.174   1.783   0.000  0.00  0.00    +0.008 A 
ATOM     23  C   UNL     1      -0.013   1.076   0.008  0.00  0.00    +0.046 A 
ATOM     24  C   UNL     1      -1.223   1.754   0.017  0.00  0.00    +0.124 A 
ATOM     25  C   UNL     1      -1.238   3.141   0.030  0.00  0.00    +0.046 A 
ATOM     26  C   UNL     1      -0.049   3.844   0.022  0.00  0.00    +0.008 A 
BRANCH  21  28
ATOM     27  C   UNL     1       3.246   3.582  -1.260  0.00  0.00    +0.015 C 
ATOM     28  C   UNL     1       2.452   3.935  -0.001  0.00  0.00    -0.013 C 
ATOM     29  C   UNL     1       2.154   5.436   0.009  0.00  0.00    +0.015 C 
ATOM     30  C   UNL     1       3.271   3.569   1.238  0.00  0.00    +0.015 C 
ENDBRANCH  21  28
ENDBRANCH  20  24
ENDBRANCH   1  20
TORSDOF 6
