REMARK  Name = ZINC62119327
REMARK  6 active torsions:
REMARK  status: ('A' for Active; 'I' for Inactive)
REMARK    1  A    between atoms: C_1  and  C_2
REMARK    2  A    between atoms: C_6  and  C_23
REMARK    3  A    between atoms: N_8  and  C_9
REMARK    4  A    between atoms: C_9  and  C_11
REMARK    5  A    between atoms: C_9  and  C_12
REMARK    6  A    between atoms: C_17  and  C_20
REMARK                            x       y       z     vdW  Elec       q    Type
REMARK                         _______ _______ _______ _____ _____    ______ ____
ROOT
ATOM      1  C   UNL     1       1.556  -1.075   0.643  0.00  0.00    +0.017 C 
ATOM      2  C   UNL     1       2.469  -0.727  -0.534  0.00  0.00    -0.004 C 
ENDROOT
BRANCH   1   8
ATOM      3  C   UNL     1       1.394   2.395   0.341  0.00  0.00    -0.013 C 
ATOM      4  C   UNL     1       0.573   1.104   0.368  0.00  0.00    -0.070 C 
ATOM      5  C   UNL     1      -0.867   1.407   0.833  0.00  0.00    -0.017 C 
ATOM      6  C   UNL     1      -0.825   1.063   2.346  0.00  0.00    -0.017 C 
ATOM      7  C   UNL     1       0.137  -0.150   2.364  0.00  0.00    -0.070 C 
ATOM      8  N   UNL     1       1.158   0.158   1.336  0.00  0.00    +0.391 N 
ATOM      9  C   UNL     1       0.789  -0.292   3.741  0.00  0.00    -0.013 C 
ATOM     10  H   UNL     1       1.966   0.576   1.773  0.00  0.00    -0.080 HD
ENDBRANCH   1   8
BRANCH   1  11
ATOM     11  C   UNL     1       2.293  -1.974   1.602  0.00  0.00    +0.202 C 
ATOM     12  O   UNL     1       3.004  -1.493   2.459  0.00  0.00    -0.277 OA
ATOM     13  N   UNL     1       2.163  -3.312   1.507  0.00  0.00    -0.302 N 
ATOM     14  C   UNL     1       1.419  -4.028   0.460  0.00  0.00    +0.108 C 
ATOM     15  C   UNL     1       1.569  -5.538   0.742  0.00  0.00    +0.035 C 
ATOM     16  C   UNL     1       2.857  -5.603   1.605  0.00  0.00    +0.121 C 
ATOM     17  C   UNL     1       2.747  -4.300   2.431  0.00  0.00    +0.122 C 
BRANCH  16  18
ATOM     18  C   UNL     1       2.847  -6.816   2.499  0.00  0.00    +0.361 C 
ATOM     19  O   UNL     1       2.813  -7.933   2.011  0.00  0.00    -0.246 OA
ATOM     20  O   UNL     1       2.873  -6.681   3.711  0.00  0.00    -0.246 OA
ENDBRANCH  16  18
ENDBRANCH   1  11
TORSDOF 3
