REMARK  Name = ZINC65536523
REMARK  2 active torsions:
REMARK  status: ('A' for Active; 'I' for Inactive)
REMARK    1  A    between atoms: N_4  and  C_6
REMARK    2  A    between atoms: C_11  and  C_12
REMARK                            x       y       z     vdW  Elec       q    Type
REMARK                         _______ _______ _______ _____ _____    ______ ____
ROOT
ATOM      1  C   UNL     1       4.094  -0.850  -0.260  0.00  0.00    +0.062 C 
ATOM      2  C   UNL     1       5.157  -0.981   0.832  0.00  0.00    +0.109 C 
ATOM      3  C   UNL     1       6.069  -2.137   0.523  0.00  0.00    +0.218 C 
ATOM      4  O   UNL     1       6.513  -2.808   1.430  0.00  0.00    -0.275 OA
ATOM      5  N   UNL     1       6.396  -2.436  -0.747  0.00  0.00    -0.285 N 
ATOM      6  C   UNL     1       5.881  -1.684  -1.809  0.00  0.00    +0.039 A 
ATOM      7  C   UNL     1       4.755  -0.893  -1.613  0.00  0.00    -0.018 A 
ATOM      8  C   UNL     1       4.241  -0.146  -2.659  0.00  0.00    +0.013 A 
ATOM      9  C   UNL     1       4.846  -0.189  -3.888  0.00  0.00    +0.001 A 
ATOM     10  C   UNL     1       5.981  -0.979  -4.109  0.00  0.00    +0.090 A 
ATOM     11  C   UNL     1       6.494  -1.731  -3.051  0.00  0.00    +0.053 A 
ATOM     12  N   UNL     1       6.368  -0.833  -5.409  0.00  0.00    -0.178 NA
ATOM     13  N   UNL     1       5.666  -0.072  -6.075  0.00  0.00    -0.304 N 
ATOM     14  C   UNL     1       4.587   0.463  -5.227  0.00  0.00    +0.171 C 
ATOM     15  H   UNL     1       6.994  -3.179  -0.929  0.00  0.00    +0.155 HD
ATOM     16  H   UNL     1       5.802   0.143  -7.011  0.00  0.00    +0.183 HD
ENDROOT
BRANCH   1  22
ATOM     17  C   UNL     1       1.796  -1.734   0.218  0.00  0.00    +0.069 A 
ATOM     18  C   UNL     1       0.892  -2.783   0.319  0.00  0.00    +0.031 A 
ATOM     19  C   UNL     1       1.305  -4.076   0.065  0.00  0.00    +0.040 A 
ATOM     20  C   UNL     1       2.620  -4.327  -0.289  0.00  0.00    +0.124 A 
ATOM     21  C   UNL     1       3.523  -3.282  -0.390  0.00  0.00    +0.044 A 
ATOM     22  C   UNL     1       3.112  -1.987  -0.143  0.00  0.00    -0.011 A 
ATOM     23  F   UNL     1       3.022  -5.593  -0.536  0.00  0.00    -0.205 F 
BRANCH  17  27
ATOM     24  C   UNL     1       0.232   1.440   0.456  0.00  0.00    +0.041 A 
ATOM     25  C   UNL     1       1.341   1.619   1.289  0.00  0.00    +0.135 A 
ATOM     26  N   UNL     1       2.029   0.505   1.301  0.00  0.00    -0.175 NA
ATOM     27  N   UNL     1       1.379  -0.420   0.474  0.00  0.00    -0.240 N 
ATOM     28  C   UNL     1       0.277   0.179  -0.033  0.00  0.00    +0.114 A 
ENDBRANCH  17  27
ENDBRANCH   1  22
TORSDOF 2
