REMARK  Name = ZINC03266246
REMARK  8 active torsions:
REMARK  status: ('A' for Active; 'I' for Inactive)
REMARK    1  A    between atoms: C_1  and  C_2
REMARK    2  A    between atoms: C_5  and  N_9
REMARK    3  A    between atoms: C_6  and  C_8
REMARK    4  A    between atoms: C_10  and  S_14
REMARK    5  A    between atoms: S_14  and  C_15
REMARK    6  A    between atoms: C_15  and  C_16
REMARK    7  A    between atoms: C_16  and  C_18
REMARK    8  A    between atoms: C_19  and  C_28
REMARK                            x       y       z     vdW  Elec       q    Type
REMARK                         _______ _______ _______ _____ _____    ______ ____
ROOT
ATOM      1  S   UNL     1       6.203   5.263   0.580  0.00  0.00    -0.076 S 
ENDROOT
BRANCH   1   3
ATOM      2  N   UNL     1       8.492   6.807   0.176  0.00  0.00    -0.187 N 
ATOM      3  C   UNL     1       7.171   6.732   0.476  0.00  0.00    +0.214 A 
ATOM      4  N   UNL     1       6.752   7.962   0.680  0.00  0.00    -0.101 NA
ATOM      5  N   UNL     1       7.714   8.797   0.524  0.00  0.00    -0.022 NA
ATOM      6  N   UNL     1       8.801   8.178   0.215  0.00  0.00    -0.038 NA
BRANCH   2  11
ATOM      7  C   UNL     1      12.014   2.512  -0.994  0.00  0.00    +0.044 C 
ATOM      8  C   UNL     1      11.079   3.652  -0.683  0.00  0.00    -0.050 A 
ATOM      9  C   UNL     1      10.245   3.581   0.418  0.00  0.00    +0.005 A 
ATOM     10  C   UNL     1       9.391   4.627   0.708  0.00  0.00    +0.028 A 
ATOM     11  C   UNL     1       9.362   5.746  -0.113  0.00  0.00    +0.073 A 
ATOM     12  C   UNL     1      10.200   5.815  -1.218  0.00  0.00    -0.025 A 
ATOM     13  C   UNL     1      11.056   4.768  -1.500  0.00  0.00    +0.008 A 
ATOM     14  C   UNL     1      10.177   7.031  -2.108  0.00  0.00    +0.046 C 
ENDBRANCH   2  11
ENDBRANCH   1   3
BRANCH   1  15
ATOM     15  C   UNL     1       4.598   5.976   1.019  0.00  0.00    +0.157 C 
BRANCH  15  16
ATOM     16  C   UNL     1       3.582   4.873   1.165  0.00  0.00    +0.176 C 
ATOM     17  O   UNL     1       3.931   3.712   1.094  0.00  0.00    -0.291 OA
BRANCH  16  18
ATOM     18  C   UNL     1       2.218   5.190   1.386  0.00  0.00    +0.046 A 
ATOM     19  C   UNL     1       1.236   5.332   0.430  0.00  0.00    +0.024 A 
ATOM     20  N   UNL     1       0.066   5.636   1.025  0.00  0.00    -0.358 N 
ATOM     21  H   UNL     1      -0.770   5.782   0.555  0.00  0.00    +0.166 HD
ATOM     22  C   UNL     1       0.219   5.708   2.394  0.00  0.00    +0.047 A 
ATOM     23  C   UNL     1       1.565   5.435   2.687  0.00  0.00    +0.010 A 
ATOM     24  C   UNL     1       2.008   5.440   4.006  0.00  0.00    +0.011 A 
ATOM     25  C   UNL     1       1.120   5.715   5.024  0.00  0.00    +0.001 A 
ATOM     26  C   UNL     1      -0.211   5.980   4.737  0.00  0.00    +0.002 A 
ATOM     27  C   UNL     1      -0.662   5.984   3.435  0.00  0.00    +0.026 A 
ATOM     28  C   UNL     1       1.439   5.171  -1.054  0.00  0.00    +0.064 C 
ENDBRANCH  16  18
ENDBRANCH  15  16
ENDBRANCH   1  15
TORSDOF 5
