REMARK  Name = ZINC59057883
REMARK  10 active torsions:
REMARK  status: ('A' for Active; 'I' for Inactive)
REMARK    1  A    between atoms: C_1  and  C_2
REMARK    2  A    between atoms: C_5  and  C_37
REMARK    3  A    between atoms: N_8  and  C_10
REMARK    4  A    between atoms: C_10  and  C_11
REMARK    5  A    between atoms: C_14  and  C_17
REMARK    6  A    between atoms: C_17  and  N_18
REMARK    7  A    between atoms: C_19  and  C_21
REMARK    8  A    between atoms: C_21  and  N_22
REMARK    9  A    between atoms: C_25  and  C_29
REMARK   10  A    between atoms: C_25  and  C_30
REMARK                            x       y       z     vdW  Elec       q    Type
REMARK                         _______ _______ _______ _____ _____    ______ ____
ROOT
ATOM      1  N   UNL     1       7.205  -0.064   0.580  0.00  0.00    -0.310 N 
ATOM      2  C   UNL     1       8.415   0.422   0.237  0.00  0.00    +0.231 C 
ATOM      3  O   UNL     1       9.372   0.229   0.956  0.00  0.00    -0.274 OA
ATOM      4  H   UNL     1       6.440   0.090   0.004  0.00  0.00    +0.149 HD
ENDROOT
BRANCH   1   5
ATOM      5  C   UNL     1       7.047  -0.825   1.821  0.00  0.00    +0.139 C 
BRANCH   5   9
ATOM      6  C   UNL     1       2.971  -2.034   2.241  0.00  0.00    -0.064 A 
ATOM      7  C   UNL     1       3.870  -2.852   1.582  0.00  0.00    +0.002 A 
ATOM      8  C   UNL     1       5.189  -2.460   1.446  0.00  0.00    +0.005 A 
ATOM      9  C   UNL     1       5.609  -1.252   1.969  0.00  0.00    -0.030 A 
ATOM     10  C   UNL     1       4.710  -0.434   2.628  0.00  0.00    +0.005 A 
ATOM     11  C   UNL     1       3.390  -0.823   2.760  0.00  0.00    +0.002 A 
BRANCH   6  12
ATOM     12  C   UNL     1       1.534  -2.461   2.390  0.00  0.00    -0.043 C 
BRANCH  12  18
ATOM     13  C   UNL     1      -0.019   1.526   0.010  0.00  0.00    +0.005 C 
ATOM     14  C   UNL     1       0.002  -0.004   0.002  0.00  0.00    -0.031 C 
ATOM     15  C   UNL     1      -1.434  -0.535   0.015  0.00  0.00    +0.003 C 
ATOM     16  C   UNL     1      -1.402  -2.064   0.086  0.00  0.00    -0.031 C 
ATOM     17  C   UNL     1      -0.613  -2.496   1.324  0.00  0.00    -0.075 C 
ATOM     18  N   UNL     1       0.758  -1.980   1.239  0.00  0.00    +0.383 N 
ATOM     19  C   UNL     1       0.740  -0.512   1.242  0.00  0.00    -0.075 C 
ATOM     20  C   UNL     1      -2.832  -2.602   0.177  0.00  0.00    +0.005 C 
ATOM     21  H   UNL     1       1.188  -2.307   0.386  0.00  0.00    -0.081 HD
ENDBRANCH  12  18
ENDBRANCH   6  12
ENDBRANCH   5   9
ENDBRANCH   1   5
BRANCH   2  22
ATOM     22  C   UNL     1       8.578   1.205  -1.040  0.00  0.00    +0.213 C 
BRANCH  22  23
ATOM     23  N   UNL     1       9.976   1.619  -1.184  0.00  0.00    -0.215 N 
ATOM     24  C   UNL     1      10.476   2.775  -0.703  0.00  0.00    +0.251 C 
ATOM     25  O   UNL     1       9.877   3.635  -0.093  0.00  0.00    -0.272 OA
ATOM     26  C   UNL     1      11.944   2.775  -1.083  0.00  0.00    +0.135 C 
ATOM     27  N   UNL     1      12.116   1.500  -1.800  0.00  0.00    -0.281 N 
ATOM     28  C   UNL     1      10.915   0.895  -1.803  0.00  0.00    +0.310 C 
ATOM     29  O   UNL     1      10.705  -0.187  -2.315  0.00  0.00    -0.252 OA
ATOM     30  C   UNL     1      12.262   3.957  -2.001  0.00  0.00    +0.047 C 
ATOM     31  H   UNL     1      12.937   1.162  -2.192  0.00  0.00    +0.152 HD
BRANCH  26  32
ATOM     32  C   UNL     1      12.810   2.811   0.150  0.00  0.00    -0.015 A 
ATOM     33  C   UNL     1      12.352   3.430   1.298  0.00  0.00    +0.009 A 
ATOM     34  C   UNL     1      13.145   3.463   2.429  0.00  0.00    +0.039 A 
ATOM     35  C   UNL     1      14.399   2.876   2.413  0.00  0.00    +0.123 A 
ATOM     36  C   UNL     1      14.857   2.256   1.262  0.00  0.00    +0.039 A 
ATOM     37  C   UNL     1      14.059   2.220   0.134  0.00  0.00    +0.009 A 
ATOM     38  F   UNL     1      15.176   2.908   3.518  0.00  0.00    -0.205 F 
ENDBRANCH  26  32
ENDBRANCH  22  23
ENDBRANCH   2  22
TORSDOF 7
