REMARK  Name = ZINC13033716
REMARK  9 active torsions:
REMARK  status: ('A' for Active; 'I' for Inactive)
REMARK    1  A    between atoms: C_1  and  O_2
REMARK    2  A    between atoms: O_2  and  C_3
REMARK    3  A    between atoms: C_6  and  C_9
REMARK    4  A    between atoms: C_9  and  N_70
REMARK    5  A    between atoms: C_10  and  C_11
REMARK    6  A    between atoms: C_10  and  N_70
REMARK    7  A    between atoms: C_27  and  C_28
REMARK    8  A    between atoms: C_27  and  N_70
REMARK    9  A    between atoms: N_32  and  C_33
REMARK                            x       y       z     vdW  Elec       q    Type
REMARK                         _______ _______ _______ _____ _____    ______ ____
ROOT
ATOM      1  N   UNL     1      -1.852   4.820   0.227  0.00  0.00    +0.390 N 
ATOM      2  H   UNL     1      -2.059   5.584  -0.427  0.00  0.00    -0.080 HD
ENDROOT
BRANCH   1   3
ATOM      3  C   UNL     1      -2.648   5.011   1.457  0.00  0.00    -0.042 C 
BRANCH   3   7
ATOM      4  C   UNL     1      -6.522   6.451   0.369  0.00  0.00    +0.120 A 
ATOM      5  C   UNL     1      -6.375   5.171   0.882  0.00  0.00    +0.046 A 
ATOM      6  C   UNL     1      -5.122   4.707   1.233  0.00  0.00    +0.005 A 
ATOM      7  C   UNL     1      -4.014   5.519   1.074  0.00  0.00    -0.064 A 
ATOM      8  C   UNL     1      -4.158   6.798   0.568  0.00  0.00    +0.005 A 
ATOM      9  C   UNL     1      -5.409   7.264   0.210  0.00  0.00    +0.046 A 
BRANCH   4  11
ATOM     10  C   UNL     1      -7.829   8.237  -0.499  0.00  0.00    +0.277 C 
ATOM     11  O   UNL     1      -7.754   6.909   0.023  0.00  0.00    -0.495 OA
ENDBRANCH   4  11
ENDBRANCH   3   7
ENDBRANCH   1   3
BRANCH   1  12
ATOM     12  C   UNL     1      -0.410   4.841   0.549  0.00  0.00    -0.036 C 
BRANCH  12  13
ATOM     13  C   UNL     1       0.362   5.132  -0.712  0.00  0.00    +0.001 A 
ATOM     14  C   UNL     1       0.702   6.410  -1.017  0.00  0.00    +0.017 A 
ATOM     15  C   UNL     1       1.456   6.660  -2.244  0.00  0.00    +0.002 A 
ATOM     16  C   UNL     1       1.837   7.957  -2.608  0.00  0.00    +0.059 A 
ATOM     17  C   UNL     1       2.543   8.162  -3.774  0.00  0.00    +0.163 A 
ATOM     18  C   UNL     1       2.879   7.080  -4.593  0.00  0.00    +0.164 A 
ATOM     19  C   UNL     1       2.506   5.794  -4.242  0.00  0.00    +0.075 A 
ATOM     20  C   UNL     1       1.794   5.571  -3.071  0.00  0.00    +0.053 A 
ATOM     21  N   UNL     1       1.413   4.295  -2.706  0.00  0.00    -0.322 N 
ATOM     22  H   UNL     1       1.646   3.545  -3.276  0.00  0.00    +0.169 HD
ATOM     23  C   UNL     1       0.724   4.077  -1.573  0.00  0.00    +0.251 A 
ATOM     24  O   UNL     1       0.405   2.936  -1.282  0.00  0.00    -0.268 OA
ATOM     25  O   UNL     1       3.580   7.273  -5.743  0.00  0.00    -0.485 OA
ATOM     26  C   UNL     1       3.615   8.608  -6.259  0.00  0.00    +0.270 C 
ATOM     27  C   UNL     1       3.933   9.563  -5.101  0.00  0.00    +0.270 C 
ATOM     28  O   UNL     1       2.904   9.431  -4.115  0.00  0.00    -0.485 OA
ENDBRANCH  12  13
ENDBRANCH   1  12
BRANCH   1  29
ATOM     29  C   UNL     1      -2.209   3.534  -0.410  0.00  0.00    +0.001 C 
BRANCH  29  30
ATOM     30  C   UNL     1      -3.523   3.700  -1.129  0.00  0.00    +0.135 A 
ATOM     31  N   UNL     1      -4.704   3.337  -0.693  0.00  0.00    -0.115 NA
ATOM     32  N   UNL     1      -5.573   3.648  -1.593  0.00  0.00    -0.023 NA
ATOM     33  N   UNL     1      -4.976   4.204  -2.589  0.00  0.00    -0.044 NA
ATOM     34  N   UNL     1      -3.711   4.248  -2.344  0.00  0.00    -0.228 N 
BRANCH  34  35
ATOM     35  C   UNL     1      -2.674   4.799  -3.220  0.00  0.00    +0.111 C 
ATOM     36  C   UNL     1      -3.049   6.228  -3.619  0.00  0.00    +0.027 C 
ATOM     37  C   UNL     1      -1.966   6.803  -4.534  0.00  0.00    +0.002 C 
ATOM     38  C   UNL     1      -1.846   5.937  -5.790  0.00  0.00    +0.000 C 
ATOM     39  C   UNL     1      -1.471   4.508  -5.390  0.00  0.00    +0.002 C 
ATOM     40  C   UNL     1      -2.554   3.933  -4.476  0.00  0.00    +0.027 C 
ENDBRANCH  34  35
ENDBRANCH  29  30
ENDBRANCH   1  29
TORSDOF 8
