REMARK  Name = ZINC02117049
REMARK  7 active torsions:
REMARK  status: ('A' for Active; 'I' for Inactive)
REMARK    1  A    between atoms: C_1  and  C_2
REMARK    2  A    between atoms: C_11  and  C_25
REMARK    3  A    between atoms: C_17  and  C_22
REMARK    4  A    between atoms: C_22  and  C_24
REMARK    5  A    between atoms: C_26  and  C_35
REMARK    6  A    between atoms: C_27  and  O_34
REMARK    7  A    between atoms: C_29  and  O_33
REMARK                            x       y       z     vdW  Elec       q    Type
REMARK                         _______ _______ _______ _____ _____    ______ ____
ROOT
ATOM      1  C   UNL     1       2.976   5.936  -0.283  0.00  0.00    +0.010 C 
ATOM      2  C   UNL     1       3.221   4.919   0.823  0.00  0.00    +0.019 C 
ATOM      3  C   UNL     1       2.933   3.503   0.340  0.00  0.00    +0.010 C 
ATOM      4  C   UNL     1       1.436   3.201   0.302  0.00  0.00    -0.003 C 
ATOM      5  C   UNL     1       0.814   3.453   1.670  0.00  0.00    +0.001 C 
ATOM      6  C   UNL     1      -0.679   3.123   1.599  0.00  0.00    +0.005 C 
ATOM      7  C   UNL     1      -0.828   1.630   1.306  0.00  0.00    +0.008 C 
ATOM      8  C   UNL     1      -0.226   1.270  -0.049  0.00  0.00    -0.016 C 
ATOM      9  C   UNL     1       1.222   1.777  -0.159  0.00  0.00    -0.000 C 
ATOM     10  C   UNL     1       2.032   0.754   0.663  0.00  0.00    +0.009 C 
ATOM     11  C   UNL     1       1.362  -0.575   0.268  0.00  0.00    +0.003 C 
ATOM     12  C   UNL     1      -0.072  -0.283  -0.107  0.00  0.00    +0.037 C 
ATOM     13  C   UNL     1      -1.138  -0.930   0.748  0.00  0.00    +0.015 C 
ATOM     14  C   UNL     1      -0.705  -2.280   1.314  0.00  0.00    +0.001 C 
ATOM     15  C   UNL     1       0.561  -2.047   2.151  0.00  0.00    +0.000 C 
ATOM     16  C   UNL     1       1.689  -1.708   1.181  0.00  0.00    +0.004 C 
ATOM     17  C   UNL     1      -1.086   1.785  -1.208  0.00  0.00    +0.012 C 
ATOM     18  C   UNL     1       1.014   4.906   2.101  0.00  0.00    +0.000 C 
ATOM     19  C   UNL     1       2.503   5.232   2.122  0.00  0.00    +0.077 C 
ATOM     20  C   UNL     1       2.723   6.681   2.551  0.00  0.00    +0.067 C 
ATOM     21  C   UNL     1       2.146   6.915   3.947  0.00  0.00    +0.117 C 
ATOM     22  C   UNL     1       0.682   6.500   4.019  0.00  0.00    +0.032 C 
ATOM     23  C   UNL     1       0.476   5.070   3.533  0.00  0.00    +0.012 C 
ATOM     24  C   UNL     1       0.226   5.843   1.189  0.00  0.00    +0.014 C 
ENDROOT
BRANCH  12  25
ATOM     25  C   UNL     1      -0.281  -0.725  -1.541  0.00  0.00    +0.137 C 
ATOM     26  O   UNL     1      -1.245  -1.392  -1.833  0.00  0.00    -0.297 OA
ATOM     27  C   UNL     1       0.713  -0.332  -2.603  0.00  0.00    +0.086 C 
ENDBRANCH  12  25
BRANCH  21  28
ATOM     28  O   UNL     1       2.906   6.208   4.927  0.00  0.00    -0.392 OA
ATOM     29  H   UNL     1       2.584   6.322   5.831  0.00  0.00    +0.210 HD
ENDBRANCH  21  28
BRANCH  19  30
ATOM     30  O   UNL     1       3.107   4.389   3.136  0.00  0.00    -0.388 OA
ATOM     31  H   UNL     1       4.061   4.514   3.235  0.00  0.00    +0.210 HD
ENDBRANCH  19  30
TORSDOF 3
