REMARK  Name = ZINC39632042
REMARK  16 active torsions:
REMARK  status: ('A' for Active; 'I' for Inactive)
REMARK    1  A    between atoms: C_1  and  C_2
REMARK    2  A    between atoms: C_2  and  C_4
REMARK    3  A    between atoms: C_2  and  N_11
REMARK    4  A    between atoms: C_4  and  C_5
REMARK    5  A    between atoms: C_5  and  C_6
REMARK    6  A    between atoms: C_6  and  C_7
REMARK    7  A    between atoms: C_7  and  C_8
REMARK    8  A    between atoms: C_7  and  C_9
REMARK    9  A    between atoms: C_7  and  O_10
REMARK   10  A    between atoms: C_12  and  C_14
REMARK   11  A    between atoms: C_25  and  C_27
REMARK   12  A    between atoms: C_27  and  C_29
REMARK   13  A    between atoms: C_27  and  O_32
REMARK   14  A    between atoms: C_29  and  C_30
REMARK   15  A    between atoms: C_29  and  C_31
REMARK   16  A    between atoms: O_32  and  C_33
REMARK                            x       y       z     vdW  Elec       q    Type
REMARK                         _______ _______ _______ _____ _____    ______ ____
ROOT
ATOM      1  C   UNL     1      -3.781  -0.889  -1.001  0.00  0.00    +0.100 C 
ATOM      2  C   UNL     1      -3.681  -2.375  -0.590  0.00  0.00    +0.121 C 
ATOM      3  N   UNL     1      -4.648  -3.073  -1.469  0.00  0.00    -0.297 N 
ATOM      4  C   UNL     1      -4.499  -2.406  -2.784  0.00  0.00    +0.115 C 
ATOM      5  C   UNL     1      -4.318  -0.914  -2.442  0.00  0.00    -0.004 C 
ATOM      6  C   UNL     1      -5.658  -0.188  -2.519  0.00  0.00    -0.010 C 
ATOM      7  C   UNL     1      -6.144  -0.177  -3.971  0.00  0.00    -0.082 C 
ATOM      8  N   UNL     1      -5.150   0.497  -4.816  0.00  0.00    +0.379 N 
ATOM      9  C   UNL     1      -3.892  -0.258  -4.809  0.00  0.00    -0.082 C 
ATOM     10  C   UNL     1      -3.311  -0.273  -3.392  0.00  0.00    -0.010 C 
ATOM     11  C   UNL     1      -5.476  -4.086  -1.146  0.00  0.00    +0.257 C 
ATOM     12  O   UNL     1      -6.154  -4.612  -2.003  0.00  0.00    -0.272 OA
ATOM     13  H   UNL     1      -5.500   0.558  -5.761  0.00  0.00    -0.086 HD
ATOM     14  H   UNL     1      -4.985   1.427  -4.461  0.00  0.00    -0.086 HD
ENDROOT
BRANCH   1  16
ATOM     15  N   UNL     1      -2.318   1.100  -0.855  0.00  0.00    -0.312 N 
ATOM     16  C   UNL     1      -2.422  -0.240  -0.958  0.00  0.00    +0.218 C 
ATOM     17  O   UNL     1      -1.422  -0.923  -1.016  0.00  0.00    -0.275 OA
ATOM     18  H   UNL     1      -3.119   1.646  -0.809  0.00  0.00    +0.149 HD
BRANCH  15  20
ATOM     19  C   UNL     1      -0.490   1.949  -2.241  0.00  0.00    +0.028 C 
ATOM     20  C   UNL     1      -0.997   1.731  -0.814  0.00  0.00    +0.070 C 
BRANCH  20  21
ATOM     21  C   UNL     1      -1.098   3.080  -0.098  0.00  0.00    +0.022 C 
BRANCH  21  22
ATOM     22  C   UNL     1      -1.484   2.852   1.365  0.00  0.00    +0.005 C 
BRANCH  22  23
ATOM     23  C   UNL     1      -1.586   4.201   2.082  0.00  0.00    +0.034 C 
BRANCH  23  24
ATOM     24  C   UNL     1      -1.972   3.973   3.545  0.00  0.00    +0.061 C 
ATOM     25  C   UNL     1      -0.906   3.113   4.226  0.00  0.00    +0.041 C 
ATOM     26  C   UNL     1      -2.073   5.322   4.261  0.00  0.00    +0.041 C 
BRANCH  24  27
ATOM     27  O   UNL     1      -3.234   3.305   3.606  0.00  0.00    -0.389 OA
ATOM     28  H   UNL     1      -3.958   3.795   3.192  0.00  0.00    +0.210 HD
ENDBRANCH  24  27
ENDBRANCH  23  24
ENDBRANCH  22  23
ENDBRANCH  21  22
ENDBRANCH  20  21
ENDBRANCH  15  20
ENDBRANCH   1  16
BRANCH  11  29
ATOM     29  C   UNL     1      -5.560  -4.566   0.281  0.00  0.00    +0.261 C 
BRANCH  29  30
ATOM     30  C   UNL     1      -4.495  -5.637   0.522  0.00  0.00    +0.033 C 
ATOM     31  C   UNL     1      -3.119  -5.082   0.150  0.00  0.00    +0.011 C 
ATOM     32  C   UNL     1      -4.501  -6.038   1.998  0.00  0.00    +0.011 C 
ENDBRANCH  29  30
BRANCH  29  33
ATOM     33  O   UNL     1      -6.855  -5.118   0.522  0.00  0.00    -0.479 OA
BRANCH  33  34
ATOM     34  C   UNL     1      -7.374  -4.953   1.767  0.00  0.00    +0.122 A 
ATOM     35  C   UNL     1      -6.694  -4.194   2.708  0.00  0.00    +0.045 A 
ATOM     36  C   UNL     1      -7.224  -4.028   3.973  0.00  0.00    +0.004 A 
ATOM     37  C   UNL     1      -8.430  -4.617   4.302  0.00  0.00    +0.000 A 
ATOM     38  C   UNL     1      -9.110  -5.375   3.366  0.00  0.00    +0.004 A 
ATOM     39  C   UNL     1      -8.587  -5.539   2.098  0.00  0.00    +0.045 A 
ENDBRANCH  33  34
ENDBRANCH  29  33
ENDBRANCH  11  29
TORSDOF 11
