REMARK  Name = ZINC08703991
REMARK  5 active torsions:
REMARK  status: ('A' for Active; 'I' for Inactive)
REMARK    1  A    between atoms: C_1  and  C_2
REMARK    2  A    between atoms: C_4  and  C_14
REMARK    3  A    between atoms: C_5  and  C_13
REMARK    4  A    between atoms: N_6  and  C_7
REMARK    5  A    between atoms: C_7  and  C_8
REMARK                            x       y       z     vdW  Elec       q    Type
REMARK                         _______ _______ _______ _____ _____    ______ ____
ROOT
ATOM      1  C   UNL     1       3.465  -1.606   5.258  0.00  0.00    +0.063 C 
ATOM      2  C   UNL     1       4.063  -0.803   4.131  0.00  0.00    +0.017 A 
ATOM      3  C   UNL     1       3.924  -1.062   2.815  0.00  0.00    +0.029 A 
ATOM      4  C   UNL     1       4.638  -0.072   2.113  0.00  0.00    +0.011 A 
ATOM      5  C   UNL     1       5.191   0.751   3.026  0.00  0.00    +0.023 A 
ATOM      6  N   UNL     1       4.837   0.310   4.267  0.00  0.00    -0.341 N 
ATOM      7  C   UNL     1       6.050   1.953   2.728  0.00  0.00    +0.064 C 
ENDROOT
BRANCH   4   8
ATOM      8  C   UNL     1       4.767   0.042   0.616  0.00  0.00    +0.191 C 
ATOM      9  N   UNL     1       3.627  -0.627  -0.023  0.00  0.00    -0.322 N 
ATOM     10  C   UNL     1       2.393   0.013  -0.018  0.00  0.00    +0.041 A 
ATOM     11  C   UNL     1       1.201  -0.690  -0.012  0.00  0.00    +0.024 A 
ATOM     12  C   UNL     1       0.002  -0.004   0.002  0.00  0.00    +0.002 A 
ATOM     13  C   UNL     1      -0.017   1.382   0.010  0.00  0.00    +0.001 A 
ATOM     14  C   UNL     1       1.162   2.099   0.002  0.00  0.00    +0.015 A 
ATOM     15  C   UNL     1       2.378   1.420  -0.013  0.00  0.00    +0.058 A 
ATOM     16  C   UNL     1       3.666   2.136  -0.026  0.00  0.00    +0.247 C 
ATOM     17  O   UNL     1       3.706   3.326  -0.272  0.00  0.00    -0.270 OA
ATOM     18  N   UNL     1       4.801   1.455   0.239  0.00  0.00    -0.289 N 
ATOM     19  H   UNL     1       3.732  -1.497  -0.439  0.00  0.00    +0.148 HD
ATOM     20  H   UNL     1       5.655   1.911   0.178  0.00  0.00    +0.151 HD
ENDBRANCH   4   8
BRANCH   6  21
ATOM     21  C   UNL     1       5.229   0.928   5.537  0.00  0.00    +0.196 C 
BRANCH  21  22
ATOM     22  C   UNL     1       6.527   0.327   6.008  0.00  0.00    +0.124 A 
ATOM     23  C   UNL     1       7.759   0.776   5.706  0.00  0.00    +0.046 A 
ATOM     24  C   UNL     1       8.678  -0.077   6.358  0.00  0.00    +0.041 A 
ATOM     25  C   UNL     1       7.954  -1.003   7.013  0.00  0.00    +0.195 A 
ATOM     26  O   UNL     1       6.652  -0.753   6.797  0.00  0.00    -0.466 OA
ENDBRANCH  21  22
ENDBRANCH   6  21
TORSDOF 3
