REMARK  Name = ZINC44942340
REMARK  7 active torsions:
REMARK  status: ('A' for Active; 'I' for Inactive)
REMARK    1  A    between atoms: C_4  and  C_7
REMARK    2  A    between atoms: C_7  and  C_8
REMARK    3  A    between atoms: C_8  and  C_9
REMARK    4  A    between atoms: C_9  and  C_10
REMARK    5  A    between atoms: C_10  and  N_11
REMARK    6  A    between atoms: C_12  and  C_14
REMARK    7  A    between atoms: C_20  and  C_22
REMARK                            x       y       z     vdW  Elec       q    Type
REMARK                         _______ _______ _______ _____ _____    ______ ____
ROOT
ATOM      1  C   UNL     1       9.167  -3.791   3.939  0.00  0.00    +0.087 C 
ATOM      2  C   UNL     1      10.227  -2.961   3.212  0.00  0.00    +0.013 C 
ATOM      3  C   UNL     1      11.555  -3.720   3.208  0.00  0.00    +0.001 C 
ATOM      4  C   UNL     1      12.003  -3.972   4.650  0.00  0.00    +0.001 C 
ATOM      5  C   UNL     1      10.943  -4.802   5.376  0.00  0.00    +0.013 C 
ATOM      6  C   UNL     1       9.615  -4.042   5.380  0.00  0.00    +0.087 C 
ENDROOT
BRANCH   6   7
ATOM      7  C   UNL     1       8.571  -4.860   6.096  0.00  0.00    +0.219 C 
ATOM      8  O   UNL     1       7.818  -5.569   5.463  0.00  0.00    -0.275 OA
ATOM      9  N   UNL     1       8.473  -4.802   7.439  0.00  0.00    -0.298 N 
ATOM     10  C   UNL     1       9.306  -3.868   8.210  0.00  0.00    +0.126 C 
ATOM     11  C   UNL     1       8.389  -2.991   9.071  0.00  0.00    +0.125 C 
ATOM     12  N   UNL     1       7.448  -3.860   9.791  0.00  0.00    -0.314 N 
ATOM     13  C   UNL     1       6.615  -4.794   9.020  0.00  0.00    +0.125 C 
ATOM     14  C   UNL     1       7.528  -5.667   8.158  0.00  0.00    +0.126 C 
ATOM     15  C   UNL     1       7.348  -3.801  11.176  0.00  0.00    +0.099 A 
ATOM     16  C   UNL     1       8.042  -2.819  11.876  0.00  0.00    +0.042 A 
ATOM     17  C   UNL     1       7.933  -2.771  13.254  0.00  0.00    +0.005 A 
ATOM     18  C   UNL     1       7.130  -3.711  13.888  0.00  0.00    +0.018 A 
ATOM     19  C   UNL     1       6.470  -4.657  13.131  0.00  0.00    +0.084 A 
ATOM     20  N   UNL     1       6.588  -4.675  11.817  0.00  0.00    -0.350 N 
ATOM     21  H   UNL     1       6.110  -5.349  11.308  0.00  0.00    +0.166 HD
ENDBRANCH   6   7
BRANCH   1  23
ATOM     22  N   UNL     1       7.269  -2.710   2.777  0.00  0.00    -0.315 N 
ATOM     23  C   UNL     1       7.859  -3.042   3.943  0.00  0.00    +0.217 C 
ATOM     24  O   UNL     1       7.336  -2.740   4.995  0.00  0.00    -0.275 OA
ATOM     25  H   UNL     1       7.687  -2.952   1.936  0.00  0.00    +0.149 HD
BRANCH  22  26
ATOM     26  C   UNL     1       5.998  -1.982   2.781  0.00  0.00    +0.104 C 
BRANCH  26  27
ATOM     27  C   UNL     1       5.550  -1.731   1.340  0.00  0.00    +0.019 C 
BRANCH  27  28
ATOM     28  C   UNL     1       4.221  -0.971   1.344  0.00  0.00    +0.006 C 
BRANCH  28  29
ATOM     29  C   UNL     1       3.773  -0.720  -0.097  0.00  0.00    +0.035 C 
BRANCH  29  33
ATOM     30  C   UNL     1       0.066   1.401  -0.088  0.00  0.00    +0.000 A 
ATOM     31  C   UNL     1       1.260   2.097  -0.092  0.00  0.00    +0.000 A 
ATOM     32  C   UNL     1       2.460   1.411  -0.095  0.00  0.00    +0.003 A 
ATOM     33  C   UNL     1       2.465   0.028  -0.093  0.00  0.00    -0.047 A 
ATOM     34  C   UNL     1       1.271  -0.668  -0.088  0.00  0.00    +0.003 A 
ATOM     35  C   UNL     1       0.071   0.019  -0.087  0.00  0.00    +0.000 A 
ENDBRANCH  29  33
ENDBRANCH  28  29
ENDBRANCH  27  28
ENDBRANCH  26  27
ENDBRANCH  22  26
ENDBRANCH   1  23
TORSDOF 7
