REMARK  Name = ZINC20928345
REMARK  8 active torsions:
REMARK  status: ('A' for Active; 'I' for Inactive)
REMARK    1  A    between atoms: C_1  and  C_2
REMARK    2  A    between atoms: C_5  and  S_11
REMARK    3  A    between atoms: C_7  and  N_8
REMARK    4  A    between atoms: S_11  and  N_14
REMARK    5  A    between atoms: N_14  and  N_15
REMARK    6  A    between atoms: C_18  and  C_25
REMARK    7  A    between atoms: C_21  and  C_23
REMARK    8  A    between atoms: C_21  and  C_24
REMARK                            x       y       z     vdW  Elec       q    Type
REMARK                         _______ _______ _______ _____ _____    ______ ____
ROOT
ATOM      1  S   UNL     1      -1.640   6.672   5.778  0.00  0.00    +0.087 S 
ATOM      2  O   UNL     1      -2.552   7.401   6.587  0.00  0.00    -0.149 OA
ATOM      3  O   UNL     1      -0.460   6.080   6.304  0.00  0.00    -0.149 OA
ENDROOT
BRANCH   1   8
ATOM      4  C   UNL     1       0.116  10.399   1.370  0.00  0.00    +0.046 C 
ATOM      5  C   UNL     1      -0.323   9.468   2.471  0.00  0.00    -0.020 A 
ATOM      6  C   UNL     1       0.482   8.406   2.840  0.00  0.00    +0.007 A 
ATOM      7  C   UNL     1       0.082   7.555   3.853  0.00  0.00    +0.029 A 
ATOM      8  C   UNL     1      -1.127   7.760   4.491  0.00  0.00    +0.112 A 
ATOM      9  C   UNL     1      -1.932   8.822   4.122  0.00  0.00    +0.061 A 
ATOM     10  C   UNL     1      -1.530   9.676   3.112  0.00  0.00    +0.131 A 
BRANCH  10  11
ATOM     11  N   UNL     1      -2.392  10.812   2.716  0.00  0.00    +0.057 N 
ATOM     12  O   UNL     1      -1.890  11.879   2.408  0.00  0.00    -0.126 OA
ATOM     13  O   UNL     1      -3.603  10.681   2.700  0.00  0.00    -0.126 OA
ENDBRANCH  10  11
ENDBRANCH   1   8
BRANCH   1  14
ATOM     14  N   UNL     1      -2.507   5.451   5.071  0.00  0.00    -0.137 N 
ATOM     15  H   UNL     1      -3.432   5.303   5.323  0.00  0.00    +0.197 HD
BRANCH  14  16
ATOM     16  N   UNL     1      -1.904   4.631   4.108  0.00  0.00    -0.175 NA
ATOM     17  C   UNL     1      -2.593   3.733   3.510  0.00  0.00    +0.039 C 
ATOM     18  C   UNL     1      -4.017   3.440   3.929  0.00  0.00    +0.055 C 
ATOM     19  C   UNL     1      -4.158   1.931   4.156  0.00  0.00    -0.008 C 
ATOM     20  C   UNL     1      -3.704   1.184   2.901  0.00  0.00    +0.010 C 
ATOM     21  C   UNL     1      -2.218   1.446   2.650  0.00  0.00    -0.029 C 
ATOM     22  C   UNL     1      -2.005   2.937   2.366  0.00  0.00    +0.059 C 
ATOM     23  C   UNL     1      -1.752   0.626   1.445  0.00  0.00    +0.011 C 
ATOM     24  C   UNL     1      -1.413   1.041   3.886  0.00  0.00    +0.011 C 
ATOM     25  C   UNL     1      -5.621   1.594   4.450  0.00  0.00    +0.008 C 
ENDBRANCH  14  16
ENDBRANCH   1  14
TORSDOF 4
