REMARK  Name = ZINC34791092
REMARK  14 active torsions:
REMARK  status: ('A' for Active; 'I' for Inactive)
REMARK    1  A    between atoms: C_1  and  C_2
REMARK    2  A    between atoms: C_2  and  N_3
REMARK    3  A    between atoms: C_6  and  C_11
REMARK    4  A    between atoms: C_14  and  C_17
REMARK    5  A    between atoms: N_23  and  C_25
REMARK    6  A    between atoms: C_25  and  C_27
REMARK    7  A    between atoms: C_25  and  C_30
REMARK    8  A    between atoms: C_27  and  C_28
REMARK    9  A    between atoms: C_27  and  C_29
REMARK   10  A    between atoms: N_32  and  C_33
REMARK   11  A    between atoms: C_33  and  C_34
REMARK   12  A    between atoms: C_34  and  C_35
REMARK   13  A    between atoms: C_35  and  C_36
REMARK   14  A    between atoms: C_35  and  C_37
REMARK                            x       y       z     vdW  Elec       q    Type
REMARK                         _______ _______ _______ _____ _____    ______ ____
ROOT
ATOM      1  N   UNL     1       0.549  -1.061  -0.791  0.00  0.00    -0.257 N 
ATOM      2  C   UNL     1       1.831  -1.122  -0.322  0.00  0.00    +0.042 C 
ATOM      3  C   UNL     1       2.087  -1.324   0.986  0.00  0.00    +0.058 C 
ATOM      4  C   UNL     1       0.905  -1.481   1.920  0.00  0.00    +0.142 C 
ATOM      5  N   UNL     1      -0.436  -1.399   1.317  0.00  0.00    -0.288 N 
ATOM      6  C   UNL     1      -0.532  -1.188  -0.010  0.00  0.00    +0.307 C 
ATOM      7  O   UNL     1      -1.635  -1.115  -0.516  0.00  0.00    -0.252 OA
ATOM      8  C   UNL     1       3.478  -1.347   1.215  0.00  0.00    +0.247 C 
ATOM      9  O   UNL     1       3.994  -1.512   2.305  0.00  0.00    -0.270 OA
ATOM     10  N   UNL     1       4.162  -1.162   0.071  0.00  0.00    -0.280 N 
ATOM     11  C   UNL     1       3.174  -1.003  -1.006  0.00  0.00    +0.160 C 
ATOM     12  H   UNL     1      -1.233  -1.492   1.864  0.00  0.00    +0.151 HD
ENDROOT
BRANCH   4  13
ATOM     13  C   UNL     1       1.026  -2.819   2.603  0.00  0.00    -0.023 A 
ATOM     14  C   UNL     1       0.643  -3.970   1.941  0.00  0.00    +0.006 A 
ATOM     15  C   UNL     1       0.754  -5.197   2.567  0.00  0.00    +0.013 A 
ATOM     16  C   UNL     1       1.249  -5.274   3.856  0.00  0.00    +0.055 A 
ATOM     17  C   UNL     1       1.633  -4.122   4.518  0.00  0.00    +0.013 A 
ATOM     18  C   UNL     1       1.526  -2.896   3.890  0.00  0.00    +0.006 A 
BRANCH  16  19
ATOM     19  C   UNL     1       1.370  -6.611   4.538  0.00  0.00    +0.417 C 
ATOM     20  F   UNL     1       2.629  -7.159   4.272  0.00  0.00    -0.166 F 
ATOM     21  F   UNL     1       1.216  -6.446   5.919  0.00  0.00    -0.166 F 
ATOM     22  F   UNL     1       0.376  -7.471   4.058  0.00  0.00    -0.166 F 
ENDBRANCH  16  19
ENDBRANCH   4  13
BRANCH   1  24
ATOM     23  C   UNL     1       0.268   0.663  -2.502  0.00  0.00    +0.025 C 
ATOM     24  C   UNL     1       0.346  -0.839  -2.224  0.00  0.00    +0.111 C 
ENDBRANCH   1  24
BRANCH  10  25
ATOM     25  C   UNL     1       5.619  -1.126  -0.074  0.00  0.00    +0.165 C 
BRANCH  25  26
ATOM     26  C   UNL     1       6.194  -2.470   0.292  0.00  0.00    +0.234 C 
ATOM     27  O   UNL     1       5.524  -3.268   0.912  0.00  0.00    -0.274 OA
ATOM     28  N   UNL     1       7.454  -2.785  -0.070  0.00  0.00    -0.314 N 
ATOM     29  H   UNL     1       8.015  -2.122  -0.501  0.00  0.00    +0.149 HD
BRANCH  28  30
ATOM     30  C   UNL     1       7.976  -4.129   0.189  0.00  0.00    +0.104 C 
BRANCH  30  31
ATOM     31  C   UNL     1       9.417  -4.223  -0.315  0.00  0.00    +0.022 C 
BRANCH  31  32
ATOM     32  C   UNL     1       9.962  -5.627  -0.045  0.00  0.00    -0.016 C 
ATOM     33  C   UNL     1       9.177  -6.646  -0.873  0.00  0.00    +0.007 C 
ATOM     34  C   UNL     1      11.440  -5.684  -0.435  0.00  0.00    +0.007 C 
ENDBRANCH  31  32
ENDBRANCH  30  31
ENDBRANCH  28  30
ENDBRANCH  25  26
BRANCH  25  35
ATOM     35  C   UNL     1       6.198  -0.054   0.852  0.00  0.00    +0.012 C 
ATOM     36  C   UNL     1       7.709   0.046   0.635  0.00  0.00    +0.009 C 
ATOM     37  C   UNL     1       5.547   1.295   0.540  0.00  0.00    +0.009 C 
ENDBRANCH  25  35
ENDBRANCH  10  25
TORSDOF 9
