REMARK  Name = ZINC38677119
REMARK  12 active torsions:
REMARK  status: ('A' for Active; 'I' for Inactive)
REMARK    1  A    between atoms: C_1  and  C_2
REMARK    2  A    between atoms: C_2  and  C_3
REMARK    3  A    between atoms: C_6  and  C_9
REMARK    4  A    between atoms: C_14  and  O_23
REMARK    5  A    between atoms: C_18  and  N_22
REMARK    6  A    between atoms: C_19  and  C_20
REMARK    7  A    between atoms: O_23  and  C_24
REMARK    8  A    between atoms: C_24  and  C_26
REMARK    9  A    between atoms: C_26  and  O_27
REMARK   10  A    between atoms: O_27  and  C_28
REMARK   11  A    between atoms: C_31  and  O_34
REMARK   12  A    between atoms: O_34  and  C_35
REMARK                            x       y       z     vdW  Elec       q    Type
REMARK                         _______ _______ _______ _____ _____    ______ ____
ROOT
ATOM      1  C   UNL     1      -5.400  -2.027  -0.015  0.00  0.00    +0.098 C 
ATOM      2  C   UNL     1      -6.306  -1.034  -0.695  0.00  0.00    +0.008 A 
ATOM      3  C   UNL     1      -6.757   0.068   0.009  0.00  0.00    +0.012 A 
ATOM      4  C   UNL     1      -7.588   0.989  -0.598  0.00  0.00    +0.047 A 
ATOM      5  C   UNL     1      -7.974   0.809  -1.919  0.00  0.00    +0.135 A 
ATOM      6  C   UNL     1      -7.524  -0.294  -2.626  0.00  0.00    +0.093 A 
ATOM      7  C   UNL     1      -6.688  -1.218  -2.014  0.00  0.00    +0.138 A 
ATOM      8  O   UNL     1      -6.256  -2.292  -2.720  0.00  0.00    -0.441 OA
ATOM      9  C   UNL     1      -5.787  -3.373  -2.075  0.00  0.00    +0.199 C 
ATOM     10  C   UNL     1      -5.365  -3.312  -0.793  0.00  0.00    +0.098 C 
ENDROOT
BRANCH   1  14
ATOM     11  C   UNL     1      -1.453  -0.411   0.223  0.00  0.00    -0.048 A 
ATOM     12  C   UNL     1      -2.135  -0.742   1.379  0.00  0.00    +0.004 A 
ATOM     13  C   UNL     1      -3.413  -1.265   1.302  0.00  0.00    +0.005 A 
ATOM     14  C   UNL     1      -4.008  -1.456   0.069  0.00  0.00    -0.035 A 
ATOM     15  C   UNL     1      -3.326  -1.125  -1.087  0.00  0.00    +0.005 A 
ATOM     16  C   UNL     1      -2.050  -0.598  -1.010  0.00  0.00    +0.004 A 
BRANCH  11  18
ATOM     17  C   UNL     1      -0.138   1.684   0.400  0.00  0.00    +0.009 C 
ATOM     18  C   UNL     1      -0.060   0.159   0.307  0.00  0.00    +0.032 C 
ENDBRANCH  11  18
ENDBRANCH   1  14
BRANCH   9  19
ATOM     19  N   UNL     1      -5.734  -4.574  -2.738  0.00  0.00    -0.328 N 
ATOM     20  H   UNL     1      -6.033  -4.633  -3.659  0.00  0.00    +0.145 HD
ATOM     21  H   UNL     1      -5.398  -5.364  -2.286  0.00  0.00    +0.145 HD
ENDBRANCH   9  19
BRANCH  10  22
ATOM     22  C   UNL     1      -4.874  -4.501  -0.163  0.00  0.00    +0.101 C 
ATOM     23  N   UNL     1      -4.485  -5.444   0.336  0.00  0.00    -0.191 NA
ENDBRANCH  10  22
BRANCH   5  24
ATOM     24  O   UNL     1      -8.793   1.714  -2.518  0.00  0.00    -0.423 OA
BRANCH  24  25
ATOM     25  C   UNL     1     -10.046   1.332  -2.814  0.00  0.00    +0.350 C 
ATOM     26  O   UNL     1     -10.448   0.250  -2.456  0.00  0.00    -0.247 OA
BRANCH  25  27
ATOM     27  C   UNL     1     -10.950   2.252  -3.593  0.00  0.00    +0.349 C 
BRANCH  27  28
ATOM     28  O   UNL     1     -12.220   1.625  -3.781  0.00  0.00    -0.481 OA
BRANCH  28  29
ATOM     29  C   UNL     1     -13.159   2.326  -4.470  0.00  0.00    +0.122 A 
ATOM     30  C   UNL     1     -12.860   3.589  -4.960  0.00  0.00    +0.049 A 
ATOM     31  C   UNL     1     -13.814   4.302  -5.660  0.00  0.00    +0.049 A 
ATOM     32  C   UNL     1     -15.071   3.754  -5.873  0.00  0.00    +0.120 A 
ATOM     33  C   UNL     1     -15.369   2.491  -5.384  0.00  0.00    +0.049 A 
ATOM     34  C   UNL     1     -14.414   1.777  -4.688  0.00  0.00    +0.049 A 
BRANCH  32  35
ATOM     35  O   UNL     1     -16.010   4.456  -6.562  0.00  0.00    -0.495 OA
ATOM     36  C   UNL     1     -17.282   3.832  -6.744  0.00  0.00    +0.277 C 
ENDBRANCH  32  35
ENDBRANCH  28  29
ENDBRANCH  27  28
ENDBRANCH  25  27
ENDBRANCH  24  25
ENDBRANCH   5  24
TORSDOF 10
