REMARK  Name = ZINC14457376
REMARK  8 active torsions:
REMARK  status: ('A' for Active; 'I' for Inactive)
REMARK    1  A    between atoms: C_1  and  C_2
REMARK    2  A    between atoms: C_2  and  C_4
REMARK    3  A    between atoms: C_4  and  O_5
REMARK    4  A    between atoms: O_5  and  C_6
REMARK    5  A    between atoms: C_19  and  C_22
REMARK    6  A    between atoms: C_25  and  O_29
REMARK    7  A    between atoms: C_26  and  O_28
REMARK    8  A    between atoms: O_29  and  C_30
REMARK                            x       y       z     vdW  Elec       q    Type
REMARK                         _______ _______ _______ _____ _____    ______ ____
ROOT
ATOM      1  C   UNL     1       1.204  -0.691  -0.013  0.00  0.00    +0.121 A 
ATOM      2  C   UNL     1       2.404   0.005  -0.020  0.00  0.00    +0.047 A 
ATOM      3  C   UNL     1       2.393   1.385  -0.013  0.00  0.00    +0.027 A 
ATOM      4  C   UNL     1       1.186   2.072   0.002  0.00  0.00    +0.032 A 
ATOM      5  C   UNL     1      -0.017   1.384   0.010  0.00  0.00    -0.016 A 
ATOM      6  C   UNL     1       0.002  -0.004   0.002  0.00  0.00    +0.051 A 
ATOM      7  C   UNL     1      -1.339   2.083   0.032  0.00  0.00    +0.049 C 
ATOM      8  C   UNL     1      -2.009   2.033  -1.325  0.00  0.00    -0.023 C 
ATOM      9  C   UNL     1      -2.654   3.151  -1.553  0.00  0.00    -0.030 C 
ATOM     10  C   UNL     1      -2.506   4.099  -0.379  0.00  0.00    +0.033 C 
ATOM     11  C   UNL     1      -1.219   3.589   0.335  0.00  0.00    +0.029 C 
ATOM     12  C   UNL     1      -0.020   4.181  -0.411  0.00  0.00    +0.105 C 
ATOM     13  N   UNL     1       1.196   3.474   0.007  0.00  0.00    -0.336 N 
ATOM     14  H   UNL     1       1.986   3.965   0.280  0.00  0.00    +0.147 HD
ENDROOT
BRANCH  12  15
ATOM     15  C   UNL     1      -0.215   4.014  -1.896  0.00  0.00    -0.023 A 
ATOM     16  C   UNL     1       0.047   2.796  -2.494  0.00  0.00    +0.009 A 
ATOM     17  C   UNL     1      -0.131   2.638  -3.856  0.00  0.00    +0.050 A 
ATOM     18  C   UNL     1      -0.573   3.702  -4.625  0.00  0.00    +0.161 A 
ATOM     19  C   UNL     1      -0.837   4.929  -4.023  0.00  0.00    +0.159 A 
ATOM     20  C   UNL     1      -0.661   5.079  -2.657  0.00  0.00    +0.054 A 
BRANCH  19  21
ATOM     21  O   UNL     1      -1.270   5.977  -4.773  0.00  0.00    -0.503 OA
ATOM     22  H   UNL     1      -2.233   6.032  -4.852  0.00  0.00    +0.292 HD
ENDBRANCH  19  21
BRANCH  18  23
ATOM     23  O   UNL     1      -0.749   3.548  -5.964  0.00  0.00    -0.491 OA
ATOM     24  C   UNL     1      -0.459   2.261  -6.513  0.00  0.00    +0.277 C 
ENDBRANCH  18  23
ENDBRANCH  12  15
BRANCH   1  25
ATOM     25  O   UNL     1       1.208  -2.050  -0.020  0.00  0.00    -0.488 OA
BRANCH  25  26
ATOM     26  C   UNL     1       2.483  -2.695  -0.035  0.00  0.00    +0.259 C 
BRANCH  26  28
ATOM     27  C   UNL     1       3.488  -5.104  -0.058  0.00  0.00    +0.042 C 
ATOM     28  C   UNL     1       2.290  -4.190  -0.042  0.00  0.00    -0.043 C 
ATOM     29  C   UNL     1       1.081  -4.694  -0.034  0.00  0.00    +0.011 C 
ENDBRANCH  26  28
ENDBRANCH  25  26
ENDBRANCH   1  25
TORSDOF 6
