REMARK  Name = ZINC11969069
REMARK  4 active torsions:
REMARK  status: ('A' for Active; 'I' for Inactive)
REMARK    1  A    between atoms: N_11  and  C_12
REMARK    2  A    between atoms: C_12  and  C_13
REMARK    3  A    between atoms: C_13  and  C_14
REMARK    4  A    between atoms: N_16  and  C_17
REMARK                            x       y       z     vdW  Elec       q    Type
REMARK                         _______ _______ _______ _____ _____    ______ ____
ROOT
ATOM      1  C   UNL     1      -3.601   1.693   0.129  0.00  0.00    +0.219 C 
ATOM      2  O   UNL     1      -3.621   2.905   0.137  0.00  0.00    -0.275 OA
ATOM      3  N   UNL     1      -2.428   1.038   0.018  0.00  0.00    -0.285 N 
ATOM      4  H   UNL     1      -2.418   0.072  -0.065  0.00  0.00    +0.155 HD
ENDROOT
BRANCH   3   5
ATOM      5  C   UNL     1      -1.224   1.754   0.023  0.00  0.00    +0.037 A 
ATOM      6  C   UNL     1      -0.148   1.309  -0.734  0.00  0.00    +0.027 A 
ATOM      7  C   UNL     1       1.043   2.009  -0.725  0.00  0.00    +0.051 A 
ATOM      8  C   UNL     1       1.165   3.160   0.034  0.00  0.00    +0.167 A 
ATOM      9  C   UNL     1       0.084   3.614   0.790  0.00  0.00    +0.169 A 
ATOM     10  C   UNL     1      -1.108   2.912   0.781  0.00  0.00    +0.072 A 
ATOM     11  O   UNL     1       0.465   4.759   1.440  0.00  0.00    -0.447 OA
ATOM     12  C   UNL     1       1.581   5.232   0.672  0.00  0.00    +0.254 C 
ATOM     13  O   UNL     1       2.212   4.027   0.216  0.00  0.00    -0.448 OA
ATOM     14  C   UNL     1       2.533   6.069   1.533  0.00  0.00    +0.093 C 
ATOM     15  C   UNL     1       3.061   7.155   0.559  0.00  0.00    +0.008 C 
ATOM     16  C   UNL     1       1.818   7.473  -0.310  0.00  0.00    +0.008 C 
ATOM     17  C   UNL     1       1.126   6.104  -0.498  0.00  0.00    +0.093 C 
ENDBRANCH   3   5
BRANCH   1  18
ATOM     18  C   UNL     1      -4.888   0.917   0.243  0.00  0.00    +0.115 C 
BRANCH  18  19
ATOM     19  C   UNL     1      -6.062   1.892   0.356  0.00  0.00    +0.123 C 
BRANCH  19  30
ATOM     20  C   UNL     1      -7.406   0.939   2.892  0.00  0.00    +0.034 C 
ATOM     21  C   UNL     1      -7.892   0.722   1.666  0.00  0.00    +0.037 C 
ATOM     22  C   UNL     1      -9.136  -0.002   1.339  0.00  0.00    +0.008 A 
ATOM     23  C   UNL     1     -10.114  -0.631   2.099  0.00  0.00    +0.010 A 
ATOM     24  C   UNL     1     -11.188  -1.234   1.473  0.00  0.00    +0.001 A 
ATOM     25  C   UNL     1     -11.296  -1.216   0.091  0.00  0.00    +0.001 A 
ATOM     26  C   UNL     1     -10.335  -0.596  -0.680  0.00  0.00    +0.014 A 
ATOM     27  C   UNL     1      -9.245   0.017  -0.066  0.00  0.00    +0.046 A 
ATOM     28  C   UNL     1      -8.075   0.752  -0.573  0.00  0.00    +0.251 C 
ATOM     29  O   UNL     1      -7.834   0.974  -1.744  0.00  0.00    -0.270 OA
ATOM     30  N   UNL     1      -7.314   1.138   0.467  0.00  0.00    -0.267 N 
ENDBRANCH  19  30
ENDBRANCH  18  19
ENDBRANCH   1  18
TORSDOF 4
