REMARK  Name = ZINC09766490
REMARK  15 active torsions:
REMARK  status: ('A' for Active; 'I' for Inactive)
REMARK    1  A    between atoms: C_1  and  C_2
REMARK    2  A    between atoms: C_2  and  C_3
REMARK    3  A    between atoms: C_3  and  C_4
REMARK    4  A    between atoms: C_4  and  N_5
REMARK    5  A    between atoms: N_5  and  C_6
REMARK    6  A    between atoms: N_5  and  S_7
REMARK    7  A    between atoms: S_7  and  C_10
REMARK    8  A    between atoms: C_13  and  C_16
REMARK    9  A    between atoms: C_16  and  N_18
REMARK   10  A    between atoms: N_20  and  C_30
REMARK   11  A    between atoms: C_22  and  C_29
REMARK   12  A    between atoms: C_30  and  C_31
REMARK   13  A    between atoms: C_31  and  O_32
REMARK   14  A    between atoms: O_32  and  C_33
REMARK   15  A    between atoms: C_33  and  C_34
REMARK                            x       y       z     vdW  Elec       q    Type
REMARK                         _______ _______ _______ _____ _____    ______ ____
ROOT
ATOM      1  C   UNL     1       1.704  -2.498  -1.087  0.00  0.00    +0.269 C 
ATOM      2  O   UNL     1       0.488  -2.515  -1.012  0.00  0.00    -0.268 OA
ENDROOT
BRANCH   1   3
ATOM      3  N   UNL     1       2.366  -1.344  -0.951  0.00  0.00    -0.152 NA
ATOM      4  C   UNL     1       1.698  -0.216  -0.735  0.00  0.00    +0.167 A 
ATOM      5  N   UNL     1       2.193   1.040  -0.572  0.00  0.00    -0.319 N 
ATOM      6  C   UNL     1       1.334   2.101  -0.353  0.00  0.00    +0.062 A 
ATOM      7  C   UNL     1       1.653   3.455  -0.164  0.00  0.00    -0.008 A 
ATOM      8  C   UNL     1       0.664   4.388   0.045  0.00  0.00    +0.046 A 
ATOM      9  C   UNL     1      -0.673   4.023   0.074  0.00  0.00    +0.021 A 
ATOM     10  C   UNL     1      -1.014   2.694  -0.105  0.00  0.00    +0.018 A 
ATOM     11  C   UNL     1      -0.026   1.762  -0.318  0.00  0.00    +0.039 A 
ATOM     12  S   UNL     1      -0.016   0.008  -0.590  0.00  0.00    -0.052 S 
ATOM     13 CL   UNL     1       1.098   6.053   0.275  0.00  0.00    -0.083 Cl
ATOM     14  C   UNL     1       3.095   3.891  -0.189  0.00  0.00    +0.047 C 
BRANCH   5  15
ATOM     15  C   UNL     1       3.639   1.270  -0.630  0.00  0.00    +0.152 C 
BRANCH  15  16
ATOM     16  C   UNL     1       4.229   1.163   0.777  0.00  0.00    +0.181 C 
BRANCH  16  17
ATOM     17  O   UNL     1       5.639   1.387   0.721  0.00  0.00    -0.378 OA
BRANCH  17  18
ATOM     18  C   UNL     1       6.292   1.309   1.990  0.00  0.00    +0.156 C 
ATOM     19  C   UNL     1       7.790   1.563   1.810  0.00  0.00    +0.034 C 
ENDBRANCH  17  18
ENDBRANCH  16  17
ENDBRANCH  15  16
ENDBRANCH   5  15
ENDBRANCH   1   3
BRANCH   1  23
ATOM     20  C   UNL     1       3.842  -6.105  -1.781  0.00  0.00    +0.106 A 
ATOM     21  C   UNL     1       2.461  -6.128  -1.696  0.00  0.00    +0.029 A 
ATOM     22  C   UNL     1       1.762  -4.960  -1.470  0.00  0.00    +0.015 A 
ATOM     23  C   UNL     1       2.449  -3.755  -1.329  0.00  0.00    +0.039 A 
ATOM     24  C   UNL     1       3.841  -3.737  -1.421  0.00  0.00    +0.015 A 
ATOM     25  C   UNL     1       4.529  -4.913  -1.642  0.00  0.00    +0.029 A 
BRANCH  20  26
ATOM     26  S   UNL     1       4.728  -7.600  -2.069  0.00  0.00    +0.061 S 
ATOM     27  O   UNL     1       6.041  -7.398  -1.564  0.00  0.00    -0.153 OA
ATOM     28  O   UNL     1       3.894  -8.660  -1.621  0.00  0.00    -0.153 OA
BRANCH  26  29
ATOM     29  N   UNL     1       4.873  -7.775  -3.710  0.00  0.00    -0.180 NA
ATOM     30  C   UNL     1       6.032  -7.210  -4.407  0.00  0.00    +0.131 C 
BRANCH  29  31
ATOM     31  C   UNL     1       3.844  -8.495  -4.464  0.00  0.00    +0.109 C 
BRANCH  31  32
ATOM     32  C   UNL     1       2.832  -7.495  -5.028  0.00  0.00    +0.017 C 
BRANCH  32  34
ATOM     33  C   UNL     1       0.746  -7.247  -6.379  0.00  0.00    +0.004 C 
ATOM     34  C   UNL     1       1.758  -8.247  -5.815  0.00  0.00    -0.002 C 
ENDBRANCH  32  34
ENDBRANCH  31  32
ENDBRANCH  29  31
ENDBRANCH  26  29
ENDBRANCH  20  26
ENDBRANCH   1  23
TORSDOF 11
