REMARK  Name = ZINC16569130
REMARK  10 active torsions:
REMARK  status: ('A' for Active; 'I' for Inactive)
REMARK    1  A    between atoms: C_1  and  C_2
REMARK    2  A    between atoms: C_2  and  C_3
REMARK    3  A    between atoms: C_3  and  C_4
REMARK    4  A    between atoms: C_4  and  N_5
REMARK    5  A    between atoms: N_5  and  C_6
REMARK    6  A    between atoms: C_6  and  C_7
REMARK    7  A    between atoms: C_21  and  C_23
REMARK    8  A    between atoms: C_30  and  C_32
REMARK    9  A    between atoms: C_32  and  O_33
REMARK   10  A    between atoms: O_33  and  C_34
REMARK                            x       y       z     vdW  Elec       q    Type
REMARK                         _______ _______ _______ _____ _____    ______ ____
ROOT
ATOM      1  C   UNL     1      -3.714   4.591   1.410  0.00  0.00    +0.238 C 
ATOM      2  O   UNL     1      -3.298   5.683   1.733  0.00  0.00    -0.273 OA
ATOM      3  N   UNL     1      -2.980   3.802   0.601  0.00  0.00    -0.255 N 
ATOM      4  C   UNL     1      -1.780   4.282   0.057  0.00  0.00    +0.061 A 
ATOM      5  C   UNL     1      -1.034   5.237   0.730  0.00  0.00    +0.025 A 
ATOM      6  C   UNL     1       0.135   5.718   0.172  0.00  0.00    +0.002 A 
ATOM      7  C   UNL     1       0.570   5.251  -1.056  0.00  0.00    +0.002 A 
ATOM      8  C   UNL     1      -0.164   4.293  -1.733  0.00  0.00    +0.028 A 
ATOM      9  C   UNL     1      -1.332   3.806  -1.180  0.00  0.00    +0.068 A 
ATOM     10  N   UNL     1      -2.105   2.829  -1.824  0.00  0.00    -0.316 N 
ATOM     11  C   UNL     1      -2.048   2.368  -3.096  0.00  0.00    +0.092 A 
ATOM     12  C   UNL     1      -3.004   1.424  -3.246  0.00  0.00    +0.020 A 
ATOM     13  C   UNL     1      -3.679   1.302  -2.012  0.00  0.00    +0.025 A 
ATOM     14  C   UNL     1      -3.117   2.168  -1.162  0.00  0.00    +0.049 A 
ATOM     15  C   UNL     1      -3.445   2.445   0.286  0.00  0.00    +0.159 C 
ENDROOT
BRANCH  15  16
ATOM     16  C   UNL     1      -2.728   1.457   1.170  0.00  0.00    -0.021 A 
ATOM     17  C   UNL     1      -1.391   1.643   1.472  0.00  0.00    +0.007 A 
ATOM     18  C   UNL     1      -0.735   0.740   2.287  0.00  0.00    +0.020 A 
ATOM     19  C   UNL     1      -1.413  -0.355   2.792  0.00  0.00    +0.041 A 
ATOM     20  C   UNL     1      -2.748  -0.543   2.485  0.00  0.00    +0.020 A 
ATOM     21  C   UNL     1      -3.405   0.363   1.674  0.00  0.00    +0.007 A 
ATOM     22 CL   UNL     1      -0.587  -1.493   3.810  0.00  0.00    -0.084 Cl
ENDBRANCH  15  16
BRANCH   1  23
ATOM     23  C   UNL     1      -5.053   4.115   1.913  0.00  0.00    +0.204 C 
BRANCH  23  24
ATOM     24  N   UNL     1      -5.700   5.190   2.670  0.00  0.00    -0.290 N 
ATOM     25  C   UNL     1      -5.492   5.299   3.997  0.00  0.00    +0.254 C 
ATOM     26  O   UNL     1      -4.770   4.508   4.565  0.00  0.00    -0.272 OA
BRANCH  24  27
ATOM     27  C   UNL     1      -6.573   6.146   1.984  0.00  0.00    +0.108 C 
BRANCH  27  28
ATOM     28  C   UNL     1      -8.010   5.621   1.993  0.00  0.00    +0.019 C 
BRANCH  28  30
ATOM     29  C   UNL     1     -10.359   6.095   1.286  0.00  0.00    +0.004 C 
ATOM     30  C   UNL     1      -8.921   6.619   1.276  0.00  0.00    -0.002 C 
ENDBRANCH  28  30
ENDBRANCH  27  28
ENDBRANCH  24  27
BRANCH  25  31
ATOM     31  C   UNL     1      -6.158   6.404   4.775  0.00  0.00    +0.324 C 
BRANCH  31  32
ATOM     32  O   UNL     1      -5.785   6.309   6.152  0.00  0.00    -0.483 OA
BRANCH  32  33
ATOM     33  C   UNL     1      -6.303   7.239   6.997  0.00  0.00    +0.121 A 
ATOM     34  C   UNL     1      -7.149   8.226   6.511  0.00  0.00    +0.045 A 
ATOM     35  C   UNL     1      -7.679   9.166   7.373  0.00  0.00    +0.004 A 
ATOM     36  C   UNL     1      -7.358   9.131   8.717  0.00  0.00    +0.000 A 
ATOM     37  C   UNL     1      -6.511   8.152   9.203  0.00  0.00    +0.004 A 
ATOM     38  C   UNL     1      -5.983   7.206   8.346  0.00  0.00    +0.045 A 
ENDBRANCH  32  33
ENDBRANCH  31  32
ENDBRANCH  25  31
ENDBRANCH  23  24
ENDBRANCH   1  23
TORSDOF 9
