REMARK  Name = ZINC15066086
REMARK  13 active torsions:
REMARK  status: ('A' for Active; 'I' for Inactive)
REMARK    1  A    between atoms: C_1  and  N_64
REMARK    2  A    between atoms: C_2  and  N_64
REMARK    3  A    between atoms: C_3  and  C_4
REMARK    4  A    between atoms: C_3  and  N_64
REMARK    5  A    between atoms: C_4  and  N_5
REMARK    6  A    between atoms: N_5  and  C_6
REMARK    7  A    between atoms: C_6  and  C_7
REMARK    8  A    between atoms: C_13  and  C_14
REMARK    9  A    between atoms: C_13  and  N_66
REMARK   10  A    between atoms: C_21  and  C_23
REMARK   11  A    between atoms: C_26  and  C_28
REMARK   12  A    between atoms: C_28  and  O_29
REMARK   13  A    between atoms: O_29  and  C_30
REMARK                            x       y       z     vdW  Elec       q    Type
REMARK                         _______ _______ _______ _____ _____    ______ ____
ROOT
ATOM      1  N   UNL     1      -5.590   3.602   4.345  0.00  0.00    -0.297 N 
ATOM      2  C   UNL     1      -6.661   2.805   4.159  0.00  0.00    +0.282 C 
ATOM      3  O   UNL     1      -6.809   2.220   3.102  0.00  0.00    -0.267 OA
ENDROOT
BRANCH   2   4
ATOM      4  C   UNL     1      -7.649   2.643   5.231  0.00  0.00    +0.190 A 
ATOM      5  C   UNL     1      -8.714   1.789   5.218  0.00  0.00    +0.055 A 
ATOM      6  C   UNL     1      -9.386   1.964   6.438  0.00  0.00    +0.048 A 
ATOM      7  C   UNL     1      -8.710   2.905   7.133  0.00  0.00    +0.131 A 
ATOM      8  O   UNL     1      -7.661   3.308   6.405  0.00  0.00    -0.453 OA
BRANCH   7   9
ATOM      9  C   UNL     1      -9.073   3.412   8.505  0.00  0.00    +0.233 C 
BRANCH   9  10
ATOM     10  O   UNL     1      -8.424   2.612   9.496  0.00  0.00    -0.375 OA
ATOM     11  C   UNL     1      -8.704   3.011  10.839  0.00  0.00    +0.194 C 
ENDBRANCH   9  10
ENDBRANCH   7   9
ENDBRANCH   2   4
BRANCH   1  12
ATOM     12  C   UNL     1      -5.351   4.215   5.654  0.00  0.00    +0.089 C 
BRANCH  12  13
ATOM     13  C   UNL     1      -6.128   5.530   5.750  0.00  0.00    -0.060 C 
BRANCH  13  16
ATOM     14  C   UNL     1      -4.485   6.557   7.203  0.00  0.00    -0.097 C 
ATOM     15  C   UNL     1      -6.795   7.279   7.285  0.00  0.00    -0.097 C 
ATOM     16  N   UNL     1      -5.894   6.125   7.083  0.00  0.00    +0.377 N 
ATOM     17  H   UNL     1      -6.089   5.419   7.802  0.00  0.00    -0.083 HD
ENDBRANCH  13  16
ENDBRANCH  12  13
ENDBRANCH   1  12
BRANCH   1  18
ATOM     18  C   UNL     1      -4.665   3.854   3.238  0.00  0.00    +0.109 C 
BRANCH  18  19
ATOM     19  C   UNL     1      -3.559   2.797   3.246  0.00  0.00    -0.010 C 
ATOM     20  C   UNL     1      -2.716   2.949   4.515  0.00  0.00    +0.001 C 
ATOM     21  C   UNL     1      -1.576   1.927   4.487  0.00  0.00    -0.018 C 
ATOM     22  C   UNL     1      -0.738   2.140   3.224  0.00  0.00    -0.078 C 
ATOM     23  C   UNL     1      -2.663   2.985   2.019  0.00  0.00    -0.073 C 
ATOM     24  N   UNL     1      -1.601   1.956   2.039  0.00  0.00    +0.383 N 
ATOM     25  H   UNL     1      -2.038   1.028   2.085  0.00  0.00    -0.081 HD
BRANCH  24  26
ATOM     26  C   UNL     1      -0.792   2.044   0.806  0.00  0.00    -0.040 C 
BRANCH  26  27
ATOM     27  C   UNL     1       0.436   1.184   0.960  0.00  0.00    -0.029 A 
ATOM     28  C   UNL     1       1.654   1.765   1.262  0.00  0.00    +0.004 A 
ATOM     29  C   UNL     1       2.781   0.978   1.397  0.00  0.00    +0.000 A 
ATOM     30  C   UNL     1       2.693  -0.392   1.232  0.00  0.00    +0.003 A 
ATOM     31  C   UNL     1       1.478  -0.976   0.930  0.00  0.00    +0.038 A 
ATOM     32  C   UNL     1       0.347  -0.188   0.794  0.00  0.00    +0.125 A 
ATOM     33  F   UNL     1      -0.842  -0.757   0.499  0.00  0.00    -0.205 F 
ENDBRANCH  26  27
ENDBRANCH  24  26
ENDBRANCH  18  19
ENDBRANCH   1  18
TORSDOF 10
