REMARK  Name = ZINC14996822
REMARK  7 active torsions:
REMARK  status: ('A' for Active; 'I' for Inactive)
REMARK    1  A    between atoms: C_3  and  C_7
REMARK    2  A    between atoms: C_7  and  C_21
REMARK    3  A    between atoms: N_10  and  C_14
REMARK    4  A    between atoms: C_14  and  C_15
REMARK    5  A    between atoms: C_15  and  C_16
REMARK    6  A    between atoms: C_27  and  C_29
REMARK    7  A    between atoms: C_29  and  N_68
REMARK                            x       y       z     vdW  Elec       q    Type
REMARK                         _______ _______ _______ _____ _____    ______ ____
ROOT
ATOM      1  C   UNL     1      -6.704   0.273   1.476  0.00  0.00    +0.142 C 
ATOM      2  C   UNL     1      -5.538   1.242   1.481  0.00  0.00    +0.251 C 
ATOM      3  O   UNL     1      -5.593   2.453   1.494  0.00  0.00    -0.272 OA
ATOM      4  N   UNL     1      -4.429   0.477   1.466  0.00  0.00    -0.224 N 
ATOM      5  C   UNL     1      -4.728  -0.827   1.460  0.00  0.00    +0.310 C 
ATOM      6  O   UNL     1      -3.894  -1.712   1.451  0.00  0.00    -0.252 OA
ATOM      7  N   UNL     1      -6.055  -1.050   1.465  0.00  0.00    -0.281 N 
ATOM      8  H   UNL     1      -6.497  -1.913   1.462  0.00  0.00    +0.152 HD
ENDROOT
BRANCH   1   9
ATOM      9  C   UNL     1      -7.564   0.460   0.225  0.00  0.00    +0.029 C 
ATOM     10  C   UNL     1      -8.657  -0.611   0.192  0.00  0.00    +0.025 C 
ATOM     11  C   UNL     1      -9.537  -0.399  -1.044  0.00  0.00    +0.108 C 
ATOM     12  N   UNL     1      -8.680  -0.375  -2.237  0.00  0.00    -0.303 N 
ATOM     13  C   UNL     1      -7.543   0.556  -2.271  0.00  0.00    +0.108 C 
ATOM     14  C   UNL     1      -6.686   0.333  -1.022  0.00  0.00    +0.025 C 
ATOM     15  C   UNL     1      -8.931  -1.192  -3.279  0.00  0.00    +0.199 C 
ATOM     16  O   UNL     1      -8.215  -1.163  -4.258  0.00  0.00    -0.278 OA
BRANCH  15  17
ATOM     17  C   UNL     1     -10.100  -2.141  -3.228  0.00  0.00    +0.019 C 
BRANCH  17  23
ATOM     18  C   UNL     1     -10.455  -2.045  -5.621  0.00  0.00    -0.078 C 
ATOM     19  C   UNL     1     -10.364  -2.856  -6.916  0.00  0.00    -0.019 C 
ATOM     20  C   UNL     1     -11.361  -4.016  -6.858  0.00  0.00    -0.004 C 
ATOM     21  C   UNL     1     -11.059  -4.878  -5.630  0.00  0.00    -0.019 C 
ATOM     22  C   UNL     1     -11.131  -4.009  -4.372  0.00  0.00    -0.078 C 
ATOM     23  N   UNL     1     -10.130  -2.926  -4.480  0.00  0.00    +0.385 N 
ATOM     24  H   UNL     1      -9.204  -3.343  -4.634  0.00  0.00    -0.081 HD
ENDBRANCH  17  23
ENDBRANCH  15  17
ENDBRANCH   1   9
BRANCH   1  27
ATOM     25  C   UNL     1      -7.982  -0.018   5.014  0.00  0.00    +0.020 A 
ATOM     26  C   UNL     1      -7.187  -0.206   3.894  0.00  0.00    +0.009 A 
ATOM     27  C   UNL     1      -7.536   0.444   2.720  0.00  0.00    +0.003 A 
ATOM     28  C   UNL     1      -8.655   1.257   2.708  0.00  0.00    +0.117 A 
ATOM     29  N   UNL     1      -9.390   1.409   3.792  0.00  0.00    -0.263 NA
ATOM     30  C   UNL     1      -9.088   0.805   4.925  0.00  0.00    +0.111 A 
ENDBRANCH   1  27
BRANCH   4  31
ATOM     31  C   UNL     1      -3.063   1.008   1.463  0.00  0.00    +0.123 C 
BRANCH  31  32
ATOM     32  C   UNL     1      -2.594   1.202   0.020  0.00  0.00    +0.062 C 
BRANCH  32  33
ATOM     33  C   UNL     1      -1.190   1.748   0.017  0.00  0.00    -0.009 A 
ATOM     34  C   UNL     1      -0.013   1.076   0.008  0.00  0.00    +0.011 A 
ATOM     35  C   UNL     1       1.169   1.793   0.001  0.00  0.00    +0.008 A 
ATOM     36  C   UNL     1       1.115   3.148   0.008  0.00  0.00    +0.045 A 
ATOM     37  S   UNL     1      -0.644   3.448   0.027  0.00  0.00    -0.102 S 
ENDBRANCH  32  33
ENDBRANCH  31  32
ENDBRANCH   4  31
TORSDOF 7
