REMARK  Name = ZINC32655244
REMARK  12 active torsions:
REMARK  status: ('A' for Active; 'I' for Inactive)
REMARK    1  A    between atoms: C_1  and  C_2
REMARK    2  A    between atoms: C_3  and  C_33
REMARK    3  A    between atoms: C_4  and  C_23
REMARK    4  A    between atoms: C_11  and  S_15
REMARK    5  A    between atoms: S_15  and  C_16
REMARK    6  A    between atoms: C_16  and  C_17
REMARK    7  A    between atoms: C_27  and  O_31
REMARK    8  A    between atoms: C_28  and  O_29
REMARK    9  A    between atoms: O_29  and  C_30
REMARK   10  A    between atoms: O_31  and  C_32
REMARK   11  A    between atoms: C_33  and  O_35
REMARK   12  A    between atoms: O_35  and  C_36
REMARK                            x       y       z     vdW  Elec       q    Type
REMARK                         _______ _______ _______ _____ _____    ______ ____
ROOT
ATOM      1  C   UNL     1       8.325  -3.664   2.965  0.00  0.00    +0.061 C 
ATOM      2  C   UNL     1       8.248  -3.482   1.471  0.00  0.00    +0.017 C 
ATOM      3  C   UNL     1       9.321  -3.772   0.717  0.00  0.00    +0.065 C 
ATOM      4  C   UNL     1       9.309  -3.621  -0.777  0.00  0.00    +0.100 C 
ATOM      5  C   UNL     1       8.155  -2.768  -1.221  0.00  0.00    +0.069 A 
ATOM      6  C   UNL     1       8.138  -2.225  -2.510  0.00  0.00    +0.258 A 
ATOM      7  O   UNL     1       9.058  -2.434  -3.285  0.00  0.00    -0.267 OA
ATOM      8  N   UNL     1       7.087  -1.465  -2.881  0.00  0.00    -0.302 N 
ATOM      9  H   UNL     1       7.054  -1.024  -3.889  0.00  0.00    +0.171 HD
ATOM     10  C   UNL     1       6.064  -1.241  -2.010  0.00  0.00    +0.171 A 
ATOM     11  N   UNL     1       6.077  -1.746  -0.793  0.00  0.00    -0.208 NA
ATOM     12  C   UNL     1       7.094  -2.507  -0.372  0.00  0.00    +0.135 A 
ATOM     13  N   UNL     1       7.089  -3.026   0.910  0.00  0.00    -0.302 N 
ATOM     14  H   UNL     1       6.148  -3.070   1.479  0.00  0.00    +0.153 HD
ENDROOT
BRANCH   4  15
ATOM     15  C   UNL     1       9.192  -4.983  -1.411  0.00  0.00    +0.010 A 
ATOM     16  C   UNL     1       8.105  -5.788  -1.122  0.00  0.00    +0.008 A 
ATOM     17  C   UNL     1       7.992  -7.036  -1.706  0.00  0.00    +0.004 A 
ATOM     18  C   UNL     1       8.969  -7.489  -2.573  0.00  0.00    +0.049 A 
ATOM     19  C   UNL     1      10.063  -6.689  -2.862  0.00  0.00    +0.162 A 
ATOM     20  C   UNL     1      10.175  -5.430  -2.278  0.00  0.00    +0.166 A 
BRANCH  20  21
ATOM     21  O   UNL     1      11.246  -4.642  -2.559  0.00  0.00    -0.491 OA
ATOM     22  C   UNL     1      12.403  -4.802  -1.735  0.00  0.00    +0.277 C 
ENDBRANCH  20  21
BRANCH  19  23
ATOM     23  O   UNL     1      11.025  -7.133  -3.715  0.00  0.00    -0.491 OA
ATOM     24  C   UNL     1      10.845  -8.434  -4.276  0.00  0.00    +0.277 C 
ENDBRANCH  19  23
ENDBRANCH   4  15
BRANCH   3  25
ATOM     25  C   UNL     1      10.499  -4.231   1.349  0.00  0.00    +0.337 C 
ATOM     26  O   UNL     1      11.438  -3.475   1.510  0.00  0.00    -0.245 OA
BRANCH  25  27
ATOM     27  O   UNL     1      10.581  -5.510   1.775  0.00  0.00    -0.465 OA
ATOM     28  C   UNL     1      11.800  -5.906   2.406  0.00  0.00    +0.280 C 
ENDBRANCH  25  27
ENDBRANCH   3  25
BRANCH  10  29
ATOM     29  S   UNL     1       4.698  -0.250  -2.517  0.00  0.00    -0.083 S 
BRANCH  29  30
ATOM     30  C   UNL     1       3.696  -0.301  -1.011  0.00  0.00    +0.112 C 
BRANCH  30  31
ATOM     31  C   UNL     1       2.438   0.503  -1.218  0.00  0.00    -0.037 A 
ATOM     32  C   UNL     1       1.302  -0.106  -1.717  0.00  0.00    +0.004 A 
ATOM     33  C   UNL     1       0.149   0.632  -1.907  0.00  0.00    +0.000 A 
ATOM     34  C   UNL     1       0.131   1.979  -1.596  0.00  0.00    +0.000 A 
ATOM     35  C   UNL     1       1.267   2.588  -1.096  0.00  0.00    +0.000 A 
ATOM     36  C   UNL     1       2.420   1.850  -0.906  0.00  0.00    +0.004 A 
ENDBRANCH  30  31
ENDBRANCH  29  30
ENDBRANCH  10  29
TORSDOF 8
