REMARK  Name = ZINC31810040
REMARK  9 active torsions:
REMARK  status: ('A' for Active; 'I' for Inactive)
REMARK    1  A    between atoms: C_1  and  C_2
REMARK    2  A    between atoms: C_5  and  C_11
REMARK    3  A    between atoms: C_6  and  C_10
REMARK    4  A    between atoms: C_7  and  O_8
REMARK    5  A    between atoms: O_8  and  C_9
REMARK    6  A    between atoms: C_11  and  N_12
REMARK    7  A    between atoms: N_15  and  C_18
REMARK    8  A    between atoms: C_18  and  C_20
REMARK    9  A    between atoms: C_18  and  C_31
REMARK                            x       y       z     vdW  Elec       q    Type
REMARK                         _______ _______ _______ _____ _____    ______ ____
ROOT
ATOM      1  N   UNL     1      -2.676  -3.657  -0.343  0.00  0.00    -0.300 NA
ATOM      2  C   UNL     1      -3.024  -3.312   1.043  0.00  0.00    +0.066 C 
ATOM      3  C   UNL     1      -4.118  -4.259   1.542  0.00  0.00    -0.062 C 
ATOM      4  N   UNL     1      -3.636  -5.644   1.470  0.00  0.00    +0.393 N 
ATOM      5  C   UNL     1      -3.316  -5.982   0.077  0.00  0.00    -0.062 C 
ATOM      6  C   UNL     1      -2.216  -5.050  -0.434  0.00  0.00    +0.066 C 
ATOM      7  H   UNL     1      -2.808  -5.742   2.038  0.00  0.00    -0.080 HD
ENDROOT
BRANCH   1   8
ATOM      8  C   UNL     1      -1.668  -2.733  -0.878  0.00  0.00    +0.137 C 
BRANCH   8  13
ATOM      9  C   UNL     1      -3.942   2.503  -1.447  0.00  0.00    +0.049 C 
ATOM     10  C   UNL     1      -3.364   1.117  -1.331  0.00  0.00    +0.007 A 
ATOM     11  C   UNL     1      -2.505   0.801  -0.298  0.00  0.00    +0.089 A 
ATOM     12  N   UNL     1      -1.995  -0.411  -0.188  0.00  0.00    -0.363 N 
ATOM     13  C   UNL     1      -2.280  -1.367  -1.052  0.00  0.00    +0.037 A 
ATOM     14  C   UNL     1      -3.131  -1.131  -2.112  0.00  0.00    +0.012 A 
ATOM     15  C   UNL     1      -3.695   0.134  -2.260  0.00  0.00    +0.129 A 
ATOM     16  C   UNL     1      -3.450  -2.229  -3.094  0.00  0.00    +0.049 C 
ATOM     17  H   UNL     1      -1.394  -0.604   0.548  0.00  0.00    +0.165 HD
BRANCH  15  18
ATOM     18  O   UNL     1      -4.540   0.403  -3.287  0.00  0.00    -0.494 OA
ATOM     19  C   UNL     1      -3.956   0.882  -4.500  0.00  0.00    +0.277 C 
ENDBRANCH  15  18
ENDBRANCH   8  13
ENDBRANCH   1   8
BRANCH   4  20
ATOM     20  C   UNL     1      -4.680  -6.551   1.967  0.00  0.00    +0.080 C 
BRANCH  20  21
ATOM     21  C   UNL     1      -4.210  -7.977   1.835  0.00  0.00    -0.025 A 
ATOM     22  C   UNL     1      -2.936  -8.399   1.809  0.00  0.00    +0.086 A 
ATOM     23  N   UNL     1      -2.898  -9.761   1.680  0.00  0.00    -0.360 N 
ATOM     24  H   UNL     1      -2.088 -10.294   1.638  0.00  0.00    +0.165 HD
ATOM     25  C   UNL     1      -4.179 -10.261   1.618  0.00  0.00    +0.047 A 
ATOM     26  C   UNL     1      -5.057  -9.167   1.718  0.00  0.00    +0.003 A 
ATOM     27  C   UNL     1      -6.438  -9.375   1.690  0.00  0.00    +0.025 A 
ATOM     28  C   UNL     1      -6.931 -10.655   1.566  0.00  0.00    +0.019 A 
ATOM     29  C   UNL     1      -6.063 -11.735   1.471  0.00  0.00    +0.017 A 
ATOM     30  C   UNL     1      -4.699 -11.545   1.490  0.00  0.00    +0.027 A 
ATOM     31 BR   UNL     1      -8.799 -10.943   1.526  0.00  0.00    -0.050 Br
ENDBRANCH  20  21
BRANCH  20  32
ATOM     32  C   UNL     1      -4.962  -6.247   3.416  0.00  0.00    +0.347 C 
ATOM     33  O   UNL     1      -4.133  -5.658   4.088  0.00  0.00    -0.248 OA
ATOM     34  O   UNL     1      -6.020  -6.590   3.916  0.00  0.00    -0.248 OA
ENDBRANCH  20  32
ENDBRANCH   4  20
TORSDOF 6
