REMARK  Name = ZINC21704772
REMARK  9 active torsions:
REMARK  status: ('A' for Active; 'I' for Inactive)
REMARK    1  A    between atoms: C_1  and  C_2
REMARK    2  A    between atoms: C_5  and  C_8
REMARK    3  A    between atoms: C_11  and  N_13
REMARK    4  A    between atoms: C_14  and  C_16
REMARK    5  A    between atoms: C_16  and  N_17
REMARK    6  A    between atoms: N_20  and  S_23
REMARK    7  A    between atoms: S_23  and  C_26
REMARK    8  A    between atoms: C_29  and  C_33
REMARK    9  A    between atoms: C_31  and  C_32
REMARK                            x       y       z     vdW  Elec       q    Type
REMARK                         _______ _______ _______ _____ _____    ______ ____
ROOT
ATOM      1  N   UNL     1      -0.724   1.573  -1.181  0.00  0.00    +0.387 N 
ATOM      2  C   UNL     1      -0.013   1.086   0.008  0.00  0.00    -0.061 C 
ATOM      3  C   UNL     1      -0.731   1.581   1.268  0.00  0.00    +0.091 C 
ATOM      4  N   UNL     1      -0.872   3.042   1.182  0.00  0.00    -0.180 NA
ATOM      5  C   UNL     1      -1.452   3.615  -0.042  0.00  0.00    +0.091 C 
ATOM      6  C   UNL     1      -0.705   3.040  -1.250  0.00  0.00    -0.061 C 
ATOM      7  H   UNL     1      -1.774   1.256  -1.096  0.00  0.00    -0.081 HD
ENDROOT
BRANCH   4   8
ATOM      8  S   UNL     1      -0.390   4.017   2.431  0.00  0.00    +0.061 S 
ATOM      9  O   UNL     1       0.587   3.288   3.162  0.00  0.00    -0.153 OA
ATOM     10  O   UNL     1      -0.125   5.295   1.870  0.00  0.00    -0.153 OA
BRANCH   8  11
ATOM     11  C   UNL     1      -1.776   4.215   3.502  0.00  0.00    +0.108 A 
ATOM     12  C   UNL     1      -1.732   3.712   4.789  0.00  0.00    +0.029 A 
ATOM     13  C   UNL     1      -2.818   3.868   5.629  0.00  0.00    +0.005 A 
ATOM     14  C   UNL     1      -3.949   4.526   5.181  0.00  0.00    -0.050 A 
ATOM     15  C   UNL     1      -3.993   5.029   3.895  0.00  0.00    +0.008 A 
ATOM     16  C   UNL     1      -2.904   4.878   3.056  0.00  0.00    -0.024 A 
ATOM     17  C   UNL     1      -2.949   5.431   1.655  0.00  0.00    +0.046 C 
ATOM     18  C   UNL     1      -5.134   4.696   6.097  0.00  0.00    +0.044 C 
ENDBRANCH   8  11
ENDBRANCH   4   8
BRANCH   1  19
ATOM     19  C   UNL     1      -0.170   0.981  -2.406  0.00  0.00    +0.024 C 
BRANCH  19  21
ATOM     20  N   UNL     1      -0.756   0.862  -4.806  0.00  0.00    -0.187 NA
ATOM     21  C   UNL     1      -1.068   1.304  -3.572  0.00  0.00    +0.232 C 
ATOM     22  O   UNL     1      -2.071   1.963  -3.400  0.00  0.00    -0.273 OA
BRANCH  20  26
ATOM     23  C   UNL     1      -2.913   1.534  -8.124  0.00  0.00    +0.134 A 
ATOM     24  N   UNL     1      -3.355   2.040  -6.979  0.00  0.00    -0.139 NA
ATOM     25  N   UNL     1      -2.713   1.850  -5.908  0.00  0.00    -0.121 NA
ATOM     26  C   UNL     1      -1.584   1.160  -5.881  0.00  0.00    +0.218 A 
ATOM     27  S   UNL     1      -1.424   0.722  -7.556  0.00  0.00    -0.026 S 
BRANCH  23  32
ATOM     28  C   UNL     1      -5.157   1.861 -13.413  0.00  0.00    +0.044 C 
ATOM     29  C   UNL     1      -4.569   1.776 -12.028  0.00  0.00    -0.050 A 
ATOM     30  C   UNL     1      -5.212   2.390 -10.968  0.00  0.00    +0.004 A 
ATOM     31  C   UNL     1      -4.680   2.315  -9.697  0.00  0.00    +0.011 A 
ATOM     32  C   UNL     1      -3.490   1.618  -9.483  0.00  0.00    +0.009 A 
ATOM     33  C   UNL     1      -2.843   1.006 -10.557  0.00  0.00    +0.011 A 
ATOM     34  C   UNL     1      -3.389   1.084 -11.822  0.00  0.00    +0.004 A 
ENDBRANCH  23  32
ENDBRANCH  20  26
ENDBRANCH  19  21
ENDBRANCH   1  19
TORSDOF 6
