REMARK  Name = ZINC40530146
REMARK  13 active torsions:
REMARK  status: ('A' for Active; 'I' for Inactive)
REMARK    1  A    between atoms: C_1  and  C_2
REMARK    2  A    between atoms: C_2  and  C_3
REMARK    3  A    between atoms: C_3  and  C_4
REMARK    4  A    between atoms: C_4  and  C_5
REMARK    5  A    between atoms: C_5  and  O_6
REMARK    6  A    between atoms: O_6  and  C_7
REMARK    7  A    between atoms: C_11  and  C_13
REMARK    8  A    between atoms: C_18  and  O_27
REMARK    9  A    between atoms: C_22  and  N_26
REMARK   10  A    between atoms: C_23  and  C_24
REMARK   11  A    between atoms: O_27  and  C_28
REMARK   12  A    between atoms: C_28  and  C_30
REMARK   13  A    between atoms: C_34  and  N_36
REMARK                            x       y       z     vdW  Elec       q    Type
REMARK                         _______ _______ _______ _____ _____    ______ ____
ROOT
ATOM      1  C   UNL     1       2.811  -8.014  -4.770  0.00  0.00    +0.098 C 
ATOM      2  C   UNL     1       4.245  -8.470  -4.812  0.00  0.00    +0.008 A 
ATOM      3  C   UNL     1       5.019  -8.386  -3.669  0.00  0.00    +0.012 A 
ATOM      4  C   UNL     1       6.337  -8.800  -3.689  0.00  0.00    +0.047 A 
ATOM      5  C   UNL     1       6.888  -9.304  -4.859  0.00  0.00    +0.135 A 
ATOM      6  C   UNL     1       6.115  -9.390  -6.005  0.00  0.00    +0.093 A 
ATOM      7  C   UNL     1       4.790  -8.973  -5.983  0.00  0.00    +0.138 A 
ATOM      8  O   UNL     1       4.047  -9.063  -7.114  0.00  0.00    -0.441 OA
ATOM      9  C   UNL     1       2.706  -9.042  -7.038  0.00  0.00    +0.199 C 
ATOM     10  C   UNL     1       2.061  -8.557  -5.954  0.00  0.00    +0.098 C 
ENDROOT
BRANCH   1  15
ATOM     11  C   UNL     1       2.148  -4.428  -3.779  0.00  0.00    +0.121 A 
ATOM     12  C   UNL     1       2.685  -3.741  -4.858  0.00  0.00    +0.045 A 
ATOM     13  C   UNL     1       3.260  -4.439  -5.903  0.00  0.00    +0.004 A 
ATOM     14  C   UNL     1       3.300  -5.821  -5.873  0.00  0.00    +0.005 A 
ATOM     15  C   UNL     1       2.765  -6.508  -4.799  0.00  0.00    -0.031 A 
ATOM     16  C   UNL     1       2.195  -5.814  -3.749  0.00  0.00    +0.050 A 
BRANCH  11  17
ATOM     17  O   UNL     1       1.583  -3.744  -2.750  0.00  0.00    -0.492 OA
BRANCH  17  18
ATOM     18  C   UNL     1       1.570  -2.318  -2.848  0.00  0.00    +0.229 C 
BRANCH  18  19
ATOM     19  C   UNL     1       0.898  -1.727  -1.607  0.00  0.00    +0.041 C 
BRANCH  19  20
ATOM     20  C   UNL     1       0.885  -0.201  -1.712  0.00  0.00    +0.003 C 
BRANCH  20  22
ATOM     21  C   UNL     1       0.200   1.916  -0.576  0.00  0.00    +0.004 C 
ATOM     22  C   UNL     1       0.213   0.390  -0.471  0.00  0.00    -0.003 C 
ENDBRANCH  20  22
ENDBRANCH  19  20
ENDBRANCH  18  19
ENDBRANCH  17  18
ENDBRANCH  11  17
ENDBRANCH   1  15
BRANCH   9  23
ATOM     23  N   UNL     1       1.971  -9.525  -8.091  0.00  0.00    -0.328 N 
ATOM     24  H   UNL     1       2.421  -9.876  -8.876  0.00  0.00    +0.145 HD
ATOM     25  H   UNL     1       1.002  -9.517  -8.051  0.00  0.00    +0.145 HD
ENDBRANCH   9  23
BRANCH  10  26
ATOM     26  C   UNL     1       0.629  -8.562  -5.935  0.00  0.00    +0.101 C 
ATOM     27  N   UNL     1      -0.507  -8.566  -5.921  0.00  0.00    -0.191 NA
ENDBRANCH  10  26
BRANCH   5  28
ATOM     28  O   UNL     1       8.184  -9.712  -4.880  0.00  0.00    -0.422 OA
BRANCH  28  29
ATOM     29  C   UNL     1       8.509 -10.823  -4.191  0.00  0.00    +0.345 C 
ATOM     30  O   UNL     1       7.638 -11.487  -3.664  0.00  0.00    -0.245 OA
BRANCH  29  31
ATOM     31  C   UNL     1       9.922 -11.236  -4.079  0.00  0.00    +0.062 A 
ATOM     32  C   UNL     1      10.926 -10.472  -4.679  0.00  0.00    +0.015 A 
ATOM     33  C   UNL     1      12.244 -10.863  -4.570  0.00  0.00    +0.003 A 
ATOM     34  C   UNL     1      12.573 -12.009  -3.867  0.00  0.00    +0.033 A 
ATOM     35  C   UNL     1      11.584 -12.770  -3.270  0.00  0.00    +0.127 A 
ATOM     36  C   UNL     1      10.262 -12.387  -3.366  0.00  0.00    +0.047 A 
BRANCH  35  37
ATOM     37  N   UNL     1      11.946 -13.994  -2.520  0.00  0.00    +0.056 N 
ATOM     38  O   UNL     1      13.105 -14.328  -2.431  0.00  0.00    -0.126 OA
ATOM     39  O   UNL     1      11.083 -14.660  -1.998  0.00  0.00    -0.126 OA
ENDBRANCH  35  37
ENDBRANCH  29  31
ENDBRANCH  28  29
ENDBRANCH   5  28
TORSDOF 12
