REMARK  Name = ZINC09512722
REMARK  7 active torsions:
REMARK  status: ('A' for Active; 'I' for Inactive)
REMARK    1  A    between atoms: C_1  and  C_2
REMARK    2  A    between atoms: C_2  and  C_3
REMARK    3  A    between atoms: C_3  and  C_25
REMARK    4  A    between atoms: N_6  and  C_10
REMARK    5  A    between atoms: C_10  and  C_11
REMARK    6  A    between atoms: N_13  and  C_14
REMARK    7  A    between atoms: C_15  and  C_22
REMARK                            x       y       z     vdW  Elec       q    Type
REMARK                         _______ _______ _______ _____ _____    ______ ____
ROOT
ATOM      1  C   UNL     1       5.048   4.036   2.591  0.00  0.00    +0.214 C 
ENDROOT
BRANCH   1   5
ATOM      2  C   UNL     1       2.442   4.593   0.004  0.00  0.00    +0.138 C 
ATOM      3  C   UNL     1       2.979   4.750   1.413  0.00  0.00    +0.251 C 
ATOM      4  O   UNL     1       2.444   5.318   2.341  0.00  0.00    -0.272 OA
ATOM      5  N   UNL     1       4.174   4.128   1.418  0.00  0.00    -0.215 N 
ATOM      6  C   UNL     1       4.465   3.605   0.221  0.00  0.00    +0.310 C 
ATOM      7  O   UNL     1       5.488   2.996  -0.020  0.00  0.00    -0.252 OA
ATOM      8  N   UNL     1       3.497   3.830  -0.686  0.00  0.00    -0.281 N 
ATOM      9  H   UNL     1       3.494   3.544  -1.613  0.00  0.00    +0.152 HD
BRANCH   2  10
ATOM     10  C   UNL     1       1.148   3.822   0.012  0.00  0.00    -0.014 A 
ATOM     11  C   UNL     1      -0.059   4.497   0.026  0.00  0.00    +0.006 A 
ATOM     12  C   UNL     1      -1.247   3.789   0.034  0.00  0.00    +0.002 A 
ATOM     13  C   UNL     1      -1.229   2.407   0.021  0.00  0.00    +0.020 A 
ATOM     14  C   UNL     1      -0.021   1.732   0.012  0.00  0.00    +0.041 A 
ATOM     15  C   UNL     1       1.167   2.440   0.004  0.00  0.00    +0.026 A 
ATOM     16 CL   UNL     1       0.002  -0.004   0.002  0.00  0.00    -0.084 Cl
ENDBRANCH   2  10
BRANCH   2  18
ATOM     17  C   UNL     1       3.599   6.670  -0.765  0.00  0.00    +0.007 C 
ATOM     18  C   UNL     1       2.248   5.960  -0.657  0.00  0.00    +0.037 C 
ENDBRANCH   2  18
ENDBRANCH   1   5
BRANCH   1  19
ATOM     19  C   UNL     1       5.981   5.219   2.615  0.00  0.00    +0.236 C 
ATOM     20  O   UNL     1       5.922   6.056   1.740  0.00  0.00    -0.274 OA
ATOM     21  N   UNL     1       6.882   5.346   3.610  0.00  0.00    -0.278 N 
ATOM     22  H   UNL     1       6.929   4.676   4.310  0.00  0.00    +0.155 HD
BRANCH  21  23
ATOM     23  C   UNL     1       7.741   6.434   3.633  0.00  0.00    +0.084 A 
ATOM     24  C   UNL     1       8.722   6.736   4.561  0.00  0.00    +0.068 A 
ATOM     25  C   UNL     1       9.498   7.959   4.354  0.00  0.00    -0.023 A 
ATOM     26  C   UNL     1       9.165   8.667   3.260  0.00  0.00    -0.004 A 
ATOM     27  S   UNL     1       7.851   7.741   2.504  0.00  0.00    -0.077 S 
ATOM     28  C   UNL     1      10.007   9.905   3.112  0.00  0.00    +0.043 C 
ATOM     29  C   UNL     1      11.219   9.665   4.038  0.00  0.00    +0.010 C 
ATOM     30  C   UNL     1      10.633   8.686   5.075  0.00  0.00    +0.037 C 
BRANCH  24  31
ATOM     31  C   UNL     1       8.976   5.862   5.711  0.00  0.00    +0.244 C 
ATOM     32  O   UNL     1       9.784   4.957   5.620  0.00  0.00    -0.270 OA
ATOM     33  N   UNL     1       8.314   6.061   6.868  0.00  0.00    -0.325 N 
ATOM     34  H   UNL     1       7.669   6.782   6.940  0.00  0.00    +0.145 HD
ATOM     35  H   UNL     1       8.481   5.482   7.628  0.00  0.00    +0.145 HD
ENDBRANCH  24  31
ENDBRANCH  21  23
ENDBRANCH   1  19
TORSDOF 6
