REMARK  Name = ZINC15969417
REMARK  6 active torsions:
REMARK  status: ('A' for Active; 'I' for Inactive)
REMARK    1  A    between atoms: C_1  and  C_2
REMARK    2  A    between atoms: C_13  and  C_16
REMARK    3  A    between atoms: C_16  and  C_17
REMARK    4  A    between atoms: N_29  and  C_32
REMARK    5  A    between atoms: C_35  and  O_38
REMARK    6  A    between atoms: O_38  and  C_39
REMARK                            x       y       z     vdW  Elec       q    Type
REMARK                         _______ _______ _______ _____ _____    ______ ____
ROOT
ATOM      1  C   UNL     1      -0.162   1.496   0.044  0.00  0.00    +0.044 C 
ATOM      2  C   UNL     1      -0.322  -0.002   0.106  0.00  0.00    -0.050 A 
ATOM      3  C   UNL     1      -0.607  -0.716  -1.044  0.00  0.00    +0.005 A 
ATOM      4  C   UNL     1      -0.754  -2.086  -0.994  0.00  0.00    +0.024 A 
ATOM      5  C   UNL     1      -0.617  -2.762   0.216  0.00  0.00    +0.039 A 
ATOM      6  C   UNL     1      -0.331  -2.033   1.366  0.00  0.00    +0.004 A 
ATOM      7  C   UNL     1      -0.180  -0.666   1.311  0.00  0.00    +0.011 A 
ATOM      8  C   UNL     1      -0.249  -3.039   2.479  0.00  0.00    +0.136 C 
ATOM      9  C   UNL     1       1.124  -3.010   3.162  0.00  0.00    +0.123 C 
ATOM     10  C   UNL     1       0.910  -2.143   4.434  0.00  0.00    +0.108 C 
ATOM     11  C   UNL     1      -0.570  -1.710   4.375  0.00  0.00    +0.072 C 
ATOM     12  N   UNL     1      -1.234  -2.755   3.539  0.00  0.00    -0.295 NA
ATOM     13  C   UNL     1       1.114  -3.126   5.565  0.00  0.00    +0.232 C 
ATOM     14  O   UNL     1       1.026  -2.863   6.745  0.00  0.00    -0.274 OA
ATOM     15  N   UNL     1       1.406  -4.330   5.060  0.00  0.00    -0.210 N 
ATOM     16  C   UNL     1       1.448  -4.383   3.709  0.00  0.00    +0.233 C 
ATOM     17  O   UNL     1       1.701  -5.362   3.039  0.00  0.00    -0.274 OA
ATOM     18  C   UNL     1      -0.512  -4.368   1.827  0.00  0.00    +0.243 C 
ATOM     19  O   UNL     1      -0.536  -5.451   2.372  0.00  0.00    -0.273 OA
ATOM     20  N   UNL     1      -0.718  -4.122   0.518  0.00  0.00    -0.283 N 
ATOM     21  H   UNL     1      -2.095  -2.405   3.148  0.00  0.00    +0.124 HD
ATOM     22  H   UNL     1      -0.913  -4.810  -0.138  0.00  0.00    +0.155 HD
ENDROOT
BRANCH  15  23
ATOM     23  C   UNL     1       1.655  -5.451   5.867  0.00  0.00    +0.044 A 
ATOM     24  C   UNL     1       0.630  -6.004   6.623  0.00  0.00    +0.027 A 
ATOM     25  C   UNL     1       0.876  -7.107   7.416  0.00  0.00    +0.047 A 
ATOM     26  C   UNL     1       2.147  -7.662   7.458  0.00  0.00    +0.120 A 
ATOM     27  C   UNL     1       3.171  -7.110   6.703  0.00  0.00    +0.047 A 
ATOM     28  C   UNL     1       2.925  -6.010   5.905  0.00  0.00    +0.027 A 
BRANCH  26  29
ATOM     29  O   UNL     1       2.388  -8.749   8.239  0.00  0.00    -0.495 OA
ATOM     30  C   UNL     1       3.719  -9.269   8.234  0.00  0.00    +0.277 C 
ENDBRANCH  26  29
ENDBRANCH  15  23
BRANCH  11  31
ATOM     31  C   UNL     1      -1.179  -1.703   5.779  0.00  0.00    +0.056 C 
BRANCH  31  32
ATOM     32  C   UNL     1      -2.583  -1.162   5.714  0.00  0.00    -0.021 A 
ATOM     33  C   UNL     1      -2.960   0.110   5.925  0.00  0.00    +0.087 A 
ATOM     34  N   UNL     1      -4.315   0.225   5.780  0.00  0.00    -0.360 N 
ATOM     35  H   UNL     1      -4.819   1.048   5.885  0.00  0.00    +0.165 HD
ATOM     36  C   UNL     1      -4.859  -1.000   5.464  0.00  0.00    +0.047 A 
ATOM     37  C   UNL     1      -3.797  -1.921   5.402  0.00  0.00    +0.003 A 
ATOM     38  C   UNL     1      -4.052  -3.258   5.092  0.00  0.00    +0.010 A 
ATOM     39  C   UNL     1      -5.333  -3.665   4.846  0.00  0.00    +0.001 A 
ATOM     40  C   UNL     1      -6.383  -2.759   4.902  0.00  0.00    +0.002 A 
ATOM     41  C   UNL     1      -6.155  -1.437   5.215  0.00  0.00    +0.026 A 
ENDBRANCH  31  32
ENDBRANCH  11  31
TORSDOF 4
