REMARK  Name = ZINC15822097
REMARK  6 active torsions:
REMARK  status: ('A' for Active; 'I' for Inactive)
REMARK    1  A    between atoms: C_6  and  C_7
REMARK    2  A    between atoms: C_10  and  C_12
REMARK    3  A    between atoms: N_14  and  N_15
REMARK    4  A    between atoms: C_16  and  C_18
REMARK    5  A    between atoms: N_23  and  S_24
REMARK    6  A    between atoms: S_24  and  C_27
REMARK                            x       y       z     vdW  Elec       q    Type
REMARK                         _______ _______ _______ _____ _____    ______ ____
ROOT
ATOM      1  N   UNL     1      -0.533  -0.506   2.560  0.00  0.00    -0.233 N 
ATOM      2  C   UNL     1      -0.663   0.817   2.342  0.00  0.00    +0.248 C 
ATOM      3  O   UNL     1      -0.287   1.609   3.180  0.00  0.00    -0.273 OA
ATOM      4  H   UNL     1      -0.835  -1.140   1.889  0.00  0.00    +0.173 HD
ENDROOT
BRANCH   2   5
ATOM      5  C   UNL     1      -1.277   1.314   1.058  0.00  0.00    +0.167 C 
ATOM      6  C   UNL     1      -0.171   1.769   0.074  0.00  0.00    +0.031 C 
ATOM      7  C   UNL     1      -0.945   2.772  -0.822  0.00  0.00    +0.019 C 
ATOM      8  C   UNL     1      -1.920   3.440   0.169  0.00  0.00    +0.110 C 
ATOM      9  N   UNL     1      -2.082   2.524   1.307  0.00  0.00    -0.165 NA
BRANCH   9  10
ATOM     10  S   UNL     1      -3.015   2.803   2.647  0.00  0.00    +0.062 S 
ATOM     11  O   UNL     1      -2.589   1.878   3.638  0.00  0.00    -0.153 OA
ATOM     12  O   UNL     1      -3.006   4.208   2.862  0.00  0.00    -0.153 OA
BRANCH  10  13
ATOM     13  C   UNL     1      -4.670   2.368   2.229  0.00  0.00    +0.106 A 
ATOM     14  C   UNL     1      -5.521   3.318   1.697  0.00  0.00    +0.031 A 
ATOM     15  C   UNL     1      -6.818   2.977   1.364  0.00  0.00    +0.040 A 
ATOM     16  C   UNL     1      -7.269   1.684   1.574  0.00  0.00    +0.124 A 
ATOM     17  C   UNL     1      -6.417   0.734   2.112  0.00  0.00    +0.040 A 
ATOM     18  C   UNL     1      -5.119   1.077   2.439  0.00  0.00    +0.031 A 
ATOM     19  F   UNL     1      -8.538   1.350   1.254  0.00  0.00    -0.205 F 
ENDBRANCH  10  13
ENDBRANCH   9  10
ENDBRANCH   2   5
BRANCH   1  22
ATOM     20  C   UNL     1       0.167  -2.292   3.971  0.00  0.00    +0.267 C 
ATOM     21  O   UNL     1      -0.211  -3.086   3.130  0.00  0.00    -0.268 OA
ATOM     22  N   UNL     1       0.036  -0.968   3.753  0.00  0.00    -0.230 N 
ATOM     23  H   UNL     1       0.338  -0.334   4.424  0.00  0.00    +0.173 HD
BRANCH  20  27
ATOM     24  C   UNL     1       1.901  -3.198   7.629  0.00  0.00    +0.020 A 
ATOM     25  C   UNL     1       1.560  -4.293   6.852  0.00  0.00    +0.017 A 
ATOM     26  C   UNL     1       0.979  -4.080   5.634  0.00  0.00    +0.021 A 
ATOM     27  C   UNL     1       0.762  -2.774   5.219  0.00  0.00    +0.076 A 
ATOM     28  S   UNL     1       1.390  -1.832   6.599  0.00  0.00    -0.084 S 
BRANCH  24  34
ATOM     29  C   UNL     1       2.852  -4.361   9.615  0.00  0.00    +0.012 A 
ATOM     30  C   UNL     1       3.442  -4.327  10.861  0.00  0.00    +0.039 A 
ATOM     31  C   UNL     1       3.704  -3.112  11.474  0.00  0.00    +0.123 A 
ATOM     32  C   UNL     1       3.379  -1.925  10.837  0.00  0.00    +0.039 A 
ATOM     33  C   UNL     1       2.794  -1.947   9.589  0.00  0.00    +0.012 A 
ATOM     34  C   UNL     1       2.528  -3.168   8.966  0.00  0.00    -0.011 A 
ATOM     35  F   UNL     1       4.278  -3.085  12.697  0.00  0.00    -0.205 F 
ENDBRANCH  24  34
ENDBRANCH  20  27
ENDBRANCH   1  22
TORSDOF 6
