REMARK  Name = ZINC49425319
REMARK  7 active torsions:
REMARK  status: ('A' for Active; 'I' for Inactive)
REMARK    1  A    between atoms: C_1  and  C_2
REMARK    2  A    between atoms: C_5  and  N_12
REMARK    3  A    between atoms: C_8  and  C_10
REMARK    4  A    between atoms: C_8  and  C_11
REMARK    5  A    between atoms: C_13  and  C_15
REMARK    6  A    between atoms: N_24  and  C_25
REMARK    7  A    between atoms: C_25  and  C_26
REMARK                            x       y       z     vdW  Elec       q    Type
REMARK                         _______ _______ _______ _____ _____    ______ ____
ROOT
ATOM      1  C   UNL     1       0.021  -3.155  -3.232  0.00  0.00    +0.092 C 
ATOM      2  C   UNL     1      -0.866  -2.956  -4.464  0.00  0.00    +0.016 C 
ATOM      3  C   UNL     1      -0.119  -3.428  -5.714  0.00  0.00    +0.020 C 
ATOM      4  C   UNL     1       0.197  -4.921  -5.582  0.00  0.00    +0.109 C 
ATOM      5  N   UNL     1       0.925  -5.141  -4.325  0.00  0.00    -0.285 N 
ATOM      6  C   UNL     1       0.339  -4.645  -3.072  0.00  0.00    +0.122 C 
ATOM      7  C   UNL     1       2.109  -5.786  -4.320  0.00  0.00    +0.302 C 
ATOM      8  O   UNL     1       2.658  -6.041  -3.266  0.00  0.00    -0.253 OA
ATOM      9  N   UNL     1       2.684  -6.147  -5.484  0.00  0.00    -0.295 N 
ATOM     10  H   UNL     1       2.214  -6.006  -6.322  0.00  0.00    +0.151 HD
ENDROOT
BRANCH   1  12
ATOM     11  N   UNL     1      -0.112  -2.737  -0.798  0.00  0.00    -0.312 N 
ATOM     12  C   UNL     1      -0.703  -2.660  -2.007  0.00  0.00    +0.218 C 
ATOM     13  O   UNL     1      -1.818  -2.193  -2.108  0.00  0.00    -0.275 OA
ATOM     14  H   UNL     1       0.780  -3.111  -0.717  0.00  0.00    +0.149 HD
BRANCH  11  18
ATOM     15  C   UNL     1       1.827  -3.289   2.997  0.00  0.00    +0.007 C 
ATOM     16  C   UNL     1       0.831  -3.448   1.847  0.00  0.00    -0.012 C 
ATOM     17  C   UNL     1       0.180  -2.097   1.544  0.00  0.00    +0.025 C 
ATOM     18  C   UNL     1      -0.815  -2.256   0.394  0.00  0.00    +0.074 C 
ATOM     19  C   UNL     1      -1.895  -3.265   0.790  0.00  0.00    +0.028 C 
ATOM     20  C   UNL     1      -1.245  -4.616   1.092  0.00  0.00    -0.033 C 
ATOM     21  C   UNL     1      -0.249  -4.457   2.243  0.00  0.00    +0.009 C 
ATOM     22  C   UNL     1      -0.510  -5.118  -0.152  0.00  0.00    +0.011 C 
ATOM     23  C   UNL     1      -2.325  -5.625   1.489  0.00  0.00    +0.011 C 
ENDBRANCH  11  18
ENDBRANCH   1  12
BRANCH   9  24
ATOM     24  C   UNL     1       4.019  -6.751  -5.486  0.00  0.00    +0.148 C 
BRANCH  24  25
ATOM     25  C   UNL     1       4.429  -7.059  -6.903  0.00  0.00    +0.007 A 
ATOM     26  C   UNL     1       5.099  -6.279  -7.787  0.00  0.00    +0.013 A 
ATOM     27  C   UNL     1       5.370  -6.776  -9.048  0.00  0.00    +0.008 A 
ATOM     28  C   UNL     1       4.958  -8.028  -9.363  0.00  0.00    +0.045 A 
ATOM     29  S   UNL     1       4.165  -8.549  -7.851  0.00  0.00    -0.100 S 
ENDBRANCH  24  25
ENDBRANCH   9  24
TORSDOF 4
