REMARK  Name = ZINC09113431
REMARK  10 active torsions:
REMARK  status: ('A' for Active; 'I' for Inactive)
REMARK    1  A    between atoms: C_1  and  C_2
REMARK    2  A    between atoms: C_2  and  C_3
REMARK    3  A    between atoms: C_2  and  C_4
REMARK    4  A    between atoms: C_2  and  O_5
REMARK    5  A    between atoms: O_5  and  C_6
REMARK    6  A    between atoms: C_15  and  C_27
REMARK    7  A    between atoms: C_17  and  C_23
REMARK    8  A    between atoms: C_17  and  C_25
REMARK    9  A    between atoms: C_18  and  N_22
REMARK   10  A    between atoms: C_19  and  C_20
REMARK                            x       y       z     vdW  Elec       q    Type
REMARK                         _______ _______ _______ _____ _____    ______ ____
ROOT
ATOM      1  C   UNL     1      -0.639   1.657   0.621  0.00  0.00    +0.404 C 
ATOM      2  O   UNL     1       0.449   2.195   0.679  0.00  0.00    -0.226 OA
ATOM      3  N   UNL     1      -1.740   2.390   0.358  0.00  0.00    -0.263 N 
ATOM      4  C   UNL     1      -3.073   1.768   0.268  0.00  0.00    +0.138 C 
ATOM      5  C   UNL     1      -3.645   2.124  -1.075  0.00  0.00    -0.003 C 
ATOM      6  C   UNL     1      -3.279   3.222  -1.707  0.00  0.00    -0.026 C 
ATOM      7  C   UNL     1      -2.319   4.235  -1.159  0.00  0.00    +0.048 C 
ATOM      8  C   UNL     1      -1.660   3.838   0.143  0.00  0.00    +0.120 C 
ATOM      9  C   UNL     1      -1.290   4.561  -2.242  0.00  0.00    +0.071 C 
ATOM     10  C   UNL     1      -2.008   5.201  -3.431  0.00  0.00    +0.188 C 
ATOM     11  C   UNL     1      -3.188   4.386  -3.868  0.00  0.00    +0.054 C 
ATOM     12  C   UNL     1      -3.800   3.468  -3.079  0.00  0.00    +0.074 C 
ENDROOT
BRANCH   9  13
ATOM     13  C   UNL     1      -0.266   5.521  -1.694  0.00  0.00    -0.005 A 
ATOM     14  C   UNL     1      -0.674   6.689  -1.079  0.00  0.00    +0.022 A 
ATOM     15  C   UNL     1       0.265   7.569  -0.571  0.00  0.00    +0.018 A 
ATOM     16  C   UNL     1       1.614   7.285  -0.689  0.00  0.00    +0.018 A 
ATOM     17  C   UNL     1       2.023   6.120  -1.308  0.00  0.00    +0.040 A 
ATOM     18  C   UNL     1       1.083   5.236  -1.812  0.00  0.00    +0.127 A 
ATOM     19  F   UNL     1       1.483   4.097  -2.418  0.00  0.00    -0.205 F 
ATOM     20 BR   UNL     1      -0.295   9.163   0.278  0.00  0.00    -0.050 Br
ENDBRANCH   9  13
BRANCH  11  21
ATOM     21  N   UNL     1      -3.672   4.577  -5.131  0.00  0.00    -0.358 N 
ATOM     22  H   UNL     1      -4.537   3.995  -5.483  0.00  0.00    +0.142 HD
ATOM     23  H   UNL     1      -3.198   5.314  -5.797  0.00  0.00    +0.142 HD
ENDBRANCH  11  21
BRANCH  12  24
ATOM     24  C   UNL     1      -4.937   2.743  -3.561  0.00  0.00    +0.101 C 
ATOM     25  N   UNL     1      -5.839   2.168  -3.944  0.00  0.00    -0.191 NA
ENDBRANCH  12  24
BRANCH  10  26
ATOM     26  C   UNL     1      -2.470   6.545  -3.046  0.00  0.00    +0.091 C 
ATOM     27  N   UNL     1      -2.825   7.582  -2.749  0.00  0.00    -0.194 NA
ENDBRANCH  10  26
BRANCH  10  28
ATOM     28  C   UNL     1      -1.065   5.322  -4.554  0.00  0.00    +0.091 C 
ATOM     29  N   UNL     1      -0.337   5.415  -5.421  0.00  0.00    -0.194 NA
ENDBRANCH  10  28
BRANCH   1  30
ATOM     30  O   UNL     1      -0.745   0.329   0.813  0.00  0.00    -0.445 OA
BRANCH  30  32
ATOM     31  C   UNL     1       1.128   0.153   2.360  0.00  0.00    +0.055 C 
ATOM     32  C   UNL     1       0.483  -0.397   1.086  0.00  0.00    +0.107 C 
ATOM     33  C   UNL     1       0.165  -1.882   1.275  0.00  0.00    +0.055 C 
ATOM     34  C   UNL     1       1.447  -0.228  -0.089  0.00  0.00    +0.055 C 
ENDBRANCH  30  32
ENDBRANCH   1  30
TORSDOF 7
