REMARK  Name = ZINC40714049
REMARK  3 active torsions:
REMARK  status: ('A' for Active; 'I' for Inactive)
REMARK    1  A    between atoms: C_4  and  S_8
REMARK    2  A    between atoms: S_8  and  C_9
REMARK    3  A    between atoms: C_10  and  N_16
REMARK                            x       y       z     vdW  Elec       q    Type
REMARK                         _______ _______ _______ _____ _____    ______ ____
ROOT
ATOM      1  C   UNL     1       3.485  -2.524   0.103  0.00  0.00    +0.122 A 
ATOM      2  C   UNL     1       4.477  -3.500   0.232  0.00  0.00    +0.058 A 
ATOM      3  C   UNL     1       4.101  -4.831   0.344  0.00  0.00    +0.042 A 
ATOM      4  C   UNL     1       2.746  -5.140   0.325  0.00  0.00    +0.038 A 
ATOM      5  C   UNL     1       1.822  -4.122   0.194  0.00  0.00    +0.127 A 
ATOM      6  N   UNL     1       2.206  -2.863   0.094  0.00  0.00    -0.245 NA
ATOM      7 BR   UNL     1       2.174  -6.936   0.474  0.00  0.00    -0.049 Br
ENDROOT
BRANCH   2   8
ATOM      8  N   UNL     1       5.830  -3.140   0.246  0.00  0.00    -0.356 N 
ATOM      9  H   UNL     1       6.085  -2.208   0.167  0.00  0.00    +0.142 HD
ATOM     10  H   UNL     1       6.513  -3.824   0.336  0.00  0.00    +0.142 HD
ENDBRANCH   2   8
BRANCH   1  11
ATOM     11  S   UNL     1       3.940  -0.828  -0.042  0.00  0.00    -0.065 S 
BRANCH  11  15
ATOM     12  C   UNL     1       0.009   1.302  -0.782  0.00  0.00    +0.041 A 
ATOM     13  C   UNL     1       0.615   0.596  -1.806  0.00  0.00    +0.042 A 
ATOM     14  C   UNL     1       1.814  -0.055  -1.584  0.00  0.00    +0.137 A 
ATOM     15  C   UNL     1       2.412   0.001  -0.329  0.00  0.00    +0.052 A 
ATOM     16  C   UNL     1       1.802   0.710   0.697  0.00  0.00    +0.056 A 
ATOM     17  C   UNL     1       0.602   1.359   0.468  0.00  0.00    +0.125 A 
ATOM     18  F   UNL     1       0.007   2.050   1.466  0.00  0.00    -0.205 F 
ATOM     19  F   UNL     1       2.404  -0.745  -2.584  0.00  0.00    -0.204 F 
ENDBRANCH  11  15
ENDBRANCH   1  11
TORSDOF 3
