REMARK  Name = ZINC00659126
REMARK  6 active torsions:
REMARK  status: ('A' for Active; 'I' for Inactive)
REMARK    1  A    between atoms: C_1  and  S_2
REMARK    2  A    between atoms: S_2  and  C_3
REMARK    3  A    between atoms: C_8  and  N_9
REMARK    4  A    between atoms: C_10  and  C_12
REMARK    5  A    between atoms: C_17  and  C_32
REMARK    6  A    between atoms: C_20  and  C_23
REMARK                            x       y       z     vdW  Elec       q    Type
REMARK                         _______ _______ _______ _____ _____    ______ ____
ROOT
ATOM      1  C   UNL     1      -0.402  -5.138   0.191  0.00  0.00    +0.149 A 
ATOM      2  C   UNL     1      -0.631  -6.529   0.293  0.00  0.00    +0.078 A 
ATOM      3  C   UNL     1       0.571  -7.136   0.356  0.00  0.00    +0.119 A 
ATOM      4  N   UNL     1       1.538  -6.172   0.301  0.00  0.00    -0.238 N 
ATOM      5  N   UNL     1       0.904  -4.935   0.191  0.00  0.00    -0.164 NA
ATOM      6  C   UNL     1       2.974  -6.458   0.349  0.00  0.00    +0.215 C 
ATOM      7  C   UNL     1       3.182  -7.856   0.941  0.00  0.00    +0.063 C 
ATOM      8  C   UNL     1       2.283  -8.867   0.221  0.00  0.00    +0.104 C 
ATOM      9  N   UNL     1       0.874  -8.496   0.461  0.00  0.00    -0.322 N 
ATOM     10  H   UNL     1       0.199  -9.158   0.678  0.00  0.00    +0.148 HD
ENDROOT
BRANCH   8  11
ATOM     11  C   UNL     1       2.545 -10.250   0.758  0.00  0.00    -0.024 A 
ATOM     12  C   UNL     1       1.968 -10.648   1.950  0.00  0.00    +0.009 A 
ATOM     13  C   UNL     1       2.205 -11.916   2.447  0.00  0.00    +0.050 A 
ATOM     14  C   UNL     1       3.022 -12.792   1.751  0.00  0.00    +0.166 A 
ATOM     15  C   UNL     1       3.603 -12.391   0.550  0.00  0.00    +0.167 A 
ATOM     16  C   UNL     1       3.357 -11.121   0.056  0.00  0.00    +0.055 A 
ATOM     17  O   UNL     1       4.356 -13.421   0.065  0.00  0.00    -0.453 OA
ATOM     18  C   UNL     1       4.558 -14.309   1.180  0.00  0.00    +0.466 C 
ATOM     19  O   UNL     1       3.410 -14.073   2.017  0.00  0.00    -0.453 OA
ENDBRANCH   8  11
BRANCH   1  21
ATOM     20  N   UNL     1      -1.087  -2.797  -0.003  0.00  0.00    -0.279 N 
ATOM     21  C   UNL     1      -1.442  -4.094   0.096  0.00  0.00    +0.268 C 
ATOM     22  O   UNL     1      -2.618  -4.404   0.105  0.00  0.00    -0.268 OA
ATOM     23  H   UNL     1      -0.152  -2.555  -0.091  0.00  0.00    +0.155 HD
BRANCH  20  29
ATOM     24  C   UNL     1      -1.823  -0.559  -0.567  0.00  0.00    +0.029 A 
ATOM     25  C   UNL     1      -2.802   0.424  -0.542  0.00  0.00    +0.016 A 
ATOM     26  C   UNL     1      -4.016   0.174   0.070  0.00  0.00    +0.001 A 
ATOM     27  C   UNL     1      -4.258  -1.053   0.660  0.00  0.00    +0.002 A 
ATOM     28  C   UNL     1      -3.288  -2.038   0.641  0.00  0.00    +0.024 A 
ATOM     29  C   UNL     1      -2.070  -1.799   0.023  0.00  0.00    +0.047 A 
BRANCH  24  31
ATOM     30  C   UNL     1      -0.425   1.461  -1.950  0.00  0.00    +0.090 C 
ATOM     31  S   UNL     1      -0.274  -0.244  -1.347  0.00  0.00    -0.127 S 
ENDBRANCH  24  31
ENDBRANCH  20  29
ENDBRANCH   1  21
BRANCH   6  32
ATOM     32  C   UNL     1       3.674  -5.418   1.227  0.00  0.00    +0.412 C 
ATOM     33  F   UNL     1       3.146  -5.468   2.521  0.00  0.00    -0.168 F 
ATOM     34  F   UNL     1       5.045  -5.692   1.272  0.00  0.00    -0.168 F 
ATOM     35  F   UNL     1       3.471  -4.142   0.690  0.00  0.00    -0.168 F 
ENDBRANCH   6  32
TORSDOF 5
