REMARK  Name = ZINC17269880
REMARK  6 active torsions:
REMARK  status: ('A' for Active; 'I' for Inactive)
REMARK    1  A    between atoms: C_12  and  N_17
REMARK    2  A    between atoms: C_18  and  C_20
REMARK    3  A    between atoms: C_20  and  S_21
REMARK    4  A    between atoms: S_21  and  C_22
REMARK    5  A    between atoms: C_25  and  C_30
REMARK    6  A    between atoms: N_26  and  C_27
REMARK                            x       y       z     vdW  Elec       q    Type
REMARK                         _______ _______ _______ _____ _____    ______ ____
ROOT
ATOM      1  N   UNL     1      -2.589   9.499  -0.248  0.00  0.00    -0.285 N 
ATOM      2  C   UNL     1      -3.765  10.156  -0.293  0.00  0.00    +0.227 C 
ATOM      3  O   UNL     1      -4.806   9.535  -0.312  0.00  0.00    -0.275 OA
ATOM      4  H   UNL     1      -1.759   9.994  -0.166  0.00  0.00    +0.155 HD
ENDROOT
BRANCH   1  16
ATOM      5  C   UNL     1      -4.532   0.932   0.593  0.00  0.00    +0.001 A 
ATOM      6  C   UNL     1      -5.569   1.565   1.254  0.00  0.00    +0.001 A 
ATOM      7  C   UNL     1      -5.609   2.946   1.334  0.00  0.00    +0.012 A 
ATOM      8  C   UNL     1      -4.601   3.704   0.746  0.00  0.00    +0.033 A 
ATOM      9  C   UNL     1      -3.547   3.061   0.074  0.00  0.00    +0.033 A 
ATOM     10  C   UNL     1      -3.519   1.671   0.008  0.00  0.00    +0.012 A 
ATOM     11  C   UNL     1      -2.472   3.858  -0.553  0.00  0.00    +0.195 C 
ATOM     12  O   UNL     1      -1.561   3.301  -1.135  0.00  0.00    -0.287 OA
ATOM     13  C   UNL     1      -2.505   5.331  -0.473  0.00  0.00    +0.033 A 
ATOM     14  C   UNL     1      -1.492   6.087  -1.062  0.00  0.00    +0.014 A 
ATOM     15  C   UNL     1      -1.526   7.465  -0.984  0.00  0.00    +0.024 A 
ATOM     16  C   UNL     1      -2.565   8.107  -0.321  0.00  0.00    +0.034 A 
ATOM     17  C   UNL     1      -3.583   7.364   0.272  0.00  0.00    +0.035 A 
ATOM     18  C   UNL     1      -3.559   5.977   0.200  0.00  0.00    +0.035 A 
ATOM     19  C   UNL     1      -4.635   5.180   0.827  0.00  0.00    +0.195 C 
ATOM     20  O   UNL     1      -5.546   5.737   1.406  0.00  0.00    -0.287 OA
ENDBRANCH   1  16
BRANCH   2  21
ATOM     21  C   UNL     1      -3.785  11.663  -0.320  0.00  0.00    +0.173 C 
BRANCH  21  22
ATOM     22  S   UNL     1      -5.499  12.242  -0.379  0.00  0.00    -0.077 S 
BRANCH  22  23
ATOM     23  C   UNL     1      -5.233  13.983  -0.402  0.00  0.00    +0.193 A 
ATOM     24  N   UNL     1      -4.070  14.594  -0.374  0.00  0.00    -0.122 NA
ATOM     25  N   UNL     1      -4.238  15.868  -0.407  0.00  0.00    -0.128 NA
ATOM     26  C   UNL     1      -5.521  16.150  -0.449  0.00  0.00    +0.172 A 
ATOM     27  N   UNL     1      -6.198  14.951  -0.447  0.00  0.00    -0.299 N 
BRANCH  26  28
ATOM     28  C   UNL     1      -6.121  17.494  -0.489  0.00  0.00    +0.056 A 
ATOM     29  C   UNL     1      -5.542  18.708  -0.218  0.00  0.00    +0.019 A 
ATOM     30  C   UNL     1      -6.311  19.845  -0.324  0.00  0.00    +0.008 A 
ATOM     31  C   UNL     1      -7.613  19.732  -0.692  0.00  0.00    +0.046 A 
ATOM     32  S   UNL     1      -7.790  17.969  -0.911  0.00  0.00    -0.094 S 
ENDBRANCH  26  28
BRANCH  27  33
ATOM     33  C   UNL     1      -7.649  14.752  -0.484  0.00  0.00    +0.091 C 
ATOM     34  C   UNL     1      -8.185  13.377  -0.083  0.00  0.00    +0.027 C 
ATOM     35  C   UNL     1      -8.206  13.809  -1.552  0.00  0.00    +0.027 C 
ENDBRANCH  27  33
ENDBRANCH  22  23
ENDBRANCH  21  22
ENDBRANCH   2  21
TORSDOF 6
