REMARK  Name = ZINC18114875
REMARK  6 active torsions:
REMARK  status: ('A' for Active; 'I' for Inactive)
REMARK    1  A    between atoms: C_7  and  C_11
REMARK    2  A    between atoms: C_11  and  C_13
REMARK    3  A    between atoms: C_13  and  C_15
REMARK    4  A    between atoms: C_13  and  O_36
REMARK    5  A    between atoms: C_15  and  C_17
REMARK    6  A    between atoms: C_15  and  N_24
REMARK                            x       y       z     vdW  Elec       q    Type
REMARK                         _______ _______ _______ _____ _____    ______ ____
ROOT
ATOM      1  C   UNL     1       1.812  -4.949  -1.487  0.00  0.00    +0.123 C 
ENDROOT
BRANCH   1   2
ATOM      2  N   UNL     1       2.577  -6.201  -1.420  0.00  0.00    -0.290 NA
ATOM      3  C   UNL     1       3.590  -6.144  -0.358  0.00  0.00    +0.104 C 
ATOM      4  C   UNL     1       4.239  -7.523  -0.201  0.00  0.00    +0.122 C 
ATOM      5  N   UNL     1       4.739  -7.956  -1.515  0.00  0.00    -0.314 N 
ATOM      6  C   UNL     1       3.817  -7.911  -2.660  0.00  0.00    +0.122 C 
ATOM      7  C   UNL     1       3.184  -6.516  -2.720  0.00  0.00    +0.104 C 
ATOM      8  C   UNL     1       6.048  -8.398  -1.670  0.00  0.00    +0.099 A 
ATOM      9  C   UNL     1       6.856  -8.566  -0.550  0.00  0.00    +0.042 A 
ATOM     10  C   UNL     1       8.156  -9.006  -0.719  0.00  0.00    +0.005 A 
ATOM     11  C   UNL     1       8.607  -9.264  -2.008  0.00  0.00    +0.018 A 
ATOM     12  C   UNL     1       7.751  -9.074  -3.074  0.00  0.00    +0.084 A 
ATOM     13  N   UNL     1       6.513  -8.659  -2.882  0.00  0.00    -0.350 N 
ATOM     14  H   UNL     1       5.931  -8.538  -3.648  0.00  0.00    +0.166 HD
ENDBRANCH   1   2
BRANCH   1  15
ATOM     15  C   UNL     1       0.674  -5.106  -2.463  0.00  0.00    -0.027 A 
ATOM     16  C   UNL     1      -0.043  -6.287  -2.503  0.00  0.00    +0.007 A 
ATOM     17  C   UNL     1      -1.087  -6.431  -3.398  0.00  0.00    +0.020 A 
ATOM     18  C   UNL     1      -1.412  -5.394  -4.254  0.00  0.00    +0.041 A 
ATOM     19  C   UNL     1      -0.693  -4.213  -4.213  0.00  0.00    +0.020 A 
ATOM     20  C   UNL     1       0.346  -4.067  -3.314  0.00  0.00    +0.007 A 
ATOM     21 CL   UNL     1      -2.722  -5.575  -5.379  0.00  0.00    -0.084 Cl
ENDBRANCH   1  15
BRANCH   1  22
ATOM     22  C   UNL     1       1.253  -4.619  -0.101  0.00  0.00    +0.207 C 
BRANCH  22  23
ATOM     23  C   UNL     1       0.478  -3.328  -0.167  0.00  0.00    +0.195 C 
ATOM     24  O   UNL     1      -0.736  -3.347  -0.145  0.00  0.00    -0.289 OA
BRANCH  23  31
ATOM     25  C   UNL     1      -0.975   1.086  -0.411  0.00  0.00    +0.001 A 
ATOM     26  C   UNL     1       0.087   1.975  -0.482  0.00  0.00    +0.002 A 
ATOM     27  C   UNL     1       1.387   1.517  -0.476  0.00  0.00    +0.026 A 
ATOM     28  C   UNL     1       1.642   0.151  -0.397  0.00  0.00    +0.047 A 
ATOM     29  C   UNL     1       0.565  -0.746  -0.325  0.00  0.00    +0.010 A 
ATOM     30  C   UNL     1      -0.743  -0.270  -0.333  0.00  0.00    +0.011 A 
ATOM     31  C   UNL     1       1.166  -2.092  -0.253  0.00  0.00    +0.045 A 
ATOM     32  C   UNL     1       2.532  -1.905  -0.287  0.00  0.00    +0.095 A 
ATOM     33  N   UNL     1       2.806  -0.590  -0.371  0.00  0.00    -0.360 N 
ATOM     34  H   UNL     1       3.700  -0.214  -0.409  0.00  0.00    +0.165 HD
ENDBRANCH  23  31
ENDBRANCH  22  23
BRANCH  22  35
ATOM     35  O   UNL     1       0.388  -5.673   0.327  0.00  0.00    -0.382 OA
ATOM     36  H   UNL     1      -0.368  -5.823  -0.258  0.00  0.00    +0.210 HD
ENDBRANCH  22  35
ENDBRANCH   1  22
TORSDOF 6
