REMARK  Name = ZINC39887188
REMARK  6 active torsions:
REMARK  status: ('A' for Active; 'I' for Inactive)
REMARK    1  A    between atoms: C_1  and  C_2
REMARK    2  A    between atoms: C_5  and  C_8
REMARK    3  A    between atoms: C_11  and  C_13
REMARK    4  A    between atoms: C_18  and  C_29
REMARK    5  A    between atoms: N_20  and  C_21
REMARK    6  A    between atoms: C_26  and  C_27
REMARK                            x       y       z     vdW  Elec       q    Type
REMARK                         _______ _______ _______ _____ _____    ______ ____
ROOT
ATOM      1  C   UNL     1       0.100  -7.510  -1.672  0.00  0.00    +0.234 C 
ATOM      2  N   UNL     1      -0.573  -8.641  -1.031  0.00  0.00    -0.286 N 
ATOM      3  C   UNL     1      -1.901  -8.821  -1.176  0.00  0.00    +0.258 C 
ATOM      4  O   UNL     1      -2.461  -9.739  -0.605  0.00  0.00    -0.269 OA
ATOM      5  C   UNL     1      -2.667  -7.905  -2.025  0.00  0.00    +0.142 C 
ATOM      6  C   UNL     1      -1.963  -7.072  -2.909  0.00  0.00    +0.103 C 
ATOM      7  N   UNL     1      -0.594  -7.162  -2.917  0.00  0.00    -0.267 N 
ATOM      8  S   UNL     1      -2.808  -5.949  -3.972  0.00  0.00    -0.033 SA
ATOM      9  H   UNL     1      -0.059  -9.266  -0.497  0.00  0.00    +0.151 HD
ENDROOT
BRANCH   7  10
ATOM     10  C   UNL     1       0.127  -6.925  -4.091  0.00  0.00    +0.039 A 
ATOM     11  C   UNL     1       0.404  -7.971  -4.962  0.00  0.00    +0.024 A 
ATOM     12  C   UNL     1       1.115  -7.733  -6.120  0.00  0.00    +0.002 A 
ATOM     13  C   UNL     1       1.553  -6.455  -6.415  0.00  0.00    +0.000 A 
ATOM     14  C   UNL     1       1.279  -5.411  -5.551  0.00  0.00    +0.005 A 
ATOM     15  C   UNL     1       0.563  -5.641  -4.393  0.00  0.00    -0.029 A 
ATOM     16  C   UNL     1       0.260  -4.501  -3.454  0.00  0.00    +0.045 C 
ENDBRANCH   7  10
BRANCH   1  20
ATOM     17  C   UNL     1       0.058  -4.251  -0.021  0.00  0.00    +0.135 A 
ATOM     18  C   UNL     1       0.069  -5.054   1.075  0.00  0.00    +0.050 A 
ATOM     19  C   UNL     1       0.086  -6.383   0.605  0.00  0.00    +0.049 A 
ATOM     20  C   UNL     1       0.085  -6.325  -0.742  0.00  0.00    +0.144 A 
ATOM     21  O   UNL     1       0.062  -5.035  -1.116  0.00  0.00    -0.456 OA
BRANCH  17  26
ATOM     22  C   UNL     1      -0.018   1.503   0.010  0.00  0.00    +0.044 C 
ATOM     23  C   UNL     1       0.002  -0.004   0.002  0.00  0.00    -0.050 A 
ATOM     24  C   UNL     1       0.006  -0.686  -1.202  0.00  0.00    +0.004 A 
ATOM     25  C   UNL     1       0.024  -2.066  -1.216  0.00  0.00    +0.012 A 
ATOM     26  C   UNL     1       0.039  -2.773  -0.013  0.00  0.00    +0.017 A 
ATOM     27  C   UNL     1       0.036  -2.079   1.198  0.00  0.00    +0.012 A 
ATOM     28  C   UNL     1       0.023  -0.699   1.198  0.00  0.00    +0.004 A 
ENDBRANCH  17  26
ENDBRANCH   1  20
BRANCH   5  29
ATOM     29  C   UNL     1      -4.097  -7.861  -1.955  0.00  0.00    +0.107 C 
ATOM     30  N   UNL     1      -5.231  -7.826  -1.900  0.00  0.00    -0.191 NA
ENDBRANCH   5  29
TORSDOF 4
