REMARK  Name = ZINC09615230
REMARK  8 active torsions:
REMARK  status: ('A' for Active; 'I' for Inactive)
REMARK    1  A    between atoms: C_1  and  N_2
REMARK    2  A    between atoms: C_6  and  N_13
REMARK    3  A    between atoms: N_9  and  C_12
REMARK    4  A    between atoms: C_14  and  C_16
REMARK    5  A    between atoms: C_16  and  N_17
REMARK    6  A    between atoms: N_17  and  C_18
REMARK    7  A    between atoms: N_17  and  S_24
REMARK    8  A    between atoms: S_24  and  C_27
REMARK                            x       y       z     vdW  Elec       q    Type
REMARK                         _______ _______ _______ _____ _____    ______ ____
ROOT
ATOM      1  C   UNL     1       2.455  -3.285  -2.348  0.00  0.00    +0.227 C 
ENDROOT
BRANCH   1   3
ATOM      2  N   UNL     1       3.965  -5.217  -2.667  0.00  0.00    -0.284 N 
ATOM      3  C   UNL     1       2.854  -4.715  -2.094  0.00  0.00    +0.236 C 
ATOM      4  O   UNL     1       2.175  -5.415  -1.373  0.00  0.00    -0.274 OA
ATOM      5  H   UNL     1       4.545  -4.640  -3.188  0.00  0.00    +0.155 HD
BRANCH   2  11
ATOM      6  C   UNL     1       5.708 -11.652  -2.549  0.00  0.00    +0.154 C 
ATOM      7  N   UNL     1       5.109 -10.563  -1.773  0.00  0.00    -0.295 N 
ATOM      8  C   UNL     1       4.915  -9.255  -2.217  0.00  0.00    +0.070 A 
ATOM      9  C   UNL     1       5.192  -8.606  -3.411  0.00  0.00    +0.030 A 
ATOM     10  C   UNL     1       4.873  -7.271  -3.559  0.00  0.00    +0.025 A 
ATOM     11  C   UNL     1       4.283  -6.573  -2.512  0.00  0.00    +0.036 A 
ATOM     12  C   UNL     1       4.003  -7.216  -1.316  0.00  0.00    +0.051 A 
ATOM     13  C   UNL     1       4.318  -8.558  -1.165  0.00  0.00    +0.071 A 
ATOM     14  N   UNL     1       4.167  -9.462  -0.116  0.00  0.00    -0.295 N 
ATOM     15  C   UNL     1       4.650 -10.655  -0.511  0.00  0.00    +0.330 A 
ATOM     16  O   UNL     1       4.669 -11.663   0.170  0.00  0.00    -0.246 OA
ATOM     17  C   UNL     1       3.582  -9.165   1.194  0.00  0.00    +0.154 C 
ENDBRANCH   2  11
ENDBRANCH   1   3
BRANCH   1  18
ATOM     18  N   UNL     1       1.221  -2.984  -1.617  0.00  0.00    -0.194 N 
BRANCH  18  19
ATOM     19  C   UNL     1      -0.018  -3.290  -2.183  0.00  0.00    +0.052 A 
ATOM     20  C   UNL     1      -0.388  -2.725  -3.397  0.00  0.00    +0.025 A 
ATOM     21  C   UNL     1      -1.612  -3.033  -3.957  0.00  0.00    +0.002 A 
ATOM     22  C   UNL     1      -2.474  -3.896  -3.305  0.00  0.00    +0.000 A 
ATOM     23  C   UNL     1      -2.112  -4.456  -2.094  0.00  0.00    +0.002 A 
ATOM     24  C   UNL     1      -0.887  -4.156  -1.531  0.00  0.00    +0.025 A 
ENDBRANCH  18  19
BRANCH  18  25
ATOM     25  S   UNL     1       1.297  -2.282  -0.119  0.00  0.00    +0.075 S 
ATOM     26  O   UNL     1       2.520  -2.705   0.467  0.00  0.00    -0.150 OA
ATOM     27  O   UNL     1       0.037  -2.508   0.499  0.00  0.00    -0.150 OA
BRANCH  25  28
ATOM     28  C   UNL     1       1.431  -0.543  -0.366  0.00  0.00    +0.109 A 
ATOM     29  C   UNL     1       0.291   0.234  -0.447  0.00  0.00    +0.030 A 
ATOM     30  C   UNL     1       0.396   1.599  -0.639  0.00  0.00    +0.022 A 
ATOM     31  C   UNL     1       1.643   2.187  -0.752  0.00  0.00    +0.041 A 
ATOM     32  C   UNL     1       2.784   1.409  -0.671  0.00  0.00    +0.022 A 
ATOM     33  C   UNL     1       2.678   0.045  -0.478  0.00  0.00    +0.030 A 
ATOM     34 CL   UNL     1       1.776   3.901  -0.994  0.00  0.00    -0.084 Cl
ENDBRANCH  25  28
ENDBRANCH  18  25
ENDBRANCH   1  18
TORSDOF 6
