REMARK  Name = ZINC15147359
REMARK  6 active torsions:
REMARK  status: ('A' for Active; 'I' for Inactive)
REMARK    1  A    between atoms: C_3  and  O_20
REMARK    2  A    between atoms: C_6  and  C_7
REMARK    3  A    between atoms: N_8  and  N_9
REMARK    4  A    between atoms: C_10  and  C_12
REMARK    5  A    between atoms: O_20  and  C_21
REMARK    6  A    between atoms: C_21  and  C_22
REMARK                            x       y       z     vdW  Elec       q    Type
REMARK                         _______ _______ _______ _____ _____    ______ ____
ROOT
ATOM      1  C   UNL     1      -1.263  -0.761   0.011  0.00  0.00    +0.138 C 
ATOM      2  N   UNL     1      -1.243  -2.059   0.003  0.00  0.00    -0.187 NA
ENDROOT
BRANCH   1   8
ATOM      3  C   UNL     1      -0.017   1.393   0.010  0.00  0.00    +0.013 A 
ATOM      4  C   UNL     1       1.168   2.096   0.002  0.00  0.00    +0.046 A 
ATOM      5  C   UNL     1       2.380   1.418  -0.013  0.00  0.00    +0.121 A 
ATOM      6  C   UNL     1       2.404   0.029  -0.021  0.00  0.00    +0.046 A 
ATOM      7  C   UNL     1       1.224  -0.682  -0.014  0.00  0.00    +0.013 A 
ATOM      8  C   UNL     1       0.002  -0.004   0.002  0.00  0.00    -0.005 A 
BRANCH   5   9
ATOM      9  O   UNL     1       3.546   2.115  -0.020  0.00  0.00    -0.483 OA
BRANCH   9  10
ATOM     10  C   UNL     1       4.756   1.356  -0.036  0.00  0.00    +0.324 C 
BRANCH  10  11
ATOM     11  C   UNL     1       5.937   2.292  -0.042  0.00  0.00    +0.248 C 
ATOM     12  O   UNL     1       5.760   3.492  -0.034  0.00  0.00    -0.272 OA
ATOM     13  N   UNL     1       7.191   1.796  -0.057  0.00  0.00    -0.327 N 
ATOM     14  H   UNL     1       7.332   0.836  -0.064  0.00  0.00    +0.145 HD
ATOM     15  H   UNL     1       7.950   2.399  -0.061  0.00  0.00    +0.145 HD
ENDBRANCH  10  11
ENDBRANCH   9  10
ENDBRANCH   5   9
ENDBRANCH   1   8
BRANCH   2  16
ATOM     16  N   UNL     1      -2.446  -2.778   0.011  0.00  0.00    -0.203 N 
ATOM     17  C   UNL     1      -2.425  -4.125   0.004  0.00  0.00    +0.265 C 
ATOM     18  O   UNL     1      -1.363  -4.717  -0.010  0.00  0.00    -0.268 OA
ATOM     19  H   UNL     1      -3.293  -2.306   0.022  0.00  0.00    +0.178 HD
BRANCH  17  20
ATOM     20  C   UNL     1      -3.692  -4.883   0.013  0.00  0.00    +0.057 A 
ATOM     21  C   UNL     1      -4.914  -4.206   0.022  0.00  0.00    +0.016 A 
ATOM     22  C   UNL     1      -6.094  -4.919   0.030  0.00  0.00    +0.021 A 
ATOM     23  C   UNL     1      -6.070  -6.305   0.029  0.00  0.00    +0.042 A 
ATOM     24  C   UNL     1      -4.863  -6.983   0.019  0.00  0.00    +0.040 A 
ATOM     25  C   UNL     1      -3.674  -6.280   0.005  0.00  0.00    +0.054 A 
ATOM     26 CL   UNL     1      -2.161  -7.131  -0.015  0.00  0.00    -0.083 Cl
ATOM     27 CL   UNL     1      -7.561  -7.194   0.039  0.00  0.00    -0.083 Cl
ENDBRANCH  17  20
ENDBRANCH   2  16
TORSDOF 6
