REMARK  Name = ZINC44963940
REMARK  14 active torsions:
REMARK  status: ('A' for Active; 'I' for Inactive)
REMARK    1  A    between atoms: C_3  and  O_10
REMARK    2  A    between atoms: C_6  and  N_7
REMARK    3  A    between atoms: O_10  and  C_11
REMARK    4  A    between atoms: C_13  and  O_26
REMARK    5  A    between atoms: C_15  and  O_25
REMARK    6  A    between atoms: C_17  and  O_24
REMARK    7  A    between atoms: C_19  and  C_22
REMARK    8  A    between atoms: C_22  and  O_23
REMARK    9  A    between atoms: O_26  and  C_27
REMARK   10  A    between atoms: C_29  and  O_42
REMARK   11  A    between atoms: C_31  and  O_41
REMARK   12  A    between atoms: C_33  and  O_40
REMARK   13  A    between atoms: C_35  and  C_38
REMARK   14  A    between atoms: C_38  and  O_39
REMARK                            x       y       z     vdW  Elec       q    Type
REMARK                         _______ _______ _______ _____ _____    ______ ____
ROOT
ATOM      1  C   UNL     1       4.756   1.341  -0.037  0.00  0.00    +0.340 C 
ATOM      2  C   UNL     1       5.955   2.284  -0.169  0.00  0.00    +0.221 C 
ATOM      3  C   UNL     1       6.004   3.208   1.052  0.00  0.00    +0.180 C 
ATOM      4  C   UNL     1       6.074   2.354   2.322  0.00  0.00    +0.177 C 
ATOM      5  C   UNL     1       4.871   1.408   2.358  0.00  0.00    +0.179 C 
ATOM      6  O   UNL     1       4.867   0.599   1.180  0.00  0.00    -0.331 OA
ENDROOT
BRANCH   4   7
ATOM      7  O   UNL     1       7.283   1.592   2.320  0.00  0.00    -0.386 OA
ATOM      8  H   UNL     1       7.393   1.027   3.097  0.00  0.00    +0.210 HD
ENDBRANCH   4   7
BRANCH   3   9
ATOM      9  O   UNL     1       4.830   4.021   1.084  0.00  0.00    -0.386 OA
ATOM     10  H   UNL     1       4.794   4.632   1.833  0.00  0.00    +0.210 HD
ENDBRANCH   3   9
BRANCH   1  11
ATOM     11  O   UNL     1       3.548   2.104  -0.021  0.00  0.00    -0.461 OA
BRANCH  11  14
ATOM     12  C   UNL     1      -0.017   1.378   0.010  0.00  0.00    +0.036 A 
ATOM     13  C   UNL     1       1.169   2.087   0.002  0.00  0.00    +0.048 A 
ATOM     14  C   UNL     1       2.380   1.409  -0.013  0.00  0.00    +0.124 A 
ATOM     15  C   UNL     1       2.396   0.022  -0.021  0.00  0.00    +0.048 A 
ATOM     16  C   UNL     1       1.207  -0.681  -0.013  0.00  0.00    +0.036 A 
ATOM     17  C   UNL     1       0.002  -0.004   0.002  0.00  0.00    +0.126 A 
BRANCH  17  18
ATOM     18  N   UNL     1      -1.270  -0.760   0.011  0.00  0.00    +0.056 N 
ATOM     19  O   UNL     1      -2.325  -0.169   0.024  0.00  0.00    -0.126 OA
ATOM     20  O   UNL     1      -1.255  -1.969   0.004  0.00  0.00    -0.126 OA
ENDBRANCH  17  18
ENDBRANCH  11  14
ENDBRANCH   1  11
BRANCH   5  21
ATOM     21  C   UNL     1       4.965   0.510   3.593  0.00  0.00    +0.190 C 
BRANCH  21  22
ATOM     22  O   UNL     1       3.786  -0.291   3.690  0.00  0.00    -0.392 OA
ATOM     23  H   UNL     1       3.776  -0.887   4.452  0.00  0.00    +0.210 HD
ENDBRANCH  21  22
ENDBRANCH   5  21
BRANCH   2  24
ATOM     24  O   UNL     1       5.817   3.067  -1.356  0.00  0.00    -0.337 OA
BRANCH  24  25
ATOM     25  C   UNL     1       6.405   2.473  -2.515  0.00  0.00    +0.282 C 
ATOM     26  C   UNL     1       6.093   3.332  -3.744  0.00  0.00    +0.201 C 
ATOM     27  C   UNL     1       6.720   4.717  -3.562  0.00  0.00    +0.179 C 
ATOM     28  C   UNL     1       8.226   4.557  -3.333  0.00  0.00    +0.177 C 
ATOM     29  C   UNL     1       8.457   3.651  -2.120  0.00  0.00    +0.178 C 
ATOM     30  O   UNL     1       7.822   2.390  -2.342  0.00  0.00    -0.341 OA
BRANCH  28  31
ATOM     31  O   UNL     1       8.826   3.970  -4.490  0.00  0.00    -0.386 OA
ATOM     32  H   UNL     1       8.714   4.490  -5.297  0.00  0.00    +0.210 HD
ENDBRANCH  28  31
BRANCH  27  33
ATOM     33  O   UNL     1       6.494   5.502  -4.734  0.00  0.00    -0.386 OA
ATOM     34  H   UNL     1       5.560   5.638  -4.942  0.00  0.00    +0.210 HD
ENDBRANCH  27  33
BRANCH  26  35
ATOM     35  O   UNL     1       6.634   2.710  -4.911  0.00  0.00    -0.384 OA
ATOM     36  H   UNL     1       6.283   1.826  -5.085  0.00  0.00    +0.210 HD
ENDBRANCH  26  35
BRANCH  29  37
ATOM     37  C   UNL     1       9.959   3.438  -1.921  0.00  0.00    +0.190 C 
BRANCH  37  38
ATOM     38  O   UNL     1      10.179   2.689  -0.724  0.00  0.00    -0.392 OA
ATOM     39  H   UNL     1      11.111   2.516  -0.534  0.00  0.00    +0.210 HD
ENDBRANCH  37  38
ENDBRANCH  29  37
ENDBRANCH  24  25
ENDBRANCH   2  24
TORSDOF 14
