REMARK  Name = ZINC27086059
REMARK  6 active torsions:
REMARK  status: ('A' for Active; 'I' for Inactive)
REMARK    1  A    between atoms: C_1  and  C_2
REMARK    2  A    between atoms: C_2  and  C_4
REMARK    3  A    between atoms: C_2  and  S_15
REMARK    4  A    between atoms: N_9  and  C_10
REMARK    5  A    between atoms: C_10  and  C_11
REMARK    6  A    between atoms: S_15  and  C_16
REMARK                            x       y       z     vdW  Elec       q    Type
REMARK                         _______ _______ _______ _____ _____    ______ ____
ROOT
ATOM      1  C   UNL     1      -3.562  -1.833  -1.280  0.00  0.00    +0.029 C 
ATOM      2  C   UNL     1      -4.087  -1.254   0.035  0.00  0.00    +0.137 C 
ENDROOT
BRANCH   2   3
ATOM      3  C   UNL     1      -5.555  -1.567   0.172  0.00  0.00    +0.233 C 
ATOM      4  O   UNL     1      -6.383  -0.755  -0.181  0.00  0.00    -0.274 OA
ATOM      5  N   UNL     1      -5.947  -2.750   0.685  0.00  0.00    -0.239 N 
ATOM      6  C   UNL     1      -7.260  -3.030   0.807  0.00  0.00    +0.306 C 
ATOM      7  O   UNL     1      -8.090  -2.216   0.454  0.00  0.00    -0.252 OA
ATOM      8  N   UNL     1      -7.651  -4.213   1.321  0.00  0.00    -0.291 N 
ATOM      9  H   UNL     1      -5.195  -3.487   1.006  0.00  0.00    +0.159 HD
ATOM     10  H   UNL     1      -6.900  -4.949   1.641  0.00  0.00    +0.151 HD
BRANCH   8  11
ATOM     11  C   UNL     1      -9.078  -4.517   1.454  0.00  0.00    +0.219 C 
BRANCH  11  12
ATOM     12  C   UNL     1      -9.248  -5.912   2.060  0.00  0.00    +0.405 C 
ATOM     13  F   UNL     1      -8.644  -5.949   3.321  0.00  0.00    -0.169 F 
ATOM     14  F   UNL     1     -10.611  -6.203   2.186  0.00  0.00    -0.169 F 
ATOM     15  F   UNL     1      -8.644  -6.859   1.226  0.00  0.00    -0.169 F 
ENDBRANCH  11  12
ENDBRANCH   8  11
ENDBRANCH   2   3
BRANCH   2  16
ATOM     16  S   UNL     1      -3.850   0.540   0.042  0.00  0.00    -0.075 S 
BRANCH  16  17
ATOM     17  C   UNL     1      -2.090   0.616   0.025  0.00  0.00    +0.168 A 
ATOM     18  N   UNL     1      -1.353   1.767   0.030  0.00  0.00    -0.333 N 
ATOM     19  H   UNL     1      -1.859   2.744   0.048  0.00  0.00    +0.168 HD
ATOM     20  C   UNL     1      -0.017   1.400   0.010  0.00  0.00    +0.070 A 
ATOM     21  C   UNL     1       1.174   2.110   0.002  0.00  0.00    +0.069 A 
ATOM     22  C   UNL     1       2.378   1.433  -0.013  0.00  0.00    +0.160 A 
ATOM     23  C   UNL     1       2.403   0.043  -0.020  0.00  0.00    +0.161 A 
ATOM     24  C   UNL     1       1.227  -0.676  -0.013  0.00  0.00    +0.071 A 
ATOM     25  C   UNL     1       0.002  -0.004   0.002  0.00  0.00    +0.093 A 
ATOM     26  N   UNL     1      -1.292  -0.422   0.012  0.00  0.00    -0.222 NA
ATOM     27  F   UNL     1       3.587  -0.607  -0.034  0.00  0.00    -0.202 F 
ATOM     28  F   UNL     1       3.538   2.126  -0.019  0.00  0.00    -0.202 F 
ENDBRANCH  16  17
ENDBRANCH   2  16
TORSDOF 5
