REMARK  Name = ZINC02553679
REMARK  8 active torsions:
REMARK  status: ('A' for Active; 'I' for Inactive)
REMARK    1  A    between atoms: C_4  and  N_7
REMARK    2  A    between atoms: N_7  and  C_8
REMARK    3  A    between atoms: C_8  and  N_10
REMARK    4  A    between atoms: N_10  and  N_11
REMARK    5  A    between atoms: C_12  and  C_13
REMARK    6  A    between atoms: C_16  and  O_19
REMARK    7  A    between atoms: O_19  and  C_20
REMARK    8  A    between atoms: C_20  and  C_22
REMARK                            x       y       z     vdW  Elec       q    Type
REMARK                         _______ _______ _______ _____ _____    ______ ____
ROOT
ATOM      1  C   UNL     1       1.068   3.395  -0.381  0.00  0.00    -0.005 A 
ATOM      2  C   UNL     1      -0.112   4.008  -0.809  0.00  0.00    +0.013 A 
ATOM      3  C   UNL     1      -0.100   5.334  -1.185  0.00  0.00    +0.047 A 
ATOM      4  C   UNL     1       1.085   6.057  -1.149  0.00  0.00    +0.132 A 
ATOM      5  C   UNL     1       2.262   5.450  -0.730  0.00  0.00    +0.047 A 
ATOM      6  C   UNL     1       2.258   4.126  -0.347  0.00  0.00    +0.013 A 
ENDROOT
BRANCH   1   8
ATOM      7  N   UNL     1      -0.048   1.300  -0.005  0.00  0.00    -0.188 NA
ATOM      8  C   UNL     1       1.059   1.978   0.027  0.00  0.00    +0.138 C 
BRANCH   7   9
ATOM      9  N   UNL     1      -0.057  -0.046   0.383  0.00  0.00    -0.218 N 
ATOM     10  H   UNL     1       0.764  -0.471   0.676  0.00  0.00    +0.176 HD
BRANCH   9  11
ATOM     11  C   UNL     1      -1.206  -0.749   0.349  0.00  0.00    +0.154 C 
ATOM     12  S   UNL     1      -1.216  -2.394   0.823  0.00  0.00    -0.017 S 
BRANCH  11  13
ATOM     13  N   UNL     1      -2.346  -0.158  -0.058  0.00  0.00    -0.296 N 
ATOM     14  H   UNL     1      -2.353   0.789  -0.268  0.00  0.00    +0.154 HD
BRANCH  13  18
ATOM     15  C   UNL     1      -5.840  -2.397  -0.415  0.00  0.00    +0.000 A 
ATOM     16  C   UNL     1      -5.045  -2.534   0.707  0.00  0.00    +0.002 A 
ATOM     17  C   UNL     1      -3.886  -1.794   0.829  0.00  0.00    +0.023 A 
ATOM     18  C   UNL     1      -3.519  -0.910  -0.178  0.00  0.00    +0.033 A 
ATOM     19  C   UNL     1      -4.324  -0.770  -1.302  0.00  0.00    +0.023 A 
ATOM     20  C   UNL     1      -5.479  -1.518  -1.419  0.00  0.00    +0.002 A 
ENDBRANCH  13  18
ENDBRANCH  11  13
ENDBRANCH   9  11
ENDBRANCH   7   9
ENDBRANCH   1   8
BRANCH   4  21
ATOM     21  O   UNL     1       1.094   7.362  -1.526  0.00  0.00    -0.422 OA
BRANCH  21  22
ATOM     22  C   UNL     1       0.595   8.257  -0.648  0.00  0.00    +0.353 C 
ATOM     23  O   UNL     1       0.083   7.872   0.386  0.00  0.00    -0.244 OA
BRANCH  22  24
ATOM     24  C   UNL     1       0.671   9.691  -0.940  0.00  0.00    +0.116 A 
ATOM     25  C   UNL     1       0.223  10.735  -0.188  0.00  0.00    +0.070 A 
ATOM     26  C   UNL     1       0.397  12.054  -0.647  0.00  0.00    +0.008 A 
ATOM     27  C   UNL     1       0.007  13.262  -0.013  0.00  0.00    +0.010 A 
ATOM     28  C   UNL     1       0.245  14.463  -0.601  0.00  0.00    +0.001 A 
ATOM     29  C   UNL     1       0.876  14.557  -1.836  0.00  0.00    +0.001 A 
ATOM     30  C   UNL     1       1.272  13.407  -2.487  0.00  0.00    +0.016 A 
ATOM     31  C   UNL     1       1.036  12.180  -1.903  0.00  0.00    +0.022 A 
ATOM     32  S   UNL     1       1.364  10.500  -2.371  0.00  0.00    -0.080 S 
ATOM     33 CL   UNL     1      -0.556  10.439   1.335  0.00  0.00    -0.082 Cl
ENDBRANCH  22  24
ENDBRANCH  21  22
ENDBRANCH   4  21
TORSDOF 8
