REMARK  Name = ZINC11757500
REMARK  5 active torsions:
REMARK  status: ('A' for Active; 'I' for Inactive)
REMARK    1  A    between atoms: C_1  and  C_2
REMARK    2  A    between atoms: C_2  and  C_3
REMARK    3  A    between atoms: C_2  and  C_4
REMARK    4  A    between atoms: C_7  and  C_10
REMARK    5  A    between atoms: CA_13  and  C_18
REMARK                            x       y       z     vdW  Elec       q    Type
REMARK                         _______ _______ _______ _____ _____    ______ ____
ROOT
ATOM      1  C   UNL     1      -2.716   2.949   4.763  0.00  0.00    +0.130 C 
ATOM      2  C   UNL     1      -1.662   3.260   5.805  0.00  0.00    +0.030 C 
ATOM      3  CA  UNL     1      -1.617   4.501   6.302  0.00  0.00    +0.122 C 
ATOM      4  N   UNL     1      -2.515   5.478   5.870  0.00  0.00    -0.264 N 
ATOM      5  C   UNL     1      -3.463   5.249   4.952  0.00  0.00    +0.305 C 
ATOM      6  O   UNL     1      -4.206   6.158   4.632  0.00  0.00    -0.252 OA
ATOM      7  N   UNL     1      -3.619   4.044   4.371  0.00  0.00    -0.289 N 
ATOM      8  H   UNL     1      -2.450   6.367   6.255  0.00  0.00    +0.157 HD
ATOM      9  H   UNL     1      -4.311   3.900   3.707  0.00  0.00    +0.151 HD
ENDROOT
BRANCH   1  13
ATOM     10  C   UNL     1      -0.718   1.572   1.248  0.00  0.00    -0.045 A 
ATOM     11  C   UNL     1      -0.856   2.928   1.478  0.00  0.00    +0.004 A 
ATOM     12  C   UNL     1      -1.507   3.374   2.613  0.00  0.00    +0.006 A 
ATOM     13  C   UNL     1      -2.011   2.463   3.523  0.00  0.00    -0.023 A 
ATOM     14  C   UNL     1      -1.869   1.107   3.295  0.00  0.00    +0.006 A 
ATOM     15  C   UNL     1      -1.222   0.662   2.158  0.00  0.00    +0.004 A 
BRANCH  10  17
ATOM     16  C   UNL     1       1.423   1.615  -0.003  0.00  0.00    +0.012 C 
ATOM     17  C   UNL     1      -0.013   1.086   0.008  0.00  0.00    +0.013 C 
ATOM     18  C   UNL     1      -0.753   1.593  -1.232  0.00  0.00    +0.012 C 
ENDBRANCH  10  17
ENDBRANCH   1  13
BRANCH   3  19
ATOM     19  C   UNL     1      -0.605   4.841   7.319  0.00  0.00    +0.400 C 
ATOM     20  O   UNL     1       0.181   3.997   7.700  0.00  0.00    -0.239 OA
ATOM     21  OXT UNL     1      -0.551   6.090   7.824  0.00  0.00    -0.239 OA
ENDBRANCH   3  19
TORSDOF 3
