REMARK  Name = ZINC64011811
REMARK  4 active torsions:
REMARK  status: ('A' for Active; 'I' for Inactive)
REMARK    1  A    between atoms: C_1  and  C_2
REMARK    2  A    between atoms: C_2  and  N_3
REMARK    3  A    between atoms: C_7  and  C_12
REMARK    4  A    between atoms: C_17  and  C_20
REMARK                            x       y       z     vdW  Elec       q    Type
REMARK                         _______ _______ _______ _____ _____    ______ ____
ROOT
ATOM      1  C   UNL     1       6.005  -1.750  -2.560  0.00  0.00    +0.247 C 
ATOM      2  O   UNL     1       6.213  -2.210  -3.666  0.00  0.00    -0.270 OA
ATOM      3  N   UNL     1       7.030  -1.556  -1.707  0.00  0.00    -0.293 N 
ATOM      4  C   UNL     1       8.424  -1.799  -2.118  0.00  0.00    +0.113 C 
ATOM      5  C   UNL     1       9.179  -0.469  -2.040  0.00  0.00    +0.054 C 
ATOM      6  C   UNL     1       8.868   0.233  -0.751  0.00  0.00    -0.043 C 
ATOM      7  C   UNL     1       7.812  -0.034   0.008  0.00  0.00    -0.004 C 
ATOM      8  C   UNL     1       6.802  -1.089  -0.332  0.00  0.00    +0.135 C 
ENDROOT
BRANCH   1  13
ATOM      9  N   UNL     1       0.824  -0.555  -0.746  0.00  0.00    -0.250 N 
ATOM     10  C   UNL     1       2.042  -0.749  -1.393  0.00  0.00    +0.068 A 
ATOM     11  C   UNL     1       2.497  -0.418  -2.663  0.00  0.00    +0.027 A 
ATOM     12  C   UNL     1       3.781  -0.741  -3.043  0.00  0.00    +0.015 A 
ATOM     13  C   UNL     1       4.630  -1.403  -2.152  0.00  0.00    +0.039 A 
ATOM     14  C   UNL     1       4.174  -1.738  -0.872  0.00  0.00    +0.039 A 
ATOM     15  C   UNL     1       2.887  -1.411  -0.496  0.00  0.00    +0.066 A 
ATOM     16  N   UNL     1       2.162  -1.609   0.684  0.00  0.00    -0.263 N 
ATOM     17  N   UNL     1       0.917  -1.077   0.512  0.00  0.00    -0.160 NA
ATOM     18  H   UNL     1       2.489  -2.044   1.487  0.00  0.00    +0.168 HD
ATOM     19  H   UNL     1       0.721  -0.374   1.209  0.00  0.00    +0.168 HD
BRANCH   9  21
ATOM     20  C   UNL     1      -1.235  -0.941  -2.008  0.00  0.00    +0.026 C 
ATOM     21  C   UNL     1      -0.354   0.102  -1.317  0.00  0.00    +0.122 C 
ENDBRANCH   9  21
ENDBRANCH   1  13
BRANCH   6  22
ATOM     22  C   UNL     1       9.755   1.240  -0.318  0.00  0.00    -0.016 C 
ATOM     23  C   UNL     1      10.845   1.753  -1.010  0.00  0.00    +0.003 A 
ATOM     24  C   UNL     1      11.393   1.462  -2.281  0.00  0.00    +0.010 A 
ATOM     25  C   UNL     1      12.489   2.135  -2.710  0.00  0.00    +0.001 A 
ATOM     26  C   UNL     1      13.100   3.119  -1.925  0.00  0.00    +0.002 A 
ATOM     27  C   UNL     1      12.631   3.449  -0.699  0.00  0.00    +0.026 A 
ATOM     28  C   UNL     1      11.486   2.788  -0.179  0.00  0.00    +0.043 A 
ATOM     29  N   UNL     1      10.846   2.923   0.963  0.00  0.00    -0.380 N 
ATOM     30  C   UNL     1       9.713   1.993   0.994  0.00  0.00    +0.149 C 
ATOM     31  H   UNL     1      11.083   3.544   1.670  0.00  0.00    +0.160 HD
ENDBRANCH   6  22
TORSDOF 3
