REMARK  Name = ZINC40661957
REMARK  7 active torsions:
REMARK  status: ('A' for Active; 'I' for Inactive)
REMARK    1  A    between atoms: C_1  and  C_2
REMARK    2  A    between atoms: C_2  and  N_3
REMARK    3  A    between atoms: N_3  and  C_4
REMARK    4  A    between atoms: C_8  and  C_10
REMARK    5  A    between atoms: C_12  and  N_30
REMARK    6  A    between atoms: C_13  and  N_17
REMARK    7  A    between atoms: N_20  and  C_23
REMARK                            x       y       z     vdW  Elec       q    Type
REMARK                         _______ _______ _______ _____ _____    ______ ____
ROOT
ATOM      1  N   UNL     1       0.674  -0.463  -1.193  0.00  0.00    -0.285 N 
ATOM      2  C   UNL     1      -0.126  -0.667  -2.312  0.00  0.00    +0.129 A 
ATOM      3  C   UNL     1      -1.488  -0.365  -2.275  0.00  0.00    +0.104 A 
ATOM      4  C   UNL     1      -2.245  -0.590  -3.426  0.00  0.00    +0.147 A 
ATOM      5  N   UNL     1      -1.643  -1.078  -4.508  0.00  0.00    -0.221 NA
ATOM      6  C   UNL     1      -0.353  -1.349  -4.501  0.00  0.00    +0.200 A 
ATOM      7  N   UNL     1       0.398  -1.148  -3.438  0.00  0.00    -0.332 N 
ATOM      8  H   UNL     1       1.344  -1.356  -3.474  0.00  0.00    +0.168 HD
ENDROOT
BRANCH   1   9
ATOM      9  C   UNL     1       0.924  -1.518  -0.311  0.00  0.00    +0.035 A 
ATOM     10  C   UNL     1       0.465  -2.796  -0.607  0.00  0.00    +0.023 A 
ATOM     11  C   UNL     1       0.715  -3.836   0.267  0.00  0.00    +0.002 A 
ATOM     12  C   UNL     1       1.419  -3.607   1.435  0.00  0.00    +0.003 A 
ATOM     13  C   UNL     1       1.877  -2.337   1.732  0.00  0.00    -0.049 A 
ATOM     14  C   UNL     1       1.636  -1.293   0.860  0.00  0.00    +0.026 A 
ATOM     15  C   UNL     1       2.643  -2.092   3.006  0.00  0.00    +0.044 C 
ENDBRANCH   1   9
BRANCH   4  16
ATOM     16  N   UNL     1      -3.605  -0.307  -3.443  0.00  0.00    -0.311 N 
ATOM     17  C   UNL     1      -4.095   0.982  -3.951  0.00  0.00    +0.125 C 
ATOM     18  C   UNL     1      -5.121   0.714  -5.060  0.00  0.00    +0.124 C 
ATOM     19  N   UNL     1      -6.095  -0.271  -4.570  0.00  0.00    -0.325 N 
ATOM     20  C   UNL     1      -5.605  -1.560  -4.062  0.00  0.00    +0.124 C 
ATOM     21  C   UNL     1      -4.580  -1.294  -2.958  0.00  0.00    +0.125 C 
BRANCH  19  22
ATOM     22  C   UNL     1      -7.464   0.013  -4.586  0.00  0.00    +0.065 A 
ATOM     23  C   UNL     1      -8.230  -0.317  -5.696  0.00  0.00    +0.026 A 
ATOM     24  C   UNL     1      -9.583  -0.035  -5.710  0.00  0.00    +0.002 A 
ATOM     25  C   UNL     1     -10.175   0.576  -4.620  0.00  0.00    +0.003 A 
ATOM     26  C   UNL     1      -9.416   0.907  -3.512  0.00  0.00    +0.040 A 
ATOM     27  C   UNL     1      -8.063   0.623  -3.489  0.00  0.00    +0.144 A 
ATOM     28  F   UNL     1      -7.323   0.941  -2.404  0.00  0.00    -0.204 F 
ENDBRANCH  19  22
ENDBRANCH   4  16
BRANCH   3  29
ATOM     29  N   UNL     1      -2.082   0.148  -1.110  0.00  0.00    -0.353 N 
ATOM     30  H   UNL     1      -1.561   0.230  -0.296  0.00  0.00    +0.143 HD
ATOM     31  H   UNL     1      -3.012   0.422  -1.121  0.00  0.00    +0.143 HD
ENDBRANCH   3  29
BRANCH   1  33
ATOM     32  C   UNL     1       2.677   0.907  -1.498  0.00  0.00    +0.025 C 
ATOM     33  C   UNL     1       1.254   0.858  -0.938  0.00  0.00    +0.109 C 
ENDBRANCH   1  33
TORSDOF 5
