REMARK  Name = ZINC36027284
REMARK  8 active torsions:
REMARK  status: ('A' for Active; 'I' for Inactive)
REMARK    1  A    between atoms: C_1  and  C_2
REMARK    2  A    between atoms: C_2  and  C_3
REMARK    3  A    between atoms: C_3  and  C_5
REMARK    4  A    between atoms: C_3  and  N_6
REMARK    5  A    between atoms: C_9  and  C_28
REMARK    6  A    between atoms: N_15  and  S_18
REMARK    7  A    between atoms: S_18  and  C_21
REMARK    8  A    between atoms: C_28  and  C_29
REMARK                            x       y       z     vdW  Elec       q    Type
REMARK                         _______ _______ _______ _____ _____    ______ ____
ROOT
ATOM      1  N   UNL     1      -2.110  -0.171   1.260  0.00  0.00    -0.311 N 
ATOM      2  C   UNL     1      -1.663  -0.457   2.501  0.00  0.00    +0.201 C 
ATOM      3  O   UNL     1      -0.642  -1.057   2.765  0.00  0.00    -0.277 OA
ATOM      4  C   UNL     1      -2.649   0.097   3.506  0.00  0.00    +0.023 C 
ATOM      5  N   UNL     1      -3.467   1.067   2.739  0.00  0.00    +0.401 N 
ATOM      6  C   UNL     1      -3.375   0.564   1.354  0.00  0.00    +0.006 C 
ATOM      7  C   UNL     1      -4.550  -0.369   1.069  0.00  0.00    +0.023 C 
ATOM      8  C   UNL     1      -4.430  -0.917  -0.357  0.00  0.00    +0.109 C 
ATOM      9  N   UNL     1      -4.304   0.212  -1.288  0.00  0.00    -0.177 NA
ATOM     10  C   UNL     1      -3.248   1.206  -1.055  0.00  0.00    +0.109 C 
ATOM     11  C   UNL     1      -3.378   1.737   0.376  0.00  0.00    +0.023 C 
ATOM     12  H   UNL     1      -4.423   1.059   3.061  0.00  0.00    -0.082 HD
ATOM     13  H   UNL     1      -3.075   1.994   2.804  0.00  0.00    -0.082 HD
ENDROOT
BRANCH   9  14
ATOM     14  S   UNL     1      -5.333   0.360  -2.577  0.00  0.00    +0.061 S 
ATOM     15  O   UNL     1      -4.658   1.148  -3.548  0.00  0.00    -0.153 OA
ATOM     16  O   UNL     1      -5.821  -0.944  -2.860  0.00  0.00    -0.153 OA
BRANCH  14  17
ATOM     17  C   UNL     1      -6.716   1.308  -2.033  0.00  0.00    +0.106 A 
ATOM     18  C   UNL     1      -7.815   0.675  -1.484  0.00  0.00    +0.030 A 
ATOM     19  C   UNL     1      -8.899   1.418  -1.057  0.00  0.00    +0.022 A 
ATOM     20  C   UNL     1      -8.885   2.796  -1.180  0.00  0.00    +0.041 A 
ATOM     21  C   UNL     1      -7.785   3.429  -1.730  0.00  0.00    +0.022 A 
ATOM     22  C   UNL     1      -6.698   2.686  -2.151  0.00  0.00    +0.030 A 
ATOM     23 CL   UNL     1     -10.247   3.729  -0.645  0.00  0.00    -0.084 Cl
ENDBRANCH  14  17
ENDBRANCH   9  14
BRANCH   1  24
ATOM     24  C   UNL     1      -1.433  -0.534   0.013  0.00  0.00    +0.071 C 
ATOM     25  C   UNL     1      -0.988  -1.996   0.080  0.00  0.00    +0.028 C 
BRANCH  24  27
ATOM     26  C   UNL     1      -0.664   1.812  -0.375  0.00  0.00    +0.005 C 
ATOM     27  C   UNL     1      -0.209   0.363  -0.183  0.00  0.00    +0.019 C 
ENDBRANCH  24  27
ENDBRANCH   1  24
BRANCH   4  28
ATOM     28  C   UNL     1      -1.909   0.803   4.644  0.00  0.00    +0.028 C 
BRANCH  28  29
ATOM     29  C   UNL     1      -2.903   1.270   5.676  0.00  0.00    -0.048 A 
ATOM     30  C   UNL     1      -3.472   2.526   5.569  0.00  0.00    +0.003 A 
ATOM     31  C   UNL     1      -4.384   2.954   6.516  0.00  0.00    +0.000 A 
ATOM     32  C   UNL     1      -4.727   2.127   7.569  0.00  0.00    +0.000 A 
ATOM     33  C   UNL     1      -4.159   0.872   7.675  0.00  0.00    +0.000 A 
ATOM     34  C   UNL     1      -3.250   0.441   6.726  0.00  0.00    +0.003 A 
ENDBRANCH  28  29
ENDBRANCH   4  28
TORSDOF 6
