REMARK  Name = ZINC33522439
REMARK  9 active torsions:
REMARK  status: ('A' for Active; 'I' for Inactive)
REMARK    1  A    between atoms: C_1  and  C_2
REMARK    2  A    between atoms: C_7  and  N_8
REMARK    3  A    between atoms: C_9  and  C_11
REMARK    4  A    between atoms: C_14  and  C_32
REMARK    5  A    between atoms: C_15  and  C_16
REMARK    6  A    between atoms: C_15  and  C_17
REMARK    7  A    between atoms: N_19  and  N_20
REMARK    8  A    between atoms: N_20  and  C_21
REMARK    9  A    between atoms: C_24  and  N_27
REMARK                            x       y       z     vdW  Elec       q    Type
REMARK                         _______ _______ _______ _____ _____    ______ ____
ROOT
ATOM      1  C   UNL     1       0.535  -0.573  -1.362  0.00  0.00    +0.117 C 
ATOM      2  C   UNL     1      -0.514   0.009  -2.361  0.00  0.00    +0.026 C 
ATOM      3  C   UNL     1      -1.851   0.013  -1.551  0.00  0.00    +0.015 C 
ATOM      4  C   UNL     1      -1.444  -0.594  -0.173  0.00  0.00    +0.022 C 
ATOM      5  C   UNL     1      -0.003   0.011  -0.007  0.00  0.00    -0.003 C 
ATOM      6  C   UNL     1      -0.013   1.541   0.003  0.00  0.00    +0.013 C 
ATOM      7  C   UNL     1       0.732  -0.564   1.206  0.00  0.00    +0.013 C 
ATOM      8  C   UNL     1      -1.090  -2.057  -0.471  0.00  0.00    +0.109 C 
ATOM      9  N   UNL     1      -1.776  -3.113  -0.118  0.00  0.00    -0.183 NA
ATOM     10  C   UNL     1       0.126  -2.045  -1.204  0.00  0.00    +0.195 C 
ATOM     11  O   UNL     1       0.728  -3.012  -1.624  0.00  0.00    -0.290 OA
ATOM     12  C   UNL     1      -2.419  -0.358   0.982  0.00  0.00    +0.018 C 
ENDROOT
BRANCH   1  14
ATOM     13  N   UNL     1       2.522  -0.785  -2.820  0.00  0.00    -0.284 N 
ATOM     14  C   UNL     1       1.986  -0.316  -1.676  0.00  0.00    +0.232 C 
ATOM     15  O   UNL     1       2.672   0.313  -0.898  0.00  0.00    -0.274 OA
ATOM     16  H   UNL     1       1.927  -1.432  -3.481  0.00  0.00    +0.155 HD
BRANCH  13  23
ATOM     17  C   UNL     1       3.944  -2.536  -4.554  0.00  0.00    +0.046 C 
ATOM     18  C   UNL     1       4.565  -1.276  -4.011  0.00  0.00    -0.028 A 
ATOM     19  C   UNL     1       5.862  -0.941  -4.351  0.00  0.00    +0.025 A 
ATOM     20  C   UNL     1       6.433   0.216  -3.853  0.00  0.00    +0.041 A 
ATOM     21  C   UNL     1       5.708   1.041  -3.011  0.00  0.00    +0.022 A 
ATOM     22  C   UNL     1       4.410   0.715  -2.671  0.00  0.00    +0.025 A 
ATOM     23  C   UNL     1       3.836  -0.449  -3.167  0.00  0.00    +0.036 A 
ATOM     24 CL   UNL     1       8.062   0.633  -4.283  0.00  0.00    -0.084 Cl
ENDBRANCH  13  23
ENDBRANCH   1  14
BRANCH   9  25
ATOM     25  N   UNL     1      -1.359  -4.290  -0.438  0.00  0.00    -0.237 N 
ATOM     26  H   UNL     1      -0.425  -4.407  -1.009  0.00  0.00    +0.174 HD
BRANCH  25  27
ATOM     27  C   UNL     1      -2.091  -5.417  -0.061  0.00  0.00    +0.048 A 
ATOM     28  C   UNL     1      -3.268  -5.272   0.664  0.00  0.00    +0.027 A 
ATOM     29  C   UNL     1      -3.993  -6.389   1.031  0.00  0.00    +0.034 A 
ATOM     30  C   UNL     1      -3.544  -7.651   0.686  0.00  0.00    +0.126 A 
ATOM     31  C   UNL     1      -2.371  -7.799  -0.031  0.00  0.00    +0.034 A 
ATOM     32  C   UNL     1      -1.643  -6.687  -0.406  0.00  0.00    +0.027 A 
BRANCH  30  33
ATOM     33  N   UNL     1      -4.320  -8.845   1.087  0.00  0.00    +0.056 N 
ATOM     34  O   UNL     1      -3.926  -9.958   0.784  0.00  0.00    -0.126 OA
ATOM     35  O   UNL     1      -5.354  -8.717   1.718  0.00  0.00    -0.126 OA
ENDBRANCH  30  33
ENDBRANCH  25  27
ENDBRANCH   9  25
TORSDOF 5
