REMARK  Name = ZINC36309989
REMARK  16 active torsions:
REMARK  status: ('A' for Active; 'I' for Inactive)
REMARK    1  A    between atoms: C_1  and  C_2
REMARK    2  A    between atoms: C_2  and  N_3
REMARK    3  A    between atoms: N_3  and  C_4
REMARK    4  A    between atoms: N_3  and  C_17
REMARK    5  A    between atoms: C_4  and  C_5
REMARK    6  A    between atoms: C_5  and  C_7
REMARK    7  A    between atoms: C_5  and  O_16
REMARK    8  A    between atoms: C_7  and  O_8
REMARK    9  A    between atoms: O_8  and  C_9
REMARK   10  A    between atoms: C_9  and  C_10
REMARK   11  A    between atoms: C_17  and  C_18
REMARK   12  A    between atoms: C_28  and  C_30
REMARK   13  A    between atoms: C_30  and  O_31
REMARK   14  A    between atoms: O_31  and  C_32
REMARK   15  A    between atoms: C_37  and  O_38
REMARK   16  A    between atoms: O_38  and  C_39
REMARK                            x       y       z     vdW  Elec       q    Type
REMARK                         _______ _______ _______ _____ _____    ______ ____
ROOT
ATOM      1  C   UNL     1       1.930  -2.194  -0.202  0.00  0.00    +0.200 C 
ATOM      2  O   UNL     1       2.240  -1.276  -0.931  0.00  0.00    -0.278 OA
ATOM      3  N   UNL     1       2.322  -3.450  -0.495  0.00  0.00    -0.292 N 
ATOM      4  C   UNL     1       1.946  -4.571   0.378  0.00  0.00    +0.113 C 
ATOM      5  C   UNL     1       1.024  -5.512  -0.413  0.00  0.00    +0.061 C 
ATOM      6  C   UNL     1       1.581  -5.682  -1.789  0.00  0.00    -0.004 A 
ATOM      7  C   UNL     1       2.514  -4.913  -2.415  0.00  0.00    -0.014 A 
ATOM      8  C   UNL     1       2.860  -5.282  -3.714  0.00  0.00    +0.013 A 
ATOM      9  C   UNL     1       2.279  -6.361  -4.288  0.00  0.00    +0.046 A 
ATOM     10  S   UNL     1       1.187  -6.925  -2.991  0.00  0.00    -0.101 S 
ATOM     11  C   UNL     1       3.125  -3.717  -1.696  0.00  0.00    +0.144 C 
ENDROOT
BRANCH   1  12
ATOM     12  C   UNL     1       1.106  -1.931   1.032  0.00  0.00    +0.019 C 
BRANCH  12  13
ATOM     13  N   UNL     1       0.810  -0.495   1.127  0.00  0.00    +0.387 N 
ATOM     14  H   UNL     1       1.672   0.029   1.099  0.00  0.00    -0.081 HD
BRANCH  13  16
ATOM     15  C   UNL     1      -0.231   1.423   0.015  0.00  0.00    -0.017 C 
ATOM     16  C   UNL     1      -0.042  -0.095  -0.002  0.00  0.00    -0.081 C 
ENDBRANCH  13  16
BRANCH  13  17
ATOM     17  C   UNL     1       0.111  -0.221   2.389  0.00  0.00    -0.044 C 
BRANCH  17  18
ATOM     18  C   UNL     1       1.053  -0.495   3.563  0.00  0.00    +0.124 C 
BRANCH  18  19
ATOM     19  O   UNL     1       2.196   0.357   3.465  0.00  0.00    -0.391 OA
ATOM     20  H   UNL     1       1.994   1.298   3.558  0.00  0.00    +0.210 HD
ENDBRANCH  18  19
BRANCH  18  21
ATOM     21  C   UNL     1       0.322  -0.217   4.879  0.00  0.00    +0.189 C 
BRANCH  21  22
ATOM     22  O   UNL     1       1.161  -0.583   5.976  0.00  0.00    -0.373 OA
BRANCH  22  23
ATOM     23  C   UNL     1       0.569  -0.363   7.258  0.00  0.00    +0.195 C 
BRANCH  23  24
ATOM     24  C   UNL     1       1.536  -0.781   8.336  0.00  0.00    -0.022 A 
ATOM     25  C   UNL     1       1.528  -2.081   8.806  0.00  0.00    +0.006 A 
ATOM     26  C   UNL     1       2.415  -2.464   9.794  0.00  0.00    +0.000 A 
ATOM     27  C   UNL     1       3.311  -1.548  10.312  0.00  0.00    +0.000 A 
ATOM     28  C   UNL     1       3.320  -0.248   9.842  0.00  0.00    +0.000 A 
ATOM     29  C   UNL     1       2.436   0.134   8.850  0.00  0.00    +0.006 A 
ENDBRANCH  23  24
ENDBRANCH  22  23
ENDBRANCH  21  22
ENDBRANCH  18  21
ENDBRANCH  17  18
ENDBRANCH  13  17
ENDBRANCH  12  13
ENDBRANCH   1  12
BRANCH  11  30
ATOM     30  C   UNL     1       4.565  -4.041  -1.294  0.00  0.00    +0.256 C 
BRANCH  30  31
ATOM     31  O   UNL     1       4.589  -5.260  -0.548  0.00  0.00    -0.486 OA
BRANCH  31  32
ATOM     32  C   UNL     1       5.802  -5.693  -0.112  0.00  0.00    +0.162 A 
ATOM     33  C   UNL     1       6.943  -4.958  -0.391  0.00  0.00    +0.049 A 
ATOM     34  C   UNL     1       8.176  -5.399   0.054  0.00  0.00    +0.004 A 
ATOM     35  C   UNL     1       8.273  -6.573   0.777  0.00  0.00    +0.004 A 
ATOM     36  C   UNL     1       7.139  -7.312   1.059  0.00  0.00    +0.049 A 
ATOM     37  C   UNL     1       5.900  -6.872   0.621  0.00  0.00    +0.161 A 
BRANCH  37  38
ATOM     38  O   UNL     1       4.782  -7.593   0.902  0.00  0.00    -0.491 OA
ATOM     39  C   UNL     1       4.958  -8.793   1.659  0.00  0.00    +0.277 C 
ENDBRANCH  37  38
ENDBRANCH  31  32
ENDBRANCH  30  31
ENDBRANCH  11  30
TORSDOF 14
