REMARK  Name = ZINC39653006
REMARK  9 active torsions:
REMARK  status: ('A' for Active; 'I' for Inactive)
REMARK    1  A    between atoms: C_1  and  O_2
REMARK    2  A    between atoms: O_2  and  C_3
REMARK    3  A    between atoms: C_5  and  C_11
REMARK    4  A    between atoms: C_7  and  O_9
REMARK    5  A    between atoms: O_9  and  C_10
REMARK    6  A    between atoms: C_11  and  C_12
REMARK    7  A    between atoms: C_12  and  N_13
REMARK    8  A    between atoms: C_14  and  C_16
REMARK    9  A    between atoms: C_27  and  C_29
REMARK                            x       y       z     vdW  Elec       q    Type
REMARK                         _______ _______ _______ _____ _____    ______ ____
ROOT
ATOM      1  C   UNL     1      -2.670  -8.332   2.619  0.00  0.00    +0.100 C 
ATOM      2  C   UNL     1      -4.035  -8.818   2.085  0.00  0.00    +0.121 C 
ATOM      3  N   UNL     1      -4.358 -10.006   2.909  0.00  0.00    -0.296 N 
ATOM      4  C   UNL     1      -3.912  -9.640   4.275  0.00  0.00    +0.115 C 
ATOM      5  C   UNL     1      -2.593  -8.872   4.057  0.00  0.00    -0.004 C 
ATOM      6  C   UNL     1      -2.484  -7.719   5.050  0.00  0.00    -0.010 C 
ATOM      7  C   UNL     1      -2.351  -8.282   6.468  0.00  0.00    -0.082 C 
ATOM      8  N   UNL     1      -1.159  -9.136   6.546  0.00  0.00    +0.379 N 
ATOM      9  C   UNL     1      -1.313 -10.293   5.656  0.00  0.00    -0.082 C 
ATOM     10  C   UNL     1      -1.403  -9.815   4.204  0.00  0.00    -0.010 C 
ATOM     11  C   UNL     1      -4.928 -11.160   2.509  0.00  0.00    +0.249 C 
ATOM     12  O   UNL     1      -5.131 -12.049   3.312  0.00  0.00    -0.270 OA
ATOM     13  H   UNL     1      -0.347  -8.605   6.268  0.00  0.00    -0.086 HD
ATOM     14  H   UNL     1      -1.039  -9.457   7.495  0.00  0.00    -0.086 HD
ENDROOT
BRANCH  11  15
ATOM     15  C   UNL     1      -5.307 -11.343   1.093  0.00  0.00    +0.073 A 
ATOM     16  C   UNL     1      -4.396 -11.895   0.188  0.00  0.00    +0.054 A 
ATOM     17  C   UNL     1      -4.758 -12.064  -1.134  0.00  0.00    +0.021 A 
ATOM     18  C   UNL     1      -6.018 -11.688  -1.563  0.00  0.00    +0.003 A 
ATOM     19  C   UNL     1      -6.925 -11.141  -0.674  0.00  0.00    +0.021 A 
ATOM     20  C   UNL     1      -6.580 -10.972   0.653  0.00  0.00    +0.054 A 
ATOM     21 CL   UNL     1      -7.723 -10.291   1.769  0.00  0.00    -0.083 Cl
ATOM     22 CL   UNL     1      -2.814 -12.367   0.724  0.00  0.00    -0.083 Cl
ENDBRANCH  11  15
BRANCH   1  24
ATOM     23  N   UNL     1      -1.430  -6.195   2.482  0.00  0.00    -0.315 N 
ATOM     24  C   UNL     1      -2.614  -6.825   2.621  0.00  0.00    +0.218 C 
ATOM     25  O   UNL     1      -3.633  -6.181   2.748  0.00  0.00    -0.275 OA
ATOM     26  H   UNL     1      -0.615  -6.711   2.381  0.00  0.00    +0.149 HD
BRANCH  23  27
ATOM     27  C   UNL     1      -1.376  -4.731   2.484  0.00  0.00    +0.109 C 
BRANCH  27  28
ATOM     28  C   UNL     1       0.074  -4.275   2.312  0.00  0.00    +0.054 C 
BRANCH  28  31
ATOM     29  C   UNL     1       0.352  -0.700   3.507  0.00  0.00    +0.124 A 
ATOM     30  C   UNL     1       0.300  -2.086   3.503  0.00  0.00    +0.049 A 
ATOM     31  C   UNL     1       0.131  -2.769   2.314  0.00  0.00    -0.039 A 
ATOM     32  C   UNL     1       0.014  -2.073   1.126  0.00  0.00    +0.049 A 
ATOM     33  C   UNL     1       0.065  -0.686   1.125  0.00  0.00    +0.124 A 
ATOM     34  C   UNL     1       0.229   0.001   2.318  0.00  0.00    +0.091 A 
BRANCH  29  36
ATOM     35  C   UNL     1       0.558   1.398   4.608  0.00  0.00    +0.277 C 
ATOM     36  O   UNL     1       0.519  -0.029   4.678  0.00  0.00    -0.495 OA
ENDBRANCH  29  36
BRANCH  33  37
ATOM     37  O   UNL     1      -0.050  -0.002  -0.044  0.00  0.00    -0.495 OA
ATOM     38  C   UNL     1       0.012   1.424   0.030  0.00  0.00    +0.277 C 
ENDBRANCH  33  37
ENDBRANCH  28  31
ENDBRANCH  27  28
ENDBRANCH  23  27
ENDBRANCH   1  24
TORSDOF 7
