REMARK  Name = ZINC10188475
REMARK  9 active torsions:
REMARK  status: ('A' for Active; 'I' for Inactive)
REMARK    1  A    between atoms: C_1  and  N_2
REMARK    2  A    between atoms: N_2  and  C_3
REMARK    3  A    between atoms: N_2  and  C_4
REMARK    4  A    between atoms: C_7  and  C_10
REMARK    5  A    between atoms: C_10  and  C_12
REMARK    6  A    between atoms: C_10  and  N_25
REMARK    7  A    between atoms: C_12  and  N_13
REMARK    8  A    between atoms: C_14  and  C_16
REMARK    9  A    between atoms: N_18  and  C_19
REMARK                            x       y       z     vdW  Elec       q    Type
REMARK                         _______ _______ _______ _____ _____    ______ ____
ROOT
ATOM      1  C   UNL     1      -0.912   1.268  -1.472  0.00  0.00    -0.020 C 
ENDROOT
BRANCH   1   2
ATOM      2  N   UNL     1      -2.325   1.085  -1.829  0.00  0.00    +0.388 N 
ATOM      3  C   UNL     1      -2.773  -0.283  -1.525  0.00  0.00    -0.073 C 
ATOM      4  C   UNL     1      -4.301  -0.314  -1.563  0.00  0.00    +0.017 C 
ATOM      5  C   UNL     1      -4.796   0.310  -2.843  0.00  0.00    -0.048 A 
ATOM      6  C   UNL     1      -6.104   0.067  -3.234  0.00  0.00    +0.004 A 
ATOM      7  C   UNL     1      -6.599   0.622  -4.398  0.00  0.00    +0.000 A 
ATOM      8  C   UNL     1      -5.786   1.424  -5.177  0.00  0.00    +0.000 A 
ATOM      9  C   UNL     1      -4.483   1.665  -4.789  0.00  0.00    +0.002 A 
ATOM     10  C   UNL     1      -3.984   1.107  -3.621  0.00  0.00    -0.061 A 
ATOM     11  C   UNL     1      -2.554   1.392  -3.244  0.00  0.00    -0.042 C 
ATOM     12  H   UNL     1      -2.916   1.790  -1.224  0.00  0.00    -0.080 HD
ENDBRANCH   1   2
BRANCH   1  16
ATOM     13  C   UNL     1       1.540   0.350  -4.850  0.00  0.00    +0.029 A 
ATOM     14  C   UNL     1       1.678   1.570  -4.201  0.00  0.00    +0.023 A 
ATOM     15  C   UNL     1       0.884   1.864  -3.110  0.00  0.00    +0.004 A 
ATOM     16  C   UNL     1      -0.048   0.945  -2.663  0.00  0.00    -0.059 A 
ATOM     17  C   UNL     1      -0.184  -0.273  -3.304  0.00  0.00    +0.004 A 
ATOM     18  C   UNL     1       0.603  -0.571  -4.399  0.00  0.00    +0.023 A 
BRANCH  13  20
ATOM     19  C   UNL     1       3.416   0.964  -6.349  0.00  0.00    +0.129 C 
ATOM     20  N   UNL     1       2.341   0.050  -5.954  0.00  0.00    -0.336 N 
ATOM     21  C   UNL     1       2.108  -1.179  -6.716  0.00  0.00    +0.129 C 
ENDBRANCH  13  20
ENDBRANCH   1  16
BRANCH   1  22
ATOM     22  C   UNL     1      -0.554   0.336  -0.313  0.00  0.00    +0.094 C 
BRANCH  22  23
ATOM     23  N   UNL     1      -1.481   0.560   0.799  0.00  0.00    -0.309 N 
ATOM     24  C   UNL     1      -1.297  -0.082   1.969  0.00  0.00    +0.299 C 
ATOM     25  O   UNL     1      -0.363  -0.846   2.102  0.00  0.00    -0.265 OA
ATOM     26  H   UNL     1      -2.327   1.252   0.678  0.00  0.00    +0.149 HD
BRANCH  24  27
ATOM     27  C   UNL     1      -2.242   0.147   3.103  0.00  0.00    +0.303 C 
ATOM     28  O   UNL     1      -3.176   0.911   2.970  0.00  0.00    -0.265 OA
ATOM     29  N   UNL     1      -2.058  -0.495   4.274  0.00  0.00    -0.278 N 
ATOM     30  H   UNL     1      -1.161  -1.114   4.426  0.00  0.00    +0.155 HD
BRANCH  29  31
ATOM     31  C   UNL     1      -3.005  -0.374   5.293  0.00  0.00    +0.034 A 
ATOM     32  C   UNL     1      -2.603  -0.389   6.623  0.00  0.00    +0.023 A 
ATOM     33  C   UNL     1      -3.542  -0.264   7.628  0.00  0.00    +0.002 A 
ATOM     34  C   UNL     1      -4.882  -0.135   7.313  0.00  0.00    +0.000 A 
ATOM     35  C   UNL     1      -5.287  -0.125   5.990  0.00  0.00    +0.002 A 
ATOM     36  C   UNL     1      -4.353  -0.244   4.980  0.00  0.00    +0.023 A 
ENDBRANCH  29  31
ENDBRANCH  24  27
ENDBRANCH  22  23
ENDBRANCH   1  22
TORSDOF 7
