REMARK  Name = ZINC36316425
REMARK  20 active torsions:
REMARK  status: ('A' for Active; 'I' for Inactive)
REMARK    1  A    between atoms: C_1  and  C_2
REMARK    2  A    between atoms: C_2  and  C_3
REMARK    3  A    between atoms: C_3  and  N_4
REMARK    4  A    between atoms: N_4  and  C_5
REMARK    5  A    between atoms: N_4  and  C_28
REMARK    6  A    between atoms: C_5  and  C_6
REMARK    7  A    between atoms: C_7  and  C_26
REMARK    8  A    between atoms: N_9  and  C_20
REMARK    9  A    between atoms: C_10  and  O_11
REMARK   10  A    between atoms: O_11  and  C_12
REMARK   11  A    between atoms: C_15  and  O_18
REMARK   12  A    between atoms: O_18  and  C_19
REMARK   13  A    between atoms: C_26  and  C_27
REMARK   14  A    between atoms: C_28  and  C_29
REMARK   15  A    between atoms: C_29  and  C_31
REMARK   16  A    between atoms: C_29  and  O_36
REMARK   17  A    between atoms: C_31  and  O_32
REMARK   18  A    between atoms: O_32  and  C_33
REMARK   19  A    between atoms: C_33  and  C_34
REMARK   20  A    between atoms: C_33  and  C_35
REMARK                            x       y       z     vdW  Elec       q    Type
REMARK                         _______ _______ _______ _____ _____    ______ ____
ROOT
ATOM      1  C   UNL     1       0.735  -1.562   3.831  0.00  0.00    +0.021 A 
ATOM      2  C   UNL     1       0.849  -0.219   4.201  0.00  0.00    +0.068 A 
ATOM      3  N   UNL     1       0.008   0.014   5.177  0.00  0.00    -0.168 NA
ATOM      4  N   UNL     1      -0.674  -1.175   5.466  0.00  0.00    -0.200 N 
ATOM      5  C   UNL     1      -0.213  -2.134   4.620  0.00  0.00    +0.225 A 
ENDROOT
BRANCH   4   6
ATOM      6  C   UNL     1      -1.658  -1.344   6.449  0.00  0.00    +0.069 A 
ATOM      7  C   UNL     1      -2.750  -2.166   6.206  0.00  0.00    +0.028 A 
ATOM      8  C   UNL     1      -3.718  -2.331   7.177  0.00  0.00    +0.002 A 
ATOM      9  C   UNL     1      -3.601  -1.678   8.390  0.00  0.00    +0.000 A 
ATOM     10  C   UNL     1      -2.515  -0.858   8.635  0.00  0.00    +0.002 A 
ATOM     11  C   UNL     1      -1.540  -0.694   7.671  0.00  0.00    +0.028 A 
ENDBRANCH   4   6
BRANCH   2  12
ATOM     12  C   UNL     1       1.780   0.790   3.581  0.00  0.00    +0.054 C 
ATOM     13  C   UNL     1       1.038   1.569   2.493  0.00  0.00    +0.010 C 
ENDBRANCH   2  12
BRANCH   1  14
ATOM     14  C   UNL     1       1.521  -2.253   2.745  0.00  0.00    -0.036 C 
BRANCH  14  15
ATOM     15  N   UNL     1       2.828  -2.664   3.273  0.00  0.00    +0.384 N 
ATOM     16  H   UNL     1       3.287  -1.869   3.694  0.00  0.00    -0.081 HD
BRANCH  15  17
ATOM     17  C   UNL     1       2.640  -3.712   4.285  0.00  0.00    -0.079 C 
BRANCH  17  19
ATOM     18  C   UNL     1       1.855  -6.051   4.678  0.00  0.00    +0.002 C 
ATOM     19  C   UNL     1       2.067  -4.965   3.621  0.00  0.00    -0.022 C 
ENDBRANCH  17  19
ENDBRANCH  15  17
BRANCH  15  20
ATOM     20  C   UNL     1       3.657  -3.185   2.178  0.00  0.00    -0.044 C 
BRANCH  20  21
ATOM     21  C   UNL     1       5.077  -3.438   2.689  0.00  0.00    +0.124 C 
BRANCH  21  22
ATOM     22  O   UNL     1       5.061  -4.518   3.625  0.00  0.00    -0.391 OA
ATOM     23  H   UNL     1       4.688  -5.338   3.273  0.00  0.00    +0.210 HD
ENDBRANCH  21  22
BRANCH  21  24
ATOM     24  C   UNL     1       5.986  -3.798   1.511  0.00  0.00    +0.189 C 
BRANCH  24  25
ATOM     25  O   UNL     1       7.333  -3.920   1.970  0.00  0.00    -0.375 OA
BRANCH  25  26
ATOM     26  C   UNL     1       8.269  -4.256   0.943  0.00  0.00    +0.112 C 
ATOM     27  C   UNL     1       8.819  -2.974   0.316  0.00  0.00    +0.037 C 
ATOM     28  C   UNL     1       9.420  -5.064   1.546  0.00  0.00    +0.037 C 
ENDBRANCH  25  26
ENDBRANCH  24  25
ENDBRANCH  21  24
ENDBRANCH  20  21
ENDBRANCH  15  20
ENDBRANCH  14  15
ENDBRANCH   1  14
BRANCH   5  29
ATOM     29  O   UNL     1      -0.623  -3.427   4.573  0.00  0.00    -0.438 OA
BRANCH  29  30
ATOM     30  C   UNL     1      -1.609  -3.753   3.696  0.00  0.00    +0.131 A 
ATOM     31  C   UNL     1      -2.086  -2.803   2.804  0.00  0.00    +0.050 A 
ATOM     32  C   UNL     1      -3.088  -3.134   1.913  0.00  0.00    +0.049 A 
ATOM     33  C   UNL     1      -3.618  -4.416   1.910  0.00  0.00    +0.120 A 
ATOM     34  C   UNL     1      -3.142  -5.366   2.802  0.00  0.00    +0.049 A 
ATOM     35  C   UNL     1      -2.135  -5.037   3.688  0.00  0.00    +0.050 A 
BRANCH  33  36
ATOM     36  O   UNL     1      -4.605  -4.742   1.033  0.00  0.00    -0.495 OA
ATOM     37  C   UNL     1      -5.104  -6.080   1.085  0.00  0.00    +0.277 C 
ENDBRANCH  33  36
ENDBRANCH  29  30
ENDBRANCH   5  29
TORSDOF 15
