REMARK  Name = ZINC03088084
REMARK  11 active torsions:
REMARK  status: ('A' for Active; 'I' for Inactive)
REMARK    1  A    between atoms: C_1  and  C_2
REMARK    2  A    between atoms: C_2  and  O_3
REMARK    3  A    between atoms: O_3  and  C_4
REMARK    4  A    between atoms: C_4  and  C_6
REMARK    5  A    between atoms: C_7  and  C_22
REMARK    6  A    between atoms: C_9  and  N_21
REMARK    7  A    between atoms: C_10  and  C_19
REMARK    8  A    between atoms: C_11  and  C_13
REMARK    9  A    between atoms: C_22  and  S_23
REMARK   10  A    between atoms: S_23  and  C_24
REMARK   11  A    between atoms: C_25  and  C_33
REMARK                            x       y       z     vdW  Elec       q    Type
REMARK                         _______ _______ _______ _____ _____    ______ ____
ROOT
ATOM      1  C   UNL     1       1.331  -2.340  -2.532  0.00  0.00    +0.088 C 
ATOM      2  C   UNL     1       1.609  -3.650  -2.580  0.00  0.00    +0.128 C 
ATOM      3  O   UNL     1       2.315  -4.189  -3.586  0.00  0.00    -0.444 OA
ATOM      4  C   UNL     1       3.076  -3.401  -4.369  0.00  0.00    +0.198 C 
ATOM      5  C   UNL     1       2.881  -2.061  -4.426  0.00  0.00    +0.098 C 
ATOM      6  C   UNL     1       1.795  -1.405  -3.614  0.00  0.00    +0.105 C 
ENDROOT
BRANCH   6   7
ATOM      7  C   UNL     1       0.633  -1.060  -4.510  0.00  0.00    -0.034 A 
ATOM      8  C   UNL     1      -0.036  -2.061  -5.189  0.00  0.00    +0.004 A 
ATOM      9  C   UNL     1      -1.102  -1.744  -6.011  0.00  0.00    +0.000 A 
ATOM     10  C   UNL     1      -1.498  -0.428  -6.153  0.00  0.00    +0.000 A 
ATOM     11  C   UNL     1      -0.829   0.573  -5.473  0.00  0.00    +0.000 A 
ATOM     12  C   UNL     1       0.234   0.256  -4.648  0.00  0.00    +0.004 A 
ENDBRANCH   6   7
BRANCH   4  13
ATOM     13  N   UNL     1       4.071  -3.968  -5.126  0.00  0.00    -0.328 N 
ATOM     14  H   UNL     1       4.219  -4.926  -5.093  0.00  0.00    +0.145 HD
ATOM     15  H   UNL     1       4.625  -3.410  -5.694  0.00  0.00    +0.145 HD
ENDBRANCH   4  13
BRANCH   1  16
ATOM     16  C   UNL     1       0.580  -1.828  -1.445  0.00  0.00    +0.339 C 
ATOM     17  O   UNL     1       1.145  -1.257  -0.531  0.00  0.00    -0.245 OA
BRANCH  16  18
ATOM     18  O   UNL     1      -0.761  -1.974  -1.423  0.00  0.00    -0.462 OA
BRANCH  18  20
ATOM     19  C   UNL     1      -2.954  -1.692  -0.447  0.00  0.00    +0.048 C 
ATOM     20  C   UNL     1      -1.454  -1.433  -0.296  0.00  0.00    +0.229 C 
ENDBRANCH  18  20
ENDBRANCH  16  18
ENDBRANCH   1  16
BRANCH   5  21
ATOM     21  C   UNL     1       3.715  -1.261  -5.272  0.00  0.00    +0.101 C 
ATOM     22  N   UNL     1       4.376  -0.626  -5.943  0.00  0.00    -0.191 NA
ENDBRANCH   5  21
BRANCH   2  23
ATOM     23  C   UNL     1       1.115  -4.544  -1.472  0.00  0.00    +0.150 C 
BRANCH  23  24
ATOM     24  S   UNL     1      -0.304  -5.508  -2.061  0.00  0.00    -0.097 S 
BRANCH  24  25
ATOM     25  C   UNL     1      -0.759  -6.489  -0.669  0.00  0.00    +0.115 A 
ATOM     26  C   UNL     1      -1.842  -7.382  -0.767  0.00  0.00    +0.084 A 
ATOM     27  C   UNL     1      -2.180  -8.148   0.353  0.00  0.00    +0.027 A 
ATOM     28  C   UNL     1      -1.435  -7.995   1.510  0.00  0.00    -0.025 A 
ATOM     29  C   UNL     1      -0.383  -7.096   1.534  0.00  0.00    +0.046 A 
ATOM     30  N   UNL     1      -0.078  -6.386   0.459  0.00  0.00    -0.244 NA
ATOM     31  C   UNL     1       0.269  -7.115   2.902  0.00  0.00    +0.056 C 
ATOM     32  C   UNL     1      -0.763  -7.786   3.833  0.00  0.00    +0.011 C 
ATOM     33  C   UNL     1      -1.562  -8.674   2.856  0.00  0.00    +0.037 C 
BRANCH  26  34
ATOM     34  C   UNL     1      -2.581  -7.504  -1.987  0.00  0.00    +0.102 C 
ATOM     35  N   UNL     1      -3.168  -7.601  -2.955  0.00  0.00    -0.191 NA
ENDBRANCH  26  34
ENDBRANCH  24  25
ENDBRANCH  23  24
ENDBRANCH   2  23
TORSDOF 10
