REMARK  Name = ZINC64384429
REMARK  6 active torsions:
REMARK  status: ('A' for Active; 'I' for Inactive)
REMARK    1  A    between atoms: C_1  and  C_2
REMARK    2  A    between atoms: C_2  and  C_3
REMARK    3  A    between atoms: C_2  and  N_10
REMARK    4  A    between atoms: C_11  and  C_13
REMARK    5  A    between atoms: N_15  and  N_16
REMARK    6  A    between atoms: N_16  and  C_17
REMARK                            x       y       z     vdW  Elec       q    Type
REMARK                         _______ _______ _______ _____ _____    ______ ____
ROOT
ATOM      1  C   UNL     1       0.774  -1.129   3.566  0.00  0.00    +0.315 C 
ATOM      2  O   UNL     1       1.955  -1.401   3.499  0.00  0.00    -0.264 OA
ATOM      3  N   UNL     1       0.115  -1.273   4.733  0.00  0.00    -0.229 N 
ATOM      4  H   UNL     1      -0.829  -1.055   4.787  0.00  0.00    +0.173 HD
ENDROOT
BRANCH   1   6
ATOM      5  N   UNL     1       0.711  -0.489   1.189  0.00  0.00    -0.301 N 
ATOM      6  C   UNL     1       0.051  -0.633   2.355  0.00  0.00    +0.301 C 
ATOM      7  O   UNL     1      -1.129  -0.361   2.423  0.00  0.00    -0.265 OA
ATOM      8  H   UNL     1       1.654  -0.707   1.135  0.00  0.00    +0.150 HD
BRANCH   5  10
ATOM      9  C   UNL     1      -0.019   1.526   0.010  0.00  0.00    +0.033 C 
ATOM     10  C   UNL     1       0.002  -0.004   0.002  0.00  0.00    +0.101 C 
BRANCH  10  11
ATOM     11  C   UNL     1       0.707  -0.490  -1.238  0.00  0.00    -0.026 A 
ATOM     12  C   UNL     1       2.089  -0.511  -1.284  0.00  0.00    +0.005 A 
ATOM     13  C   UNL     1       2.737  -0.956  -2.421  0.00  0.00    +0.002 A 
ATOM     14  C   UNL     1       2.003  -1.381  -3.513  0.00  0.00    +0.020 A 
ATOM     15  C   UNL     1       0.621  -1.361  -3.467  0.00  0.00    +0.041 A 
ATOM     16  C   UNL     1      -0.027  -0.920  -2.327  0.00  0.00    +0.025 A 
ATOM     17 CL   UNL     1      -0.301  -1.894  -4.838  0.00  0.00    -0.084 Cl
ENDBRANCH  10  11
ENDBRANCH   5  10
ENDBRANCH   1   6
BRANCH   3  18
ATOM     18  N   UNL     1       0.792  -1.737   5.868  0.00  0.00    -0.263 N 
ATOM     19  H   UNL     1       1.736  -1.954   5.814  0.00  0.00    +0.170 HD
BRANCH  18  20
ATOM     20  C   UNL     1       0.108  -1.886   7.078  0.00  0.00    +0.063 A 
ATOM     21  C   UNL     1      -1.244  -1.581   7.155  0.00  0.00    +0.027 A 
ATOM     22  C   UNL     1      -1.918  -1.729   8.352  0.00  0.00    +0.022 A 
ATOM     23  C   UNL     1      -1.246  -2.182   9.474  0.00  0.00    +0.042 A 
ATOM     24  C   UNL     1       0.101  -2.487   9.401  0.00  0.00    +0.042 A 
ATOM     25  C   UNL     1       0.779  -2.346   8.205  0.00  0.00    +0.065 A 
ATOM     26 CL   UNL     1       2.468  -2.737   8.111  0.00  0.00    -0.082 Cl
ATOM     27 CL   UNL     1      -2.096  -2.366  10.976  0.00  0.00    -0.083 Cl
ENDBRANCH  18  20
ENDBRANCH   3  18
TORSDOF 5
