REMARK  Name = ZINC38965765
REMARK  6 active torsions:
REMARK  status: ('A' for Active; 'I' for Inactive)
REMARK    1  A    between atoms: C_4  and  C_7
REMARK    2  A    between atoms: C_7  and  C_8
REMARK    3  A    between atoms: C_8  and  N_9
REMARK    4  A    between atoms: N_9  and  C_10
REMARK    5  A    between atoms: N_13  and  S_14
REMARK    6  A    between atoms: S_14  and  C_17
REMARK                            x       y       z     vdW  Elec       q    Type
REMARK                         _______ _______ _______ _____ _____    ______ ____
ROOT
ATOM      1  C   UNL     1       5.927  -1.944   2.747  0.00  0.00    +0.219 C 
ATOM      2  C   UNL     1       7.372  -1.506   2.827  0.00  0.00    +0.188 C 
ATOM      3  N   UNL     1       7.706  -0.279   2.555  0.00  0.00    -0.110 NA
ATOM      4  N   UNL     1       8.306  -2.403   3.183  0.00  0.00    -0.226 NA
ATOM      5  C   UNL     1       7.993  -3.651   3.464  0.00  0.00    +0.089 A 
ATOM      6  C   UNL     1       9.006  -4.571   3.836  0.00  0.00    +0.030 A 
ATOM      7  C   UNL     1       8.691  -5.853   4.125  0.00  0.00    +0.002 A 
ATOM      8  C   UNL     1       7.375  -6.341   4.075  0.00  0.00    +0.002 A 
ATOM      9  C   UNL     1       6.335  -5.549   3.732  0.00  0.00    +0.027 A 
ATOM     10  C   UNL     1       6.594  -4.140   3.403  0.00  0.00    +0.063 A 
ATOM     11  N   UNL     1       5.616  -3.346   3.067  0.00  0.00    -0.362 N 
ATOM     12  H   UNL     1       4.704  -3.673   3.030  0.00  0.00    +0.162 HD
ENDROOT
BRANCH   3  13
ATOM     13  S   UNL     1       9.292   0.187   2.646  0.00  0.00    +0.100 S 
ATOM     14  O   UNL     1       9.663   0.100   4.015  0.00  0.00    -0.146 OA
ATOM     15  O   UNL     1       9.982  -0.517   1.623  0.00  0.00    -0.146 OA
BRANCH  13  16
ATOM     16  C   UNL     1       9.359   1.894   2.215  0.00  0.00    +0.114 A 
ATOM     17  C   UNL     1       9.532   2.267   0.895  0.00  0.00    +0.029 A 
ATOM     18  C   UNL     1       9.585   3.606   0.555  0.00  0.00    +0.003 A 
ATOM     19  C   UNL     1       9.464   4.573   1.536  0.00  0.00    +0.020 A 
ATOM     20  C   UNL     1       9.290   4.201   2.857  0.00  0.00    +0.043 A 
ATOM     21  C   UNL     1       9.232   2.860   3.195  0.00  0.00    +0.049 A 
ATOM     22 CL   UNL     1       9.138   5.414   4.089  0.00  0.00    -0.083 Cl
ENDBRANCH  13  16
ENDBRANCH   3  13
BRANCH   1  23
ATOM     23  N   UNL     1       5.453  -1.680   1.382  0.00  0.00    -0.290 NA
ATOM     24  H   UNL     1       5.382  -2.536   0.852  0.00  0.00    +0.124 HD
BRANCH  23  25
ATOM     25  C   UNL     1       4.171  -0.963   1.399  0.00  0.00    +0.088 C 
BRANCH  25  26
ATOM     26  C   UNL     1       3.711  -0.707  -0.038  0.00  0.00    +0.050 C 
BRANCH  26  30
ATOM     27  C   UNL     1      -0.017   1.378   0.010  0.00  0.00    +0.000 A 
ATOM     28  C   UNL     1       1.171   2.086   0.002  0.00  0.00    +0.000 A 
ATOM     29  C   UNL     1       2.377   1.411  -0.013  0.00  0.00    +0.003 A 
ATOM     30  C   UNL     1       2.396   0.029  -0.020  0.00  0.00    -0.046 A 
ATOM     31  C   UNL     1       1.208  -0.679  -0.012  0.00  0.00    +0.003 A 
ATOM     32  C   UNL     1       0.002  -0.004   0.002  0.00  0.00    +0.000 A 
ENDBRANCH  26  30
ENDBRANCH  25  26
ENDBRANCH  23  25
ENDBRANCH   1  23
TORSDOF 6
