REMARK  Name = ZINC21254775
REMARK  7 active torsions:
REMARK  status: ('A' for Active; 'I' for Inactive)
REMARK    1  A    between atoms: C_1  and  C_2
REMARK    2  A    between atoms: C_2  and  C_3
REMARK    3  A    between atoms: C_2  and  C_4
REMARK    4  A    between atoms: C_2  and  C_5
REMARK    5  A    between atoms: C_8  and  C_11
REMARK    6  A    between atoms: C_16  and  C_26
REMARK    7  A    between atoms: C_31  and  N_32
REMARK                            x       y       z     vdW  Elec       q    Type
REMARK                         _______ _______ _______ _____ _____    ______ ____
ROOT
ATOM      1  C   UNL     1      -2.322   1.396   0.825  0.00  0.00    +0.032 C 
ATOM      2  C   UNL     1      -1.259   2.159   0.037  0.00  0.00    +0.059 C 
ATOM      3  C   UNL     1       0.038   1.367   0.016  0.00  0.00    +0.017 C 
ATOM      4  C   UNL     1       0.016   0.023   0.018  0.00  0.00    +0.036 C 
ATOM      5  C   UNL     1       1.223  -0.882  -0.010  0.00  0.00    +0.138 C 
ATOM      6  N   UNL     1       2.472  -0.212  -0.304  0.00  0.00    -0.331 N 
ATOM      7  C   UNL     1       2.999   0.738   0.569  0.00  0.00    +0.049 A 
ATOM      8  C   UNL     1       4.198   0.528   1.232  0.00  0.00    +0.025 A 
ATOM      9  C   UNL     1       4.657   1.480   2.125  0.00  0.00    +0.002 A 
ATOM     10  C   UNL     1       3.926   2.630   2.360  0.00  0.00    +0.002 A 
ATOM     11  C   UNL     1       2.737   2.852   1.686  0.00  0.00    +0.025 A 
ATOM     12  C   UNL     1       2.288   1.911   0.776  0.00  0.00    +0.052 A 
ATOM     13  N   UNL     1       1.166   2.121  -0.017  0.00  0.00    -0.316 N 
ATOM     14  C   UNL     1      -1.218  -0.668   0.060  0.00  0.00    +0.163 C 
ATOM     15  O   UNL     1      -1.210  -1.883   0.036  0.00  0.00    -0.292 OA
ATOM     16  C   UNL     1      -2.535   0.044   0.134  0.00  0.00    +0.088 C 
ATOM     17  H   UNL     1       3.019  -0.449  -1.228  0.00  0.00    +0.147 HD
ATOM     18  H   UNL     1       1.238   2.972  -0.711  0.00  0.00    +0.152 HD
ENDROOT
BRANCH   1  22
ATOM     19  C   UNL     1      -5.978   3.605   0.844  0.00  0.00    -0.042 A 
ATOM     20  C   UNL     1      -5.367   3.270   2.038  0.00  0.00    +0.004 A 
ATOM     21  C   UNL     1      -4.183   2.556   2.032  0.00  0.00    +0.004 A 
ATOM     22  C   UNL     1      -3.612   2.175   0.832  0.00  0.00    -0.043 A 
ATOM     23  C   UNL     1      -4.221   2.514  -0.362  0.00  0.00    +0.004 A 
ATOM     24  C   UNL     1      -5.406   3.225  -0.355  0.00  0.00    +0.004 A 
BRANCH  19  26
ATOM     25  C   UNL     1      -7.047   5.731   1.544  0.00  0.00    +0.015 C 
ATOM     26  C   UNL     1      -7.268   4.384   0.851  0.00  0.00    -0.013 C 
ATOM     27  C   UNL     1      -7.728   4.621  -0.589  0.00  0.00    +0.015 C 
ATOM     28  C   UNL     1      -8.338   3.592   1.605  0.00  0.00    +0.015 C 
ENDBRANCH  19  26
ENDBRANCH   1  22
BRANCH   5  29
ATOM     29  C   UNL     1       1.347  -1.554   1.333  0.00  0.00    +0.007 A 
ATOM     30  C   UNL     1       0.682  -1.036   2.429  0.00  0.00    +0.008 A 
ATOM     31  C   UNL     1       0.795  -1.653   3.661  0.00  0.00    +0.000 A 
ATOM     32  C   UNL     1       1.573  -2.788   3.797  0.00  0.00    +0.002 A 
ATOM     33  C   UNL     1       2.238  -3.305   2.701  0.00  0.00    +0.033 A 
ATOM     34  C   UNL     1       2.121  -2.692   1.468  0.00  0.00    +0.131 A 
BRANCH  34  35
ATOM     35  N   UNL     1       2.828  -3.250   0.293  0.00  0.00    +0.057 N 
ATOM     36  O   UNL     1       3.429  -4.305   0.389  0.00  0.00    -0.126 OA
ATOM     37  O   UNL     1       2.808  -2.654  -0.769  0.00  0.00    -0.126 OA
ENDBRANCH  34  35
ENDBRANCH   5  29
TORSDOF 4
