REMARK  Name = ZINC16689291
REMARK  10 active torsions:
REMARK  status: ('A' for Active; 'I' for Inactive)
REMARK    1  A    between atoms: C_1  and  C_2
REMARK    2  A    between atoms: C_2  and  O_3
REMARK    3  A    between atoms: O_3  and  C_4
REMARK    4  A    between atoms: C_6  and  C_23
REMARK    5  A    between atoms: C_9  and  O_10
REMARK    6  A    between atoms: O_10  and  C_11
REMARK    7  A    between atoms: C_14  and  N_20
REMARK    8  A    between atoms: C_16  and  N_17
REMARK    9  A    between atoms: N_24  and  N_25
REMARK   10  A    between atoms: N_25  and  C_26
REMARK                            x       y       z     vdW  Elec       q    Type
REMARK                         _______ _______ _______ _____ _____    ______ ____
ROOT
ATOM      1  C   UNL     1       3.441   5.960  -0.212  0.00  0.00    +0.163 A 
ATOM      2  C   UNL     1       3.401   7.316  -0.310  0.00  0.00    +0.059 A 
ATOM      3  C   UNL     1       2.151   7.985  -0.296  0.00  0.00    -0.002 A 
ATOM      4  C   UNL     1       0.921   7.198  -0.174  0.00  0.00    +0.013 A 
ATOM      5  C   UNL     1       1.003   5.845  -0.083  0.00  0.00    +0.050 A 
ATOM      6  C   UNL     1       2.253   5.212  -0.095  0.00  0.00    +0.170 A 
ENDROOT
BRANCH   3   7
ATOM      7  C   UNL     1       2.093   9.379  -0.397  0.00  0.00    +0.138 C 
ATOM      8  N   UNL     1       0.908  10.002  -0.382  0.00  0.00    -0.190 NA
BRANCH   8   9
ATOM      9  N   UNL     1       0.854  11.287  -0.475  0.00  0.00    -0.232 N 
ATOM     10  H   UNL     1       1.672  11.803  -0.556  0.00  0.00    +0.175 HD
BRANCH   9  11
ATOM     11  C   UNL     1      -0.352  11.922  -0.460  0.00  0.00    +0.124 A 
ATOM     12  C   UNL     1      -1.539  11.192  -0.666  0.00  0.00    +0.187 A 
ATOM     13  C   UNL     1      -2.755  11.840  -0.643  0.00  0.00    +0.198 A 
ATOM     14  C   UNL     1      -2.812  13.215  -0.429  0.00  0.00    +0.199 A 
ATOM     15  C   UNL     1      -1.643  13.946  -0.230  0.00  0.00    +0.198 A 
ATOM     16  C   UNL     1      -0.418  13.312  -0.244  0.00  0.00    +0.187 A 
ATOM     17  F   UNL     1       0.714  14.022  -0.051  0.00  0.00    -0.200 F 
ATOM     18  F   UNL     1      -1.708  15.279  -0.023  0.00  0.00    -0.199 F 
ATOM     19  F   UNL     1      -4.008  13.844  -0.414  0.00  0.00    -0.199 F 
ATOM     20  F   UNL     1      -3.895  11.140  -0.835  0.00  0.00    -0.199 F 
ATOM     21  F   UNL     1      -1.485   9.859  -0.880  0.00  0.00    -0.200 F 
ENDBRANCH   9  11
ENDBRANCH   8   9
ENDBRANCH   3   7
BRANCH   1  22
ATOM     22  O   UNL     1       4.640   5.321  -0.226  0.00  0.00    -0.489 OA
BRANCH  22  24
ATOM     23  C   UNL     1       7.052   5.245  -0.344  0.00  0.00    +0.048 C 
ATOM     24  C   UNL     1       5.808   6.135  -0.346  0.00  0.00    +0.226 C 
ENDBRANCH  22  24
ENDBRANCH   1  22
BRANCH   6  25
ATOM     25  O   UNL     1       2.320   3.867   0.001  0.00  0.00    -0.450 OA
BRANCH  25  26
ATOM     26  C   UNL     1       1.155   3.170  -0.004  0.00  0.00    +0.159 A 
ATOM     27  C   UNL     1       0.535   2.840   1.195  0.00  0.00    +0.051 A 
ATOM     28  C   UNL     1      -0.649   2.130   1.186  0.00  0.00    +0.036 A 
ATOM     29  C   UNL     1      -1.221   1.752  -0.015  0.00  0.00    +0.129 A 
ATOM     30  C   UNL     1      -0.604   2.073  -1.210  0.00  0.00    +0.069 A 
ATOM     31  C   UNL     1       0.581   2.783  -1.208  0.00  0.00    +0.170 A 
BRANCH  31  32
ATOM     32  N   UNL     1       1.238   3.132  -2.488  0.00  0.00    +0.060 N 
ATOM     33  O   UNL     1       0.693   2.764  -3.630  0.00  0.00    -0.126 OA
ATOM     34  O   UNL     1       2.368   3.809  -2.485  0.00  0.00    -0.126 OA
ENDBRANCH  31  32
BRANCH  29  35
ATOM     35  N   UNL     1      -2.493   0.996  -0.021  0.00  0.00    +0.057 N 
ATOM     36  O   UNL     1      -3.037   0.630  -1.164  0.00  0.00    -0.126 OA
ATOM     37  O   UNL     1      -3.082   0.689   1.116  0.00  0.00    -0.126 OA
ENDBRANCH  29  35
ENDBRANCH  25  26
ENDBRANCH   6  25
TORSDOF 9
