REMARK  Name = ZINC16063150
REMARK  9 active torsions:
REMARK  status: ('A' for Active; 'I' for Inactive)
REMARK    1  A    between atoms: C_1  and  C_2
REMARK    2  A    between atoms: C_2  and  C_3
REMARK    3  A    between atoms: C_4  and  C_12
REMARK    4  A    between atoms: C_13  and  C_14
REMARK    5  A    between atoms: N_16  and  C_17
REMARK    6  A    between atoms: C_17  and  C_19
REMARK    7  A    between atoms: C_17  and  C_20
REMARK    8  A    between atoms: C_23  and  S_26
REMARK    9  A    between atoms: S_26  and  N_29
REMARK                            x       y       z     vdW  Elec       q    Type
REMARK                         _______ _______ _______ _____ _____    ______ ____
ROOT
ATOM      1  C   UNL     1      -4.600   4.938   5.448  0.00  0.00    +0.237 C 
ATOM      2  O   UNL     1      -5.250   4.185   6.150  0.00  0.00    -0.271 OA
ATOM      3  N   UNL     1      -3.522   4.478   4.784  0.00  0.00    -0.305 N 
ATOM      4  H   UNL     1      -3.004   5.079   4.225  0.00  0.00    +0.150 HD
ENDROOT
BRANCH   1   6
ATOM      5  C   UNL     1      -6.061   6.760   5.998  0.00  0.00    +0.017 C 
ATOM      6  C   UNL     1      -4.978   6.298   5.330  0.00  0.00    +0.068 C 
BRANCH   5   8
ATOM      7  C   UNL     1      -7.691   8.655   5.582  0.00  0.00    +0.113 A 
ATOM      8  C   UNL     1      -6.452   8.167   5.875  0.00  0.00    +0.024 A 
ATOM      9  C   UNL     1      -5.585   9.351   6.039  0.00  0.00    +0.028 A 
ATOM     10  C   UNL     1      -4.238   9.534   6.333  0.00  0.00    +0.012 A 
ATOM     11  C   UNL     1      -3.725  10.812   6.415  0.00  0.00    +0.001 A 
ATOM     12  C   UNL     1      -4.548  11.908   6.205  0.00  0.00    +0.004 A 
ATOM     13  C   UNL     1      -5.884  11.738   5.912  0.00  0.00    +0.047 A 
ATOM     14  C   UNL     1      -6.419  10.458   5.825  0.00  0.00    +0.136 A 
ATOM     15  O   UNL     1      -7.657   9.993   5.562  0.00  0.00    -0.459 OA
BRANCH   7  17
ATOM     16  C   UNL     1      -9.649   7.562   6.640  0.00  0.00    +0.012 C 
ATOM     17  C   UNL     1      -8.914   7.814   5.322  0.00  0.00    +0.071 C 
ENDBRANCH   7  17
ENDBRANCH   5   8
ENDBRANCH   1   6
BRANCH   3  18
ATOM     18  C   UNL     1      -3.131   3.072   4.906  0.00  0.00    +0.100 C 
ATOM     19  C   UNL     1      -2.259   2.891   6.150  0.00  0.00    +0.033 C 
BRANCH  18  20
ATOM     20  C   UNL     1      -2.353   2.659   3.683  0.00  0.00    -0.027 A 
ATOM     21  C   UNL     1      -2.559   1.412   3.122  0.00  0.00    +0.007 A 
ATOM     22  C   UNL     1      -1.846   1.033   2.000  0.00  0.00    +0.029 A 
ATOM     23  C   UNL     1      -0.927   1.900   1.439  0.00  0.00    +0.105 A 
ATOM     24  C   UNL     1      -0.717   3.145   2.004  0.00  0.00    +0.029 A 
ATOM     25  C   UNL     1      -1.435   3.526   3.122  0.00  0.00    +0.007 A 
BRANCH  23  26
ATOM     26  S   UNL     1      -0.017   1.417   0.010  0.00  0.00    +0.056 S 
ATOM     27  O   UNL     1       0.002  -0.004   0.002  0.00  0.00    -0.153 OA
ATOM     28  O   UNL     1       1.172   2.195   0.003  0.00  0.00    -0.153 OA
BRANCH  26  29
ATOM     29  N   UNL     1      -0.897   1.885  -1.312  0.00  0.00    -0.204 NA
ATOM     30  H   UNL     1      -1.201   1.223  -1.952  0.00  0.00    +0.144 HD
ATOM     31  H   UNL     1      -1.110   2.822  -1.446  0.00  0.00    +0.144 HD
ENDBRANCH  26  29
ENDBRANCH  23  26
ENDBRANCH  18  20
ENDBRANCH   3  18
TORSDOF 7
