REMARK  Name = ZINC49089000
REMARK  8 active torsions:
REMARK  status: ('A' for Active; 'I' for Inactive)
REMARK    1  A    between atoms: C_4  and  C_7
REMARK    2  A    between atoms: C_7  and  C_9
REMARK    3  A    between atoms: C_7  and  O_19
REMARK    4  A    between atoms: O_19  and  C_20
REMARK    5  A    between atoms: C_20  and  C_21
REMARK    6  A    between atoms: C_21  and  C_23
REMARK    7  A    between atoms: C_21  and  O_36
REMARK    8  A    between atoms: C_23  and  N_24
REMARK                            x       y       z     vdW  Elec       q    Type
REMARK                         _______ _______ _______ _____ _____    ______ ____
ROOT
ATOM      1  O   UNL     1       3.609  -1.891  -0.877  0.00  0.00    -0.365 OA
ENDROOT
BRANCH   1   2
ATOM      2  C   UNL     1       3.684  -0.766   0.002  0.00  0.00    +0.179 C 
BRANCH   2   3
ATOM      3  C   UNL     1       4.050  -1.235   1.387  0.00  0.00    -0.007 A 
ATOM      4  C   UNL     1       3.770  -2.510   1.774  0.00  0.00    +0.007 A 
ATOM      5  C   UNL     1       4.101  -2.962   3.050  0.00  0.00    +0.001 A 
ATOM      6  C   UNL     1       4.712  -2.141   3.947  0.00  0.00    +0.008 A 
ATOM      7  C   UNL     1       5.017  -0.818   3.584  0.00  0.00    -0.018 A 
ATOM      8  C   UNL     1       4.686  -0.361   2.284  0.00  0.00    -0.012 A 
ATOM      9  C   UNL     1       4.996   0.961   1.919  0.00  0.00    +0.009 A 
ATOM     10  C   UNL     1       5.613   1.780   2.814  0.00  0.00    +0.001 A 
ATOM     11  C   UNL     1       5.944   1.328   4.090  0.00  0.00    +0.001 A 
ATOM     12  C   UNL     1       5.647   0.059   4.483  0.00  0.00    +0.008 A 
ENDBRANCH   2   3
BRANCH   2  16
ATOM     13  C   UNL     1      -0.103   1.206   0.118  0.00  0.00    +0.000 A 
ATOM     14  C   UNL     1       1.062   1.948   0.101  0.00  0.00    +0.000 A 
ATOM     15  C   UNL     1       2.288   1.310   0.063  0.00  0.00    +0.006 A 
ATOM     16  C   UNL     1       2.348  -0.071   0.044  0.00  0.00    -0.014 A 
ATOM     17  C   UNL     1       1.182  -0.814   0.062  0.00  0.00    +0.006 A 
ATOM     18  C   UNL     1      -0.043  -0.175   0.098  0.00  0.00    +0.000 A 
ENDBRANCH   2  16
ENDBRANCH   1   2
BRANCH   1  19
ATOM     19  C   UNL     1       3.941  -1.591  -2.234  0.00  0.00    +0.193 C 
BRANCH  19  20
ATOM     20  C   UNL     1       3.827  -2.860  -3.080  0.00  0.00    +0.154 C 
BRANCH  20  21
ATOM     21  O   UNL     1       4.807  -3.808  -2.651  0.00  0.00    -0.388 OA
ATOM     22  H   UNL     1       5.718  -3.494  -2.729  0.00  0.00    +0.210 HD
ENDBRANCH  20  21
BRANCH  20  23
ATOM     23  C   UNL     1       4.061  -2.515  -4.552  0.00  0.00    +0.118 C 
BRANCH  23  24
ATOM     24  N   UNL     1       3.943  -3.733  -5.365  0.00  0.00    -0.297 NA
ATOM     25  C   UNL     1       4.604  -3.563  -6.666  0.00  0.00    +0.103 C 
ATOM     26  C   UNL     1       4.618  -4.904  -7.407  0.00  0.00    +0.122 C 
ATOM     27  N   UNL     1       3.241  -5.417  -7.471  0.00  0.00    -0.314 N 
ATOM     28  C   UNL     1       2.466  -5.488  -6.222  0.00  0.00    +0.122 C 
ATOM     29  C   UNL     1       2.537  -4.124  -5.528  0.00  0.00    +0.103 C 
ATOM     30  C   UNL     1       2.686  -5.825  -8.678  0.00  0.00    +0.099 A 
ATOM     31  C   UNL     1       3.481  -5.877  -9.819  0.00  0.00    +0.042 A 
ATOM     32  C   UNL     1       2.916  -6.285 -11.014  0.00  0.00    +0.005 A 
ATOM     33  C   UNL     1       1.571  -6.628 -11.028  0.00  0.00    +0.018 A 
ATOM     34  C   UNL     1       0.842  -6.553  -9.859  0.00  0.00    +0.084 A 
ATOM     35  N   UNL     1       1.408  -6.166  -8.731  0.00  0.00    -0.350 N 
ATOM     36  H   UNL     1       0.874  -6.126  -7.923  0.00  0.00    +0.166 HD
ENDBRANCH  23  24
ENDBRANCH  20  23
ENDBRANCH  19  20
ENDBRANCH   1  19
TORSDOF 8
