REMARK  Name = ZINC16448644
REMARK  9 active torsions:
REMARK  status: ('A' for Active; 'I' for Inactive)
REMARK    1  A    between atoms: C_1  and  C_2
REMARK    2  A    between atoms: C_6  and  N_8
REMARK    3  A    between atoms: C_17  and  C_21
REMARK    4  A    between atoms: C_17  and  N_25
REMARK    5  A    between atoms: C_26  and  C_28
REMARK    6  A    between atoms: C_31  and  C_34
REMARK    7  A    between atoms: C_34  and  C_35
REMARK    8  A    between atoms: C_34  and  C_36
REMARK    9  A    between atoms: C_34  and  C_37
REMARK                            x       y       z     vdW  Elec       q    Type
REMARK                         _______ _______ _______ _____ _____    ______ ____
ROOT
ATOM      1  N   UNL     1       2.305   1.345  -0.519  0.00  0.00    -0.277 N 
ATOM      2  C   UNL     1       0.991   1.754  -0.413  0.00  0.00    +0.123 A 
ATOM      3  C   UNL     1       0.740   3.076  -0.192  0.00  0.00    +0.096 A 
ATOM      4  C   UNL     1       1.800   3.985  -0.078  0.00  0.00    +0.260 A 
ATOM      5  O   UNL     1       1.579   5.168   0.119  0.00  0.00    -0.267 OA
ATOM      6  N   UNL     1       3.069   3.538  -0.188  0.00  0.00    -0.302 N 
ATOM      7  H   UNL     1       3.809   4.160  -0.110  0.00  0.00    +0.171 HD
ATOM      8  C   UNL     1       3.308   2.233  -0.406  0.00  0.00    +0.166 A 
ATOM      9  S   UNL     1       4.926   1.690  -0.544  0.00  0.00    -0.012 S 
ATOM     10  C   UNL     1      -0.761   3.225  -0.122  0.00  0.00    +0.240 C 
ATOM     11  C   UNL     1      -1.268   1.814  -0.340  0.00  0.00    +0.256 C 
ATOM     12  O   UNL     1      -2.425   1.454  -0.369  0.00  0.00    -0.272 OA
ATOM     13  N   UNL     1      -0.179   1.039  -0.493  0.00  0.00    -0.269 N 
ATOM     14  H   UNL     1      -0.216   0.082  -0.647  0.00  0.00    +0.156 HD
ENDROOT
BRANCH   1  20
ATOM     15  C   UNL     1       4.083  -2.166  -3.467  0.00  0.00    +0.044 C 
ATOM     16  C   UNL     1       3.457  -1.735  -2.166  0.00  0.00    -0.048 A 
ATOM     17  C   UNL     1       3.168  -2.675  -1.194  0.00  0.00    +0.003 A 
ATOM     18  C   UNL     1       2.593  -2.284   0.001  0.00  0.00    +0.002 A 
ATOM     19  C   UNL     1       2.306  -0.952   0.228  0.00  0.00    +0.026 A 
ATOM     20  C   UNL     1       2.595  -0.006  -0.746  0.00  0.00    +0.050 A 
ATOM     21  C   UNL     1       3.168  -0.403  -1.947  0.00  0.00    +0.029 A 
ENDBRANCH   1  20
BRANCH  10  22
ATOM     22  C   UNL     1      -1.187   3.749   1.251  0.00  0.00    +0.424 C 
ATOM     23  F   UNL     1      -0.695   5.047   1.428  0.00  0.00    -0.167 F 
ATOM     24  F   UNL     1      -2.584   3.765   1.331  0.00  0.00    -0.167 F 
ATOM     25  F   UNL     1      -0.672   2.915   2.249  0.00  0.00    -0.167 F 
ENDBRANCH  10  22
BRANCH  10  26
ATOM     26  N   UNL     1      -1.241   4.114  -1.183  0.00  0.00    -0.287 N 
ATOM     27  C   UNL     1      -1.098   3.759  -2.476  0.00  0.00    +0.245 C 
ATOM     28  O   UNL     1      -0.482   2.752  -2.765  0.00  0.00    -0.270 OA
ATOM     29  H   UNL     1      -1.662   4.958  -0.956  0.00  0.00    +0.151 HD
BRANCH  27  30
ATOM     30  C   UNL     1      -1.691   4.595  -3.542  0.00  0.00    +0.037 A 
ATOM     31  C   UNL     1      -2.404   5.749  -3.213  0.00  0.00    +0.013 A 
ATOM     32  C   UNL     1      -2.950   6.527  -4.213  0.00  0.00    +0.005 A 
ATOM     33  C   UNL     1      -2.801   6.160  -5.538  0.00  0.00    -0.042 A 
ATOM     34  C   UNL     1      -2.100   5.014  -5.871  0.00  0.00    +0.005 A 
ATOM     35  C   UNL     1      -1.545   4.230  -4.881  0.00  0.00    +0.013 A 
BRANCH  33  36
ATOM     36  C   UNL     1      -3.405   7.011  -6.625  0.00  0.00    -0.013 C 
ATOM     37  C   UNL     1      -4.410   6.180  -7.425  0.00  0.00    +0.015 C 
ATOM     38  C   UNL     1      -4.120   8.209  -5.996  0.00  0.00    +0.015 C 
ATOM     39  C   UNL     1      -2.299   7.509  -7.557  0.00  0.00    +0.015 C 
ENDBRANCH  33  36
ENDBRANCH  27  30
ENDBRANCH  10  26
TORSDOF 5
