REMARK  Name = ZINC42966881
REMARK  9 active torsions:
REMARK  status: ('A' for Active; 'I' for Inactive)
REMARK    1  A    between atoms: C_1  and  C_2
REMARK    2  A    between atoms: C_6  and  C_8
REMARK    3  A    between atoms: C_8  and  C_10
REMARK    4  A    between atoms: C_8  and  N_14
REMARK    5  A    between atoms: C_10  and  C_12
REMARK    6  A    between atoms: C_10  and  N_13
REMARK    7  A    between atoms: N_14  and  C_15
REMARK    8  A    between atoms: N_14  and  C_16
REMARK    9  A    between atoms: C_16  and  C_17
REMARK                            x       y       z     vdW  Elec       q    Type
REMARK                         _______ _______ _______ _____ _____    ______ ____
ROOT
ATOM      1  C   UNL     1       0.059  -2.858   2.494  0.00  0.00    +0.072 C 
ENDROOT
BRANCH   1   7
ATOM      2  C   UNL     1       0.027   1.070  -0.606  0.00  0.00    +0.044 C 
ATOM      3  C   UNL     1       0.052  -0.421  -0.389  0.00  0.00    -0.050 A 
ATOM      4  C   UNL     1       0.084  -1.277  -1.474  0.00  0.00    +0.003 A 
ATOM      5  C   UNL     1       0.106  -2.644  -1.275  0.00  0.00    +0.001 A 
ATOM      6  C   UNL     1       0.098  -3.156   0.010  0.00  0.00    +0.005 A 
ATOM      7  C   UNL     1       0.068  -2.300   1.095  0.00  0.00    -0.032 A 
ATOM      8  C   UNL     1       0.050  -0.932   0.895  0.00  0.00    +0.008 A 
ENDBRANCH   1   7
BRANCH   1   9
ATOM      9  C   UNL     1      -1.369  -3.251   2.877  0.00  0.00    -0.056 C 
ATOM     10  C   UNL     1      -1.854  -4.372   1.956  0.00  0.00    -0.012 C 
BRANCH   9  11
ATOM     11  N   UNL     1      -2.253  -2.086   2.737  0.00  0.00    +0.381 N 
ATOM     12  H   UNL     1      -3.195  -2.345   2.989  0.00  0.00    -0.090 HD
ATOM     13  H   UNL     1      -1.933  -1.347   3.345  0.00  0.00    -0.090 HD
ATOM     14  H   UNL     1      -2.237  -1.765   1.780  0.00  0.00    -0.090 HD
ENDBRANCH   9  11
ENDBRANCH   1   9
BRANCH   1  15
ATOM     15  N   UNL     1       0.926  -4.042   2.556  0.00  0.00    -0.296 NA
ATOM     16  C   UNL     1       0.838  -4.692   3.870  0.00  0.00    +0.105 C 
BRANCH  15  17
ATOM     17  C   UNL     1       2.316  -3.694   2.233  0.00  0.00    +0.119 C 
BRANCH  17  18
ATOM     18  C   UNL     1       3.124  -4.955   2.064  0.00  0.00    -0.033 A 
ATOM     19  C   UNL     1       3.757  -5.521   3.155  0.00  0.00    +0.006 A 
ATOM     20  C   UNL     1       4.497  -6.678   3.001  0.00  0.00    +0.015 A 
ATOM     21  C   UNL     1       4.605  -7.269   1.755  0.00  0.00    +0.018 A 
ATOM     22  C   UNL     1       3.971  -6.702   0.664  0.00  0.00    +0.015 A 
ATOM     23  C   UNL     1       3.227  -5.548   0.820  0.00  0.00    +0.006 A 
ATOM     24 BR   UNL     1       5.618  -8.852   1.543  0.00  0.00    -0.050 Br
ENDBRANCH  17  18
ENDBRANCH  15  17
ENDBRANCH   1  15
TORSDOF 6
