REMARK  Name = ZINC14472799
REMARK  4 active torsions:
REMARK  status: ('A' for Active; 'I' for Inactive)
REMARK    1  A    between atoms: C_4  and  C_10
REMARK    2  A    between atoms: C_6  and  N_7
REMARK    3  A    between atoms: C_21  and  S_26
REMARK    4  A    between atoms: S_26  and  N_29
REMARK                            x       y       z     vdW  Elec       q    Type
REMARK                         _______ _______ _______ _____ _____    ______ ____
ROOT
ATOM      1  C   UNL     1       3.773   5.563   6.145  0.00  0.00    +0.106 C 
ATOM      2  C   UNL     1       4.587   4.306   5.824  0.00  0.00    +0.029 C 
ATOM      3  C   UNL     1       6.084   4.641   6.094  0.00  0.00    +0.033 C 
ATOM      4  C   UNL     1       6.518   5.350   4.826  0.00  0.00    -0.030 C 
ATOM      5  C   UNL     1       5.722   5.042   3.832  0.00  0.00    -0.023 C 
ATOM      6  C   UNL     1       4.645   4.092   4.299  0.00  0.00    +0.049 C 
ATOM      7  C   UNL     1       3.341   4.367   3.621  0.00  0.00    -0.018 A 
ATOM      8  C   UNL     1       3.181   3.975   2.299  0.00  0.00    +0.034 A 
ATOM      9  C   UNL     1       1.993   4.207   1.637  0.00  0.00    +0.106 A 
ATOM     10  C   UNL     1       0.945   4.838   2.284  0.00  0.00    +0.030 A 
ATOM     11  C   UNL     1       1.090   5.227   3.601  0.00  0.00    +0.025 A 
ATOM     12  C   UNL     1       2.287   4.996   4.267  0.00  0.00    +0.031 A 
ATOM     13  N   UNL     1       2.422   5.405   5.598  0.00  0.00    -0.336 N 
ATOM     14  H   UNL     1       1.641   5.581   6.145  0.00  0.00    +0.147 HD
ENDROOT
BRANCH   1  18
ATOM     15  C   UNL     1       3.552   6.082  10.380  0.00  0.00    +0.034 A 
ATOM     16  C   UNL     1       3.242   7.134   9.538  0.00  0.00    +0.022 A 
ATOM     17  C   UNL     1       3.314   6.967   8.167  0.00  0.00    +0.046 A 
ATOM     18  C   UNL     1       3.695   5.746   7.638  0.00  0.00    -0.007 A 
ATOM     19  C   UNL     1       3.999   4.694   8.481  0.00  0.00    +0.039 A 
ATOM     20  C   UNL     1       3.933   4.863   9.851  0.00  0.00    +0.127 A 
ATOM     21 CL   UNL     1       2.925   8.287   7.109  0.00  0.00    -0.083 Cl
BRANCH  20  22
ATOM     22  N   UNL     1       4.264   3.737  10.753  0.00  0.00    +0.056 N 
ATOM     23  O   UNL     1       4.201   3.885  11.960  0.00  0.00    -0.126 OA
ATOM     24  O   UNL     1       4.599   2.663  10.288  0.00  0.00    -0.126 OA
ENDBRANCH  20  22
ENDBRANCH   1  18
BRANCH   9  25
ATOM     25  S   UNL     1       1.811   3.705  -0.042  0.00  0.00    +0.061 S 
ATOM     26  O   UNL     1       3.121   3.634  -0.588  0.00  0.00    -0.153 OA
ATOM     27  O   UNL     1       0.795   4.525  -0.603  0.00  0.00    -0.153 OA
BRANCH  25  28
ATOM     28  N   UNL     1       1.219   2.159  -0.029  0.00  0.00    -0.177 NA
ATOM     29  C   UNL     1      -0.203   1.786  -0.029  0.00  0.00    +0.109 C 
ATOM     30  C   UNL     1      -0.273   0.244  -0.043  0.00  0.00    +0.018 C 
ATOM     31  C   UNL     1       1.109  -0.161  -0.620  0.00  0.00    +0.018 C 
ATOM     32  C   UNL     1       2.030   0.928  -0.015  0.00  0.00    +0.109 C 
ENDBRANCH  25  28
ENDBRANCH   9  25
TORSDOF 4
