REMARK  Name = ZINC16459977
REMARK  14 active torsions:
REMARK  status: ('A' for Active; 'I' for Inactive)
REMARK    1  A    between atoms: C_1  and  C_2
REMARK    2  A    between atoms: C_2  and  C_3
REMARK    3  A    between atoms: C_2  and  N_4
REMARK    4  A    between atoms: N_4  and  C_5
REMARK    5  A    between atoms: C_5  and  C_6
REMARK    6  A    between atoms: C_8  and  C_11
REMARK    7  A    between atoms: N_13  and  C_14
REMARK    8  A    between atoms: N_13  and  C_18
REMARK    9  A    between atoms: C_14  and  C_15
REMARK   10  A    between atoms: C_15  and  N_67
REMARK   11  A    between atoms: C_16  and  N_67
REMARK   12  A    between atoms: C_17  and  N_67
REMARK   13  A    between atoms: C_18  and  C_19
REMARK   14  A    between atoms: N_27  and  C_28
REMARK                            x       y       z     vdW  Elec       q    Type
REMARK                         _______ _______ _______ _____ _____    ______ ____
ROOT
ATOM      1  C   UNL     1       2.568   6.255  -2.082  0.00  0.00    +0.096 A 
ATOM      2  N   UNL     1       1.537   5.452  -2.023  0.00  0.00    -0.238 NA
ATOM      3  C   UNL     1       1.639   4.203  -2.478  0.00  0.00    +0.133 A 
ATOM      4  C   UNL     1       2.845   3.816  -3.005  0.00  0.00    +0.080 A 
ATOM      5  S   UNL     1       3.784   5.263  -2.820  0.00  0.00    -0.078 S 
ENDROOT
BRANCH   3   6
ATOM      6  C   UNL     1       0.498   3.274  -2.420  0.00  0.00    +0.266 C 
ATOM      7  O   UNL     1       0.577   2.179  -2.945  0.00  0.00    -0.268 OA
ATOM      8  N   UNL     1      -0.637   3.638  -1.791  0.00  0.00    -0.294 N 
BRANCH   8   9
ATOM      9  C   UNL     1      -0.766   4.989  -1.237  0.00  0.00    +0.090 C 
BRANCH   9  10
ATOM     10  C   UNL     1      -1.171   5.959  -2.349  0.00  0.00    -0.060 C 
BRANCH  10  13
ATOM     11  C   UNL     1      -1.454   8.308  -2.864  0.00  0.00    -0.097 C 
ATOM     12  C   UNL     1      -2.417   7.387  -0.842  0.00  0.00    -0.097 C 
ATOM     13  N   UNL     1      -1.276   7.319  -1.780  0.00  0.00    +0.377 N 
ATOM     14  H   UNL     1      -0.412   7.535  -1.270  0.00  0.00    -0.083 HD
ENDBRANCH  10  13
ENDBRANCH   9  10
ENDBRANCH   8   9
BRANCH   8  15
ATOM     15  C   UNL     1      -1.741   2.684  -1.660  0.00  0.00    +0.143 C 
BRANCH  15  16
ATOM     16  C   UNL     1      -1.581   1.903  -0.381  0.00  0.00    -0.030 A 
ATOM     17  C   UNL     1      -0.870   0.718  -0.380  0.00  0.00    +0.005 A 
ATOM     18  C   UNL     1      -0.719   0.004   0.794  0.00  0.00    +0.000 A 
ATOM     19  C   UNL     1      -1.288   0.470   1.964  0.00  0.00    +0.000 A 
ATOM     20  C   UNL     1      -2.004   1.652   1.962  0.00  0.00    +0.000 A 
ATOM     21  C   UNL     1      -2.151   2.369   0.789  0.00  0.00    +0.005 A 
ENDBRANCH  15  16
ENDBRANCH   8  15
ENDBRANCH   3   6
BRANCH   1  22
ATOM     22  C   UNL     1       2.671   7.688  -1.627  0.00  0.00    +0.172 C 
BRANCH  22  23
ATOM     23  N   UNL     1       3.114   7.727  -0.232  0.00  0.00    -0.277 N 
ATOM     24  C   UNL     1       2.206   7.713   0.764  0.00  0.00    +0.307 C 
ATOM     25  O   UNL     1       1.019   7.761   0.505  0.00  0.00    -0.252 OA
ATOM     26  N   UNL     1       2.614   7.646   2.047  0.00  0.00    -0.267 N 
ATOM     27  H   UNL     1       3.559   7.696   2.259  0.00  0.00    +0.156 HD
BRANCH  26  28
ATOM     28  C   UNL     1       1.673   7.503   3.075  0.00  0.00    +0.070 A 
ATOM     29  C   UNL     1       0.401   7.026   2.791  0.00  0.00    +0.026 A 
ATOM     30  C   UNL     1      -0.524   6.881   3.808  0.00  0.00    +0.002 A 
ATOM     31  C   UNL     1      -0.187   7.220   5.105  0.00  0.00    +0.003 A 
ATOM     32  C   UNL     1       1.077   7.700   5.392  0.00  0.00    +0.040 A 
ATOM     33  C   UNL     1       2.010   7.843   4.380  0.00  0.00    +0.145 A 
ATOM     34  F   UNL     1       3.245   8.313   4.660  0.00  0.00    -0.204 F 
ENDBRANCH  26  28
BRANCH  23  36
ATOM     35  C   UNL     1       5.263   6.624  -0.615  0.00  0.00    +0.028 C 
ATOM     36  C   UNL     1       4.544   7.781   0.082  0.00  0.00    +0.072 C 
ATOM     37  C   UNL     1       5.124   9.110  -0.408  0.00  0.00    +0.028 C 
ENDBRANCH  23  36
ENDBRANCH  22  23
ENDBRANCH   1  22
TORSDOF 10
