REMARK  Name = ZINC08738299
REMARK  8 active torsions:
REMARK  status: ('A' for Active; 'I' for Inactive)
REMARK    1  A    between atoms: C_1  and  N_66
REMARK    2  A    between atoms: C_4  and  C_5
REMARK    3  A    between atoms: C_8  and  O_11
REMARK    4  A    between atoms: O_11  and  C_12
REMARK    5  A    between atoms: C_16  and  C_31
REMARK    6  A    between atoms: C_19  and  C_24
REMARK    7  A    between atoms: C_34  and  O_37
REMARK    8  A    between atoms: O_37  and  C_38
REMARK                            x       y       z     vdW  Elec       q    Type
REMARK                         _______ _______ _______ _____ _____    ______ ____
ROOT
ATOM      1  C   UNL     1       3.119   5.387  -1.189  0.00  0.00    -0.095 C 
ATOM      2  C   UNL     1       1.971   3.735   0.160  0.00  0.00    -0.041 C 
ATOM      3  C   UNL     1       1.724   2.242   0.252  0.00  0.00    -0.038 C 
ATOM      4  C   UNL     1       0.488   1.746   0.430  0.00  0.00    +0.011 C 
ATOM      5  C   UNL     1       2.901   1.354   0.130  0.00  0.00    +0.067 C 
ATOM      6  C   UNL     1       4.081   1.872  -0.270  0.00  0.00    -0.036 C 
ATOM      7  C   UNL     1       4.241   3.332  -0.581  0.00  0.00    -0.043 C 
ATOM      8  C   UNL     1       5.265   0.940  -0.396  0.00  0.00    +0.137 C 
ATOM      9  N   UNL     1       5.047  -0.490  -0.058  0.00  0.00    -0.267 N 
ATOM     10  C   UNL     1       5.973  -1.516  -0.093  0.00  0.00    +0.050 C 
ATOM     11  C   UNL     1       5.618  -2.768   0.245  0.00  0.00    +0.072 C 
ATOM     12  S   UNL     1       3.891  -2.569   0.649  0.00  0.00    -0.060 S 
ATOM     13  C   UNL     1       3.770  -0.820   0.334  0.00  0.00    +0.166 C 
ATOM     14  N   UNL     1       2.788   0.028   0.419  0.00  0.00    -0.225 NA
ATOM     15  N   UNL     1       2.945   3.941  -0.934  0.00  0.00    +0.383 N 
ATOM     16  H   UNL     1       2.588   3.493  -1.787  0.00  0.00    -0.081 HD
ENDROOT
BRANCH  10  17
ATOM     17  C   UNL     1       7.365  -1.234  -0.506  0.00  0.00    -0.003 A 
ATOM     18  C   UNL     1       7.616  -0.512  -1.674  0.00  0.00    +0.012 A 
ATOM     19  C   UNL     1       8.916  -0.247  -2.051  0.00  0.00    +0.039 A 
ATOM     20  C   UNL     1       9.972  -0.705  -1.278  0.00  0.00    +0.123 A 
ATOM     21  C   UNL     1       9.728  -1.427  -0.121  0.00  0.00    +0.039 A 
ATOM     22  C   UNL     1       8.431  -1.693   0.268  0.00  0.00    +0.012 A 
ATOM     23  F   UNL     1      11.243  -0.447  -1.655  0.00  0.00    -0.205 F 
ENDBRANCH  10  17
BRANCH   4  24
ATOM     24  C   UNL     1      -0.639   2.657   0.698  0.00  0.00    -0.025 A 
ATOM     25  C   UNL     1      -0.430   3.840   1.412  0.00  0.00    +0.011 A 
ATOM     26  C   UNL     1      -1.486   4.691   1.655  0.00  0.00    +0.046 A 
ATOM     27  C   UNL     1      -2.759   4.369   1.201  0.00  0.00    +0.120 A 
ATOM     28  C   UNL     1      -2.973   3.191   0.496  0.00  0.00    +0.046 A 
ATOM     29  C   UNL     1      -1.921   2.337   0.243  0.00  0.00    +0.011 A 
BRANCH  27  30
ATOM     30  O   UNL     1      -3.798   5.208   1.448  0.00  0.00    -0.495 OA
ATOM     31  C   UNL     1      -3.509   6.402   2.178  0.00  0.00    +0.277 C 
ENDBRANCH  27  30
ENDBRANCH   4  24
BRANCH   8  32
ATOM     32  C   UNL     1       6.362   1.463   0.495  0.00  0.00    -0.022 A 
ATOM     33  C   UNL     1       6.349   1.174   1.847  0.00  0.00    +0.009 A 
ATOM     34  C   UNL     1       7.357   1.648   2.665  0.00  0.00    +0.046 A 
ATOM     35  C   UNL     1       8.376   2.424   2.131  0.00  0.00    +0.120 A 
ATOM     36  C   UNL     1       8.383   2.717   0.775  0.00  0.00    +0.046 A 
ATOM     37  C   UNL     1       7.377   2.236  -0.040  0.00  0.00    +0.009 A 
BRANCH  35  38
ATOM     38  O   UNL     1       9.364   2.896   2.935  0.00  0.00    -0.495 OA
ATOM     39  C   UNL     1       9.292   2.554   4.321  0.00  0.00    +0.277 C 
ENDBRANCH  35  38
ENDBRANCH   8  32
TORSDOF 5
