REMARK  Name = ZINC38965301
REMARK  7 active torsions:
REMARK  status: ('A' for Active; 'I' for Inactive)
REMARK    1  A    between atoms: C_1  and  C_2
REMARK    2  A    between atoms: C_2  and  O_3
REMARK    3  A    between atoms: O_3  and  C_4
REMARK    4  A    between atoms: C_8  and  C_10
REMARK    5  A    between atoms: N_16  and  N_17
REMARK    6  A    between atoms: C_18  and  C_19
REMARK    7  A    between atoms: C_24  and  O_25
REMARK                            x       y       z     vdW  Elec       q    Type
REMARK                         _______ _______ _______ _____ _____    ______ ____
ROOT
ATOM      1  C   UNL     1      -4.329  -4.372   0.019  0.00  0.00    +0.264 C 
ATOM      2  N   UNL     1      -5.258  -3.515  -0.735  0.00  0.00    -0.189 NA
ATOM      3  N   UNL     1      -5.685  -4.163  -1.694  0.00  0.00    -0.219 N 
ATOM      4  C   UNL     1      -5.184  -5.426  -1.758  0.00  0.00    +0.174 C 
ATOM      5  S   UNL     1      -5.576  -6.576  -2.964  0.00  0.00    -0.015 S 
ATOM      6  N   UNL     1      -4.332  -5.644  -0.728  0.00  0.00    -0.172 N 
ATOM      7  H   UNL     1      -6.316  -3.807  -2.339  0.00  0.00    +0.176 HD
ENDROOT
BRANCH   1  12
ATOM      8  C   UNL     1      -1.521  -1.844   0.065  0.00  0.00    +0.121 A 
ATOM      9  C   UNL     1      -0.407  -2.671   0.061  0.00  0.00    +0.045 A 
ATOM     10  C   UNL     1      -0.567  -4.043   0.044  0.00  0.00    +0.004 A 
ATOM     11  C   UNL     1      -1.836  -4.592   0.031  0.00  0.00    +0.007 A 
ATOM     12  C   UNL     1      -2.948  -3.770   0.034  0.00  0.00    +0.001 A 
ATOM     13  C   UNL     1      -2.793  -2.397   0.057  0.00  0.00    +0.053 A 
BRANCH   8  14
ATOM     14  O   UNL     1      -1.367  -0.494   0.082  0.00  0.00    -0.492 OA
BRANCH  14  16
ATOM     15  C   UNL     1      -0.054   1.535   0.109  0.00  0.00    +0.048 C 
ATOM     16  C   UNL     1      -0.028   0.005   0.090  0.00  0.00    +0.225 C 
ENDBRANCH  14  16
ENDBRANCH   8  14
ENDBRANCH   1  12
BRANCH   6  17
ATOM     17  N   UNL     1      -3.614  -6.811  -0.437  0.00  0.00    -0.183 NA
ATOM     18  C   UNL     1      -3.813  -7.888  -1.135  0.00  0.00    +0.142 C 
BRANCH  18  19
ATOM     19  C   UNL     1      -3.142  -9.145  -0.759  0.00  0.00    +0.038 A 
ATOM     20  C   UNL     1      -3.350 -10.304  -1.511  0.00  0.00    +0.028 A 
ATOM     21  C   UNL     1      -2.719 -11.477  -1.155  0.00  0.00    +0.020 A 
ATOM     22  C   UNL     1      -1.878 -11.511  -0.053  0.00  0.00    +0.034 A 
ATOM     23  C   UNL     1      -1.665 -10.371   0.699  0.00  0.00    +0.061 A 
ATOM     24  C   UNL     1      -2.288  -9.182   0.350  0.00  0.00    +0.139 A 
ATOM     25 BR   UNL     1      -0.516 -10.431   2.200  0.00  0.00    -0.046 Br
ATOM     26 BR   UNL     1      -3.001 -13.046  -2.172  0.00  0.00    -0.050 Br
BRANCH  24  27
ATOM     27  O   UNL     1      -2.074  -8.060   1.085  0.00  0.00    -0.505 OA
ATOM     28  H   UNL     1      -2.695  -7.944   1.817  0.00  0.00    +0.292 HD
ENDBRANCH  24  27
ENDBRANCH  18  19
ENDBRANCH   6  17
TORSDOF 6
