REMARK  Name = ZINC13636640
REMARK  11 active torsions:
REMARK  status: ('A' for Active; 'I' for Inactive)
REMARK    1  A    between atoms: C_1  and  C_2
REMARK    2  A    between atoms: C_2  and  C_3
REMARK    3  A    between atoms: C_2  and  C_4
REMARK    4  A    between atoms: C_2  and  C_5
REMARK    5  A    between atoms: C_5  and  N_6
REMARK    6  A    between atoms: C_12  and  C_14
REMARK    7  A    between atoms: C_14  and  C_15
REMARK    8  A    between atoms: N_17  and  C_18
REMARK    9  A    between atoms: C_18  and  C_19
REMARK   10  A    between atoms: C_19  and  C_20
REMARK   11  A    between atoms: C_25  and  C_26
REMARK                            x       y       z     vdW  Elec       q    Type
REMARK                         _______ _______ _______ _____ _____    ______ ____
ROOT
ATOM      1  C   UNL     1       2.181   1.547  -3.337  0.00  0.00    +0.212 C 
ATOM      2  O   UNL     1       2.898   1.935  -2.439  0.00  0.00    -0.276 OA
ATOM      3  N   UNL     1       1.701   2.424  -4.242  0.00  0.00    -0.315 N 
ATOM      4  H   UNL     1       1.128   2.114  -4.960  0.00  0.00    +0.149 HD
ENDROOT
BRANCH   1   5
ATOM      5  C   UNL     1       1.826   0.086  -3.441  0.00  0.00    +0.089 C 
BRANCH   5  12
ATOM      6  N   UNL     1       1.708  -0.131  -1.007  0.00  0.00    +0.389 N 
ATOM      7  C   UNL     1       2.363  -0.708   0.177  0.00  0.00    -0.059 C 
ATOM      8  C   UNL     1       3.765  -0.110   0.305  0.00  0.00    +0.085 C 
ATOM      9  N   UNL     1       4.475  -0.231  -0.966  0.00  0.00    -0.318 N 
ATOM     10  C   UNL     1       3.846  -0.467  -2.123  0.00  0.00    +0.200 C 
ATOM     11  O   UNL     1       4.504  -0.531  -3.140  0.00  0.00    -0.278 OA
ATOM     12  C   UNL     1       2.358  -0.656  -2.214  0.00  0.00    +0.028 C 
ATOM     13  H   UNL     1       5.440  -0.136  -0.972  0.00  0.00    +0.149 HD
ATOM     14  H   UNL     1       1.794   0.874  -0.987  0.00  0.00    -0.081 HD
BRANCH   6  15
ATOM     15  C   UNL     1       0.286  -0.502  -1.013  0.00  0.00    -0.072 C 
BRANCH  15  17
ATOM     16  C   UNL     1      -0.444   1.879  -0.824  0.00  0.00    +0.009 C 
ATOM     17  C   UNL     1      -0.506   0.498  -0.169  0.00  0.00    -0.052 C 
ATOM     18  C   UNL     1       0.097   0.571   1.235  0.00  0.00    +0.009 C 
ATOM     19  C   UNL     1      -1.964   0.044  -0.075  0.00  0.00    +0.009 C 
ENDBRANCH  15  17
ENDBRANCH   6  15
ENDBRANCH   5  12
ENDBRANCH   1   5
BRANCH   3  20
ATOM     20  C   UNL     1       2.046   3.844  -4.141  0.00  0.00    +0.109 C 
BRANCH  20  21
ATOM     21  C   UNL     1       1.377   4.614  -5.281  0.00  0.00    +0.054 C 
BRANCH  21  22
ATOM     22  C   UNL     1       1.732   6.074  -5.178  0.00  0.00    -0.034 A 
ATOM     23  C   UNL     1       0.882   6.947  -4.524  0.00  0.00    +0.004 A 
ATOM     24  C   UNL     1       1.208   8.287  -4.428  0.00  0.00    +0.000 A 
ATOM     25  C   UNL     1       2.383   8.755  -4.986  0.00  0.00    +0.001 A 
ATOM     26  C   UNL     1       3.233   7.882  -5.639  0.00  0.00    +0.012 A 
ATOM     27  C   UNL     1       2.910   6.541  -5.731  0.00  0.00    +0.058 A 
BRANCH  27  28
ATOM     28  C   UNL     1       3.839   5.588  -6.438  0.00  0.00    +0.418 C 
ATOM     29  F   UNL     1       4.955   6.288  -6.909  0.00  0.00    -0.166 F 
ATOM     30  F   UNL     1       4.255   4.594  -5.546  0.00  0.00    -0.166 F 
ATOM     31  F   UNL     1       3.170   4.997  -7.515  0.00  0.00    -0.166 F 
ENDBRANCH  27  28
ENDBRANCH  21  22
ENDBRANCH  20  21
ENDBRANCH   3  20
TORSDOF 8
