REMARK  Name = ZINC05552050
REMARK  5 active torsions:
REMARK  status: ('A' for Active; 'I' for Inactive)
REMARK    1  A    between atoms: C_1  and  C_2
REMARK    2  A    between atoms: C_2  and  C_3
REMARK    3  A    between atoms: C_3  and  C_4
REMARK    4  A    between atoms: C_4  and  C_5
REMARK    5  A    between atoms: C_8  and  N_11
REMARK                            x       y       z     vdW  Elec       q    Type
REMARK                         _______ _______ _______ _____ _____    ______ ____
ROOT
ATOM      1  N   UNL     1      -5.682   2.664   0.104  0.00  0.00    -0.224 N 
ATOM      2  C   UNL     1      -5.362   3.264   1.239  0.00  0.00    +0.263 C 
ATOM      3  O   UNL     1      -5.649   2.788   2.320  0.00  0.00    -0.269 OA
ATOM      4  C   UNL     1      -4.637   4.558   1.118  0.00  0.00    +0.090 C 
ATOM      5  C   UNL     1      -4.181   5.408   2.108  0.00  0.00    +0.065 C 
ATOM      6  C   UNL     1      -4.447   5.324   3.559  0.00  0.00    +0.010 A 
ATOM      7  C   UNL     1      -5.177   4.436   4.345  0.00  0.00    +0.010 A 
ATOM      8  C   UNL     1      -5.245   4.627   5.710  0.00  0.00    +0.001 A 
ATOM      9  C   UNL     1      -4.579   5.691   6.296  0.00  0.00    +0.002 A 
ATOM     10  C   UNL     1      -3.848   6.574   5.526  0.00  0.00    +0.024 A 
ATOM     11  C   UNL     1      -3.772   6.402   4.149  0.00  0.00    +0.042 A 
ATOM     12  N   UNL     1      -3.119   7.131   3.161  0.00  0.00    -0.281 N 
ATOM     13  C   UNL     1      -3.321   6.597   1.944  0.00  0.00    +0.250 C 
ATOM     14  O   UNL     1      -2.874   7.019   0.894  0.00  0.00    -0.270 OA
ATOM     15  S   UNL     1      -4.513   4.707  -0.659  0.00  0.00    -0.060 S 
ATOM     16  C   UNL     1      -5.356   3.193  -1.091  0.00  0.00    +0.125 C 
ATOM     17  S   UNL     1      -5.674   2.565  -2.652  0.00  0.00    -0.027 S 
ATOM     18  H   UNL     1      -2.585   7.923   3.329  0.00  0.00    +0.155 HD
ENDROOT
BRANCH   1  22
ATOM     19  C   UNL     1      -7.729  -0.965   0.230  0.00  0.00    -0.047 A 
ATOM     20  C   UNL     1      -8.434   0.225   0.189  0.00  0.00    +0.005 A 
ATOM     21  C   UNL     1      -7.758   1.428   0.148  0.00  0.00    +0.024 A 
ATOM     22  C   UNL     1      -6.370   1.444   0.147  0.00  0.00    +0.043 A 
ATOM     23  C   UNL     1      -5.665   0.248   0.183  0.00  0.00    +0.024 A 
ATOM     24  C   UNL     1      -6.346  -0.952   0.230  0.00  0.00    +0.005 A 
BRANCH  19  25
ATOM     25  C   UNL     1      -8.469  -2.276   0.275  0.00  0.00    +0.035 C 
BRANCH  25  26
ATOM     26  C   UNL     1      -8.720  -2.770  -1.151  0.00  0.00    +0.004 C 
BRANCH  26  28
ATOM     27  C   UNL     1      -9.723  -4.596  -2.531  0.00  0.00    +0.004 C 
ATOM     28  C   UNL     1      -9.472  -4.102  -1.105  0.00  0.00    -0.003 C 
ENDBRANCH  26  28
ENDBRANCH  25  26
ENDBRANCH  19  25
ENDBRANCH   1  22
TORSDOF 4
