REMARK  Name = ZINC38650869
REMARK  17 active torsions:
REMARK  status: ('A' for Active; 'I' for Inactive)
REMARK    1  A    between atoms: C_1  and  C_2
REMARK    2  A    between atoms: C_2  and  C_3
REMARK    3  A    between atoms: C_3  and  C_4
REMARK    4  A    between atoms: C_4  and  O_5
REMARK    5  A    between atoms: O_5  and  C_6
REMARK    6  A    between atoms: C_9  and  C_12
REMARK    7  A    between atoms: C_17  and  O_26
REMARK    8  A    between atoms: C_21  and  N_25
REMARK    9  A    between atoms: C_22  and  C_23
REMARK   10  A    between atoms: O_26  and  C_27
REMARK   11  A    between atoms: C_27  and  C_29
REMARK   12  A    between atoms: C_29  and  C_31
REMARK   13  A    between atoms: C_29  and  O_32
REMARK   14  A    between atoms: O_32  and  C_33
REMARK   15  A    between atoms: C_36  and  C_39
REMARK   16  A    between atoms: C_39  and  C_40
REMARK   17  A    between atoms: C_39  and  C_41
REMARK                            x       y       z     vdW  Elec       q    Type
REMARK                         _______ _______ _______ _____ _____    ______ ____
ROOT
ATOM      1  C   UNL     1       2.173  -8.159   3.095  0.00  0.00    +0.098 C 
ATOM      2  C   UNL     1       1.435  -8.557   4.346  0.00  0.00    +0.008 A 
ATOM      3  C   UNL     1       0.052  -8.508   4.365  0.00  0.00    +0.012 A 
ATOM      4  C   UNL     1      -0.641  -8.869   5.503  0.00  0.00    +0.047 A 
ATOM      5  C   UNL     1       0.049  -9.283   6.634  0.00  0.00    +0.135 A 
ATOM      6  C   UNL     1       1.433  -9.333   6.618  0.00  0.00    +0.093 A 
ATOM      7  C   UNL     1       2.129  -8.969   5.472  0.00  0.00    +0.138 A 
ATOM      8  O   UNL     1       3.484  -9.024   5.473  0.00  0.00    -0.441 OA
ATOM      9  C   UNL     1       4.154  -9.060   4.309  0.00  0.00    +0.199 C 
ATOM     10  C   UNL     1       3.588  -8.662   3.148  0.00  0.00    +0.098 C 
ENDROOT
BRANCH   1  14
ATOM     11  C   UNL     1       2.195  -3.899   2.760  0.00  0.00    +0.121 A 
ATOM     12  C   UNL     1       1.607  -4.671   1.768  0.00  0.00    +0.046 A 
ATOM     13  C   UNL     1       1.601  -6.048   1.879  0.00  0.00    +0.008 A 
ATOM     14  C   UNL     1       2.181  -6.657   2.977  0.00  0.00    -0.034 A 
ATOM     15  C   UNL     1       2.768  -5.890   3.966  0.00  0.00    +0.008 A 
ATOM     16  C   UNL     1       2.781  -4.513   3.857  0.00  0.00    +0.046 A 
BRANCH  11  17
ATOM     17  O   UNL     1       2.203  -2.544   2.653  0.00  0.00    -0.492 OA
BRANCH  17  18
ATOM     18  C   UNL     1       1.581  -1.981   1.496  0.00  0.00    +0.229 C 
BRANCH  18  19
ATOM     19  C   UNL     1       1.688  -0.456   1.551  0.00  0.00    +0.041 C 
BRANCH  19  21
ATOM     20  C   UNL     1       1.128   1.672   0.367  0.00  0.00    +0.004 C 
ATOM     21  C   UNL     1       1.022   0.147   0.312  0.00  0.00    -0.000 C 
ENDBRANCH  19  21
ENDBRANCH  18  19
ENDBRANCH  17  18
ENDBRANCH  11  17
ENDBRANCH   1  14
BRANCH   9  22
ATOM     22  N   UNL     1       5.450  -9.511   4.299  0.00  0.00    -0.328 N 
ATOM     23  H   UNL     1       5.869  -9.798   5.125  0.00  0.00    +0.145 HD
ATOM     24  H   UNL     1       5.946  -9.542   3.466  0.00  0.00    +0.145 HD
ENDBRANCH   9  22
BRANCH  10  25
ATOM     25  C   UNL     1       4.356  -8.724   1.941  0.00  0.00    +0.101 C 
ATOM     26  N   UNL     1       4.966  -8.773   0.984  0.00  0.00    -0.191 NA
ENDBRANCH  10  25
BRANCH   5  27
ATOM     27  O   UNL     1      -0.632  -9.639   7.755  0.00  0.00    -0.423 OA
BRANCH  27  28
ATOM     28  C   UNL     1      -0.511  -8.857   8.840  0.00  0.00    +0.353 C 
ATOM     29  O   UNL     1       0.107  -7.821   8.773  0.00  0.00    -0.246 OA
BRANCH  28  30
ATOM     30  C   UNL     1      -1.147  -9.272  10.142  0.00  0.00    +0.279 C 
ATOM     31  C   UNL     1      -0.478 -10.551  10.651  0.00  0.00    +0.064 C 
BRANCH  30  32
ATOM     32  O   UNL     1      -0.980  -8.231  11.107  0.00  0.00    -0.478 OA
BRANCH  32  33
ATOM     33  C   UNL     1      -1.858  -8.204  12.143  0.00  0.00    +0.122 A 
ATOM     34  C   UNL     1      -1.712  -7.264  13.153  0.00  0.00    +0.046 A 
ATOM     35  C   UNL     1      -2.607  -7.238  14.205  0.00  0.00    +0.007 A 
ATOM     36  C   UNL     1      -3.647  -8.148  14.253  0.00  0.00    -0.045 A 
ATOM     37  C   UNL     1      -3.795  -9.086  13.248  0.00  0.00    +0.007 A 
ATOM     38  C   UNL     1      -2.906  -9.112  12.190  0.00  0.00    +0.046 A 
BRANCH  36  39
ATOM     39  C   UNL     1      -4.622  -8.117  15.402  0.00  0.00    +0.013 C 
ATOM     40  C   UNL     1      -6.033  -7.868  14.867  0.00  0.00    +0.012 C 
ATOM     41  C   UNL     1      -4.584  -9.458  16.138  0.00  0.00    +0.012 C 
ENDBRANCH  36  39
ENDBRANCH  32  33
ENDBRANCH  30  32
ENDBRANCH  28  30
ENDBRANCH  27  28
ENDBRANCH   5  27
TORSDOF 13
