REMARK  Name = ZINC39676326
REMARK  8 active torsions:
REMARK  status: ('A' for Active; 'I' for Inactive)
REMARK    1  A    between atoms: C_1  and  C_2
REMARK    2  A    between atoms: C_2  and  C_3
REMARK    3  A    between atoms: C_3  and  C_5
REMARK    4  A    between atoms: C_3  and  C_6
REMARK    5  A    between atoms: C_6  and  C_7
REMARK    6  A    between atoms: C_11  and  C_20
REMARK    7  A    between atoms: N_22  and  C_23
REMARK    8  A    between atoms: C_23  and  C_24
REMARK                            x       y       z     vdW  Elec       q    Type
REMARK                         _______ _______ _______ _____ _____    ______ ____
ROOT
ATOM      1  C   UNL     1      -2.539  -2.611   0.135  0.00  0.00    +0.216 C 
ATOM      2  O   UNL     1      -3.405  -1.764   0.092  0.00  0.00    -0.276 OA
ATOM      3  N   UNL     1      -2.872  -3.907   0.298  0.00  0.00    -0.300 N 
ATOM      4  C   UNL     1      -1.964  -5.075   0.381  0.00  0.00    +0.121 C 
ATOM      5  C   UNL     1      -2.586  -5.977   1.470  0.00  0.00    +0.100 C 
ATOM      6  C   UNL     1      -4.073  -5.587   1.500  0.00  0.00    -0.004 C 
ATOM      7  C   UNL     1      -4.230  -4.485   0.442  0.00  0.00    +0.115 C 
ATOM      8  C   UNL     1      -4.942  -6.790   1.144  0.00  0.00    -0.010 C 
ATOM      9  C   UNL     1      -6.418  -6.393   1.237  0.00  0.00    -0.082 C 
ATOM     10  N   UNL     1      -6.718  -5.933   2.598  0.00  0.00    +0.379 N 
ATOM     11  C   UNL     1      -5.947  -4.721   2.899  0.00  0.00    -0.082 C 
ATOM     12  C   UNL     1      -4.451  -5.048   2.876  0.00  0.00    -0.010 C 
ATOM     13  H   UNL     1      -7.704  -5.730   2.673  0.00  0.00    -0.086 HD
ATOM     14  H   UNL     1      -6.476  -6.657   3.257  0.00  0.00    -0.086 HD
ENDROOT
BRANCH   5  15
ATOM     15  C   UNL     1      -1.944  -5.707   2.806  0.00  0.00    +0.219 C 
ATOM     16  O   UNL     1      -1.512  -4.602   3.059  0.00  0.00    -0.275 OA
ATOM     17  N   UNL     1      -1.848  -6.692   3.720  0.00  0.00    -0.308 N 
ATOM     18  H   UNL     1      -2.193  -7.576   3.518  0.00  0.00    +0.149 HD
BRANCH  17  19
ATOM     19  C   UNL     1      -1.224  -6.429   5.019  0.00  0.00    +0.178 C 
BRANCH  19  20
ATOM     20  C   UNL     1      -1.244  -7.686   5.850  0.00  0.00    +0.128 A 
ATOM     21  N   UNL     1      -0.711  -7.642   7.099  0.00  0.00    -0.309 N 
ATOM     22  H   UNL     1      -0.331  -6.813   7.430  0.00  0.00    +0.170 HD
ATOM     23  C   UNL     1      -0.704  -8.744   7.885  0.00  0.00    +0.259 A 
ATOM     24  O   UNL     1      -0.231  -8.718   9.006  0.00  0.00    -0.267 OA
ATOM     25  C   UNL     1      -1.292  -9.973   7.332  0.00  0.00    +0.065 A 
ATOM     26  C   UNL     1      -1.335 -11.161   8.059  0.00  0.00    +0.015 A 
ATOM     27  C   UNL     1      -1.898 -12.284   7.492  0.00  0.00    +0.001 A 
ATOM     28  C   UNL     1      -2.420 -12.239   6.206  0.00  0.00    +0.002 A 
ATOM     29  C   UNL     1      -2.387 -11.075   5.471  0.00  0.00    +0.028 A 
ATOM     30  C   UNL     1      -1.822  -9.924   6.024  0.00  0.00    +0.078 A 
ATOM     31  N   UNL     1      -1.774  -8.755   5.338  0.00  0.00    -0.232 NA
ENDBRANCH  19  20
ENDBRANCH  17  19
ENDBRANCH   5  15
BRANCH   1  32
ATOM     32  C   UNL     1      -1.090  -2.216   0.007  0.00  0.00    +0.099 C 
BRANCH  32  33
ATOM     33  C   UNL     1      -0.989  -0.700  -0.167  0.00  0.00    -0.006 C 
ATOM     34  C   UNL     1      -1.638  -0.294  -1.492  0.00  0.00    +0.008 C 
BRANCH  33  36
ATOM     35  C   UNL     1       0.583   1.242  -0.221  0.00  0.00    +0.004 C 
ATOM     36  C   UNL     1       0.484  -0.284  -0.173  0.00  0.00    +0.000 C 
ENDBRANCH  33  36
ENDBRANCH  32  33
ENDBRANCH   1  32
TORSDOF 6
