REMARK  Name = ZINC40120986
REMARK  4 active torsions:
REMARK  status: ('A' for Active; 'I' for Inactive)
REMARK    1  A    between atoms: C_3  and  C_6
REMARK    2  A    between atoms: C_6  and  C_8
REMARK    3  A    between atoms: C_6  and  N_13
REMARK    4  A    between atoms: N_16  and  C_17
REMARK                            x       y       z     vdW  Elec       q    Type
REMARK                         _______ _______ _______ _____ _____    ______ ____
ROOT
ATOM      1  N   UNL     1       4.575   1.024  -0.923  0.00  0.00    -0.292 N 
ATOM      2  C   UNL     1       4.599   1.291  -2.244  0.00  0.00    +0.304 C 
ATOM      3  O   UNL     1       3.950   2.218  -2.689  0.00  0.00    -0.252 OA
ATOM      4  N   UNL     1       5.342   0.530  -3.072  0.00  0.00    -0.268 N 
ATOM      5  H   UNL     1       5.093   0.284  -0.569  0.00  0.00    +0.151 HD
ATOM      6  H   UNL     1       5.912  -0.166  -2.710  0.00  0.00    +0.156 HD
ENDROOT
BRANCH   4   7
ATOM      7  C   UNL     1       5.291   0.745  -4.455  0.00  0.00    +0.053 A 
ATOM      8  C   UNL     1       5.141   2.034  -4.964  0.00  0.00    +0.028 A 
ATOM      9  C   UNL     1       5.096   2.199  -6.337  0.00  0.00    +0.050 A 
ATOM     10  C   UNL     1       5.201   1.082  -7.157  0.00  0.00    +0.154 A 
ATOM     11  N   UNL     1       5.343  -0.127  -6.639  0.00  0.00    -0.234 NA
ATOM     12  C   UNL     1       5.395  -0.322  -5.336  0.00  0.00    +0.136 A 
ATOM     13  N   UNL     1       5.157   1.238  -8.547  0.00  0.00    -0.222 N 
ATOM     14  C   UNL     1       5.241   0.243  -9.467  0.00  0.00    +0.116 A 
ATOM     15  C   UNL     1       5.156   0.810 -10.693  0.00  0.00    +0.041 A 
ATOM     16  C   UNL     1       5.016   2.192 -10.520  0.00  0.00    +0.135 A 
ATOM     17  N   UNL     1       5.011   2.448  -9.237  0.00  0.00    -0.173 NA
ENDBRANCH   4   7
BRANCH   1  18
ATOM     18  C   UNL     1       3.768   1.851  -0.023  0.00  0.00    +0.114 C 
BRANCH  18  21
ATOM     19  C   UNL     1      -0.008   1.347   0.025  0.00  0.00    +0.008 A 
ATOM     20  C   UNL     1       1.190   2.037   0.011  0.00  0.00    +0.013 A 
ATOM     21  C   UNL     1       2.351   1.338  -0.006  0.00  0.00    +0.010 A 
ATOM     22  S   UNL     1       1.766  -0.349  -0.002  0.00  0.00    -0.100 S 
ATOM     23  C   UNL     1       0.014  -0.008   0.021  0.00  0.00    +0.045 A 
ENDBRANCH  18  21
BRANCH  18  24
ATOM     24  C   UNL     1       4.351   1.786   1.390  0.00  0.00    +0.014 C 
ATOM     25  C   UNL     1       3.552   2.709   2.334  0.00  0.00    +0.006 C 
ATOM     26  C   UNL     1       4.625   3.307   3.277  0.00  0.00    +0.000 C 
ATOM     27  C   UNL     1       5.829   3.529   2.329  0.00  0.00    +0.000 C 
ATOM     28  C   UNL     1       5.799   2.308   1.387  0.00  0.00    +0.006 C 
ENDBRANCH  18  24
ENDBRANCH   1  18
TORSDOF 4
