REMARK  Name = ZINC39659935
REMARK  8 active torsions:
REMARK  status: ('A' for Active; 'I' for Inactive)
REMARK    1  A    between atoms: C_1  and  C_2
REMARK    2  A    between atoms: C_2  and  C_3
REMARK    3  A    between atoms: C_2  and  C_4
REMARK    4  A    between atoms: C_4  and  C_6
REMARK    5  A    between atoms: C_4  and  O_30
REMARK    6  A    between atoms: C_10  and  C_19
REMARK    7  A    between atoms: N_21  and  C_22
REMARK    8  A    between atoms: O_30  and  C_31
REMARK                            x       y       z     vdW  Elec       q    Type
REMARK                         _______ _______ _______ _____ _____    ______ ____
ROOT
ATOM      1  C   UNL     1      -1.821  -0.422  -1.702  0.00  0.00    +0.257 C 
ATOM      2  O   UNL     1      -2.191  -1.264  -2.493  0.00  0.00    -0.272 OA
ATOM      3  N   UNL     1      -1.784   0.875  -2.067  0.00  0.00    -0.297 N 
ATOM      4  C   UNL     1      -1.258   2.022  -1.291  0.00  0.00    +0.121 C 
ATOM      5  C   UNL     1      -0.543   2.906  -2.336  0.00  0.00    +0.100 C 
ATOM      6  C   UNL     1      -1.206   2.544  -3.676  0.00  0.00    -0.004 C 
ATOM      7  C   UNL     1      -2.255   1.475  -3.339  0.00  0.00    +0.115 C 
ATOM      8  C   UNL     1      -0.171   1.974  -4.641  0.00  0.00    -0.010 C 
ATOM      9  C   UNL     1      -0.842   1.675  -5.984  0.00  0.00    -0.082 C 
ATOM     10  N   UNL     1      -1.421   2.909  -6.529  0.00  0.00    +0.379 N 
ATOM     11  C   UNL     1      -2.480   3.401  -5.640  0.00  0.00    -0.082 C 
ATOM     12  C   UNL     1      -1.878   3.772  -4.282  0.00  0.00    -0.010 C 
ATOM     13  H   UNL     1      -0.699   3.609  -6.610  0.00  0.00    -0.086 HD
ATOM     14  H   UNL     1      -1.809   2.722  -7.442  0.00  0.00    -0.086 HD
ENDROOT
BRANCH   5  15
ATOM     15  C   UNL     1       0.930   2.587  -2.374  0.00  0.00    +0.218 C 
ATOM     16  O   UNL     1       1.310   1.454  -2.168  0.00  0.00    -0.275 OA
ATOM     17  N   UNL     1       1.824   3.561  -2.636  0.00  0.00    -0.312 N 
ATOM     18  H   UNL     1       1.527   4.479  -2.728  0.00  0.00    +0.149 HD
BRANCH  17  19
ATOM     19  C   UNL     1       3.244   3.231  -2.781  0.00  0.00    +0.073 C 
ATOM     20  C   UNL     1       3.889   3.131  -1.397  0.00  0.00    +0.022 C 
ATOM     21  C   UNL     1       5.235   2.413  -1.513  0.00  0.00    +0.002 C 
ATOM     22  C   UNL     1       5.086   1.194  -2.425  0.00  0.00    +0.000 C 
ATOM     23  C   UNL     1       5.890   1.415  -3.707  0.00  0.00    +0.000 C 
ATOM     24  C   UNL     1       5.139   2.388  -4.618  0.00  0.00    +0.000 C 
ATOM     25  C   UNL     1       5.296   3.812  -4.082  0.00  0.00    +0.002 C 
ATOM     26  C   UNL     1       3.941   4.326  -3.591  0.00  0.00    +0.022 C 
ENDBRANCH  17  19
ENDBRANCH   5  15
BRANCH   1  27
ATOM     27  C   UNL     1      -1.402  -0.826  -0.312  0.00  0.00    +0.261 C 
BRANCH  27  29
ATOM     28  C   UNL     1      -3.718  -1.545   0.289  0.00  0.00    +0.011 C 
ATOM     29  C   UNL     1      -2.567  -0.606   0.655  0.00  0.00    +0.033 C 
ATOM     30  C   UNL     1      -2.106  -0.898   2.084  0.00  0.00    +0.011 C 
ENDBRANCH  27  29
BRANCH  27  31
ATOM     31  O   UNL     1      -0.286  -0.033   0.099  0.00  0.00    -0.479 OA
BRANCH  31  32
ATOM     32  C   UNL     1       0.681  -0.658   0.820  0.00  0.00    +0.122 A 
ATOM     33  C   UNL     1       0.580  -2.014   1.091  0.00  0.00    +0.045 A 
ATOM     34  C   UNL     1       1.566  -2.647   1.824  0.00  0.00    +0.004 A 
ATOM     35  C   UNL     1       2.652  -1.928   2.288  0.00  0.00    +0.000 A 
ATOM     36  C   UNL     1       2.755  -0.576   2.020  0.00  0.00    +0.004 A 
ATOM     37  C   UNL     1       1.775   0.060   1.282  0.00  0.00    +0.045 A 
ENDBRANCH  31  32
ENDBRANCH  27  31
ENDBRANCH   1  27
TORSDOF 6
