REMARK  Name = ZINC21255059
REMARK  10 active torsions:
REMARK  status: ('A' for Active; 'I' for Inactive)
REMARK    1  A    between atoms: C_1  and  C_2
REMARK    2  A    between atoms: C_2  and  C_3
REMARK    3  A    between atoms: C_3  and  O_4
REMARK    4  A    between atoms: O_4  and  C_5
REMARK    5  A    between atoms: C_8  and  C_11
REMARK    6  A    between atoms: C_16  and  C_26
REMARK    7  A    between atoms: C_28  and  O_34
REMARK    8  A    between atoms: C_31  and  O_32
REMARK    9  A    between atoms: O_32  and  C_33
REMARK   10  A    between atoms: O_34  and  C_35
REMARK                            x       y       z     vdW  Elec       q    Type
REMARK                         _______ _______ _______ _____ _____    ______ ____
ROOT
ATOM      1  C   UNL     1       5.189   5.129  -1.559  0.00  0.00    +0.032 C 
ATOM      2  C   UNL     1       3.726   5.200  -1.126  0.00  0.00    +0.059 C 
ATOM      3  C   UNL     1       3.216   3.805  -0.802  0.00  0.00    +0.017 C 
ATOM      4  C   UNL     1       3.671   2.741  -1.484  0.00  0.00    +0.037 C 
ATOM      5  C   UNL     1       3.230   1.309  -1.291  0.00  0.00    +0.140 C 
ATOM      6  N   UNL     1       2.433   1.083  -0.104  0.00  0.00    -0.331 N 
ATOM      7  C   UNL     1       1.176   1.666   0.043  0.00  0.00    +0.049 A 
ATOM      8  C   UNL     1       0.021   0.901   0.046  0.00  0.00    +0.025 A 
ATOM      9  C   UNL     1      -1.212   1.531   0.092  0.00  0.00    +0.002 A 
ATOM     10  C   UNL     1      -1.291   2.910   0.145  0.00  0.00    +0.002 A 
ATOM     11  C   UNL     1      -0.138   3.677   0.157  0.00  0.00    +0.025 A 
ATOM     12  C   UNL     1       1.095   3.049   0.122  0.00  0.00    +0.052 A 
ATOM     13  N   UNL     1       2.291   3.754   0.189  0.00  0.00    -0.316 N 
ATOM     14  C   UNL     1       4.664   2.904  -2.478  0.00  0.00    +0.163 C 
ATOM     15  O   UNL     1       5.044   1.926  -3.091  0.00  0.00    -0.292 OA
ATOM     16  C   UNL     1       5.264   4.238  -2.805  0.00  0.00    +0.088 C 
ATOM     17  H   UNL     1       2.818   0.442   0.703  0.00  0.00    +0.147 HD
ATOM     18  H   UNL     1       2.462   4.298   1.130  0.00  0.00    +0.152 HD
ENDROOT
BRANCH   1  22
ATOM     19  C   UNL     1       6.615   9.047  -2.492  0.00  0.00    +0.121 A 
ATOM     20  C   UNL     1       7.244   8.295  -1.511  0.00  0.00    +0.046 A 
ATOM     21  C   UNL     1       6.781   7.028  -1.211  0.00  0.00    +0.007 A 
ATOM     22  C   UNL     1       5.692   6.511  -1.888  0.00  0.00    -0.043 A 
ATOM     23  C   UNL     1       5.067   7.257  -2.870  0.00  0.00    +0.007 A 
ATOM     24  C   UNL     1       5.523   8.526  -3.170  0.00  0.00    +0.046 A 
BRANCH  19  25
ATOM     25  O   UNL     1       7.068  10.294  -2.789  0.00  0.00    -0.492 OA
BRANCH  25  26
ATOM     26  C   UNL     1       6.372  11.011  -3.810  0.00  0.00    +0.229 C 
BRANCH  26  28
ATOM     27  C   UNL     1       6.277  13.152  -5.096  0.00  0.00    +0.007 C 
ATOM     28  C   UNL     1       7.022  12.383  -4.002  0.00  0.00    +0.038 C 
ENDBRANCH  26  28
ENDBRANCH  25  26
ENDBRANCH  19  25
ENDBRANCH   1  22
BRANCH   5  29
ATOM     29  C   UNL     1       2.424   0.892  -2.494  0.00  0.00    +0.022 A 
ATOM     30  C   UNL     1       1.912   1.849  -3.349  0.00  0.00    +0.055 A 
ATOM     31  C   UNL     1       1.171   1.464  -4.456  0.00  0.00    +0.121 A 
ATOM     32  C   UNL     1       0.944   0.119  -4.706  0.00  0.00    +0.049 A 
ATOM     33  C   UNL     1       1.456  -0.838  -3.852  0.00  0.00    +0.049 A 
ATOM     34  C   UNL     1       2.202  -0.454  -2.747  0.00  0.00    +0.126 A 
BRANCH  34  35
ATOM     35  O   UNL     1       2.711  -1.396  -1.909  0.00  0.00    -0.495 OA
ATOM     36  C   UNL     1       2.443  -2.763  -2.230  0.00  0.00    +0.277 C 
ENDBRANCH  34  35
BRANCH  31  37
ATOM     37  O   UNL     1       0.666   2.406  -5.297  0.00  0.00    -0.495 OA
ATOM     38  C   UNL     1      -0.087   1.939  -6.417  0.00  0.00    +0.277 C 
ENDBRANCH  31  37
ENDBRANCH   5  29
TORSDOF 7
