REMARK  Name = ZINC08928261
REMARK  5 active torsions:
REMARK  status: ('A' for Active; 'I' for Inactive)
REMARK    1  A    between atoms: C_6  and  S_7
REMARK    2  A    between atoms: S_7  and  N_10
REMARK    3  A    between atoms: C_14  and  C_16
REMARK    4  A    between atoms: N_18  and  C_19
REMARK    5  A    between atoms: C_20  and  C_28
REMARK                            x       y       z     vdW  Elec       q    Type
REMARK                         _______ _______ _______ _____ _____    ______ ____
ROOT
ATOM      1  C   UNL     1      -2.195  -0.500   0.926  0.00  0.00    +0.236 C 
ATOM      2  O   UNL     1      -2.084   0.543   0.317  0.00  0.00    -0.274 OA
ATOM      3  N   UNL     1      -1.292  -0.827   1.872  0.00  0.00    -0.278 N 
ATOM      4  H   UNL     1      -1.381  -1.661   2.359  0.00  0.00    +0.155 HD
ENDROOT
BRANCH   3   5
ATOM      5  C   UNL     1      -0.237   0.029   2.149  0.00  0.00    +0.084 A 
ATOM      6  C   UNL     1       0.782  -0.131   3.077  0.00  0.00    +0.068 A 
ATOM      7  C   UNL     1       1.777   0.924   3.170  0.00  0.00    -0.023 A 
ATOM      8  C   UNL     1       1.594   1.964   2.327  0.00  0.00    -0.004 A 
ATOM      9  S   UNL     1       0.129   1.558   1.419  0.00  0.00    -0.077 S 
ATOM     10  C   UNL     1       2.451   3.185   2.200  0.00  0.00    +0.043 C 
ATOM     11  C   UNL     1       3.365   3.265   3.431  0.00  0.00    +0.005 C 
ATOM     12  C   UNL     1       4.010   1.894   3.656  0.00  0.00    +0.005 C 
ATOM     13  C   UNL     1       2.954   0.896   4.136  0.00  0.00    +0.037 C 
BRANCH   6  14
ATOM     14  C   UNL     1       0.853  -1.321   3.931  0.00  0.00    +0.244 C 
ATOM     15  O   UNL     1       1.468  -2.302   3.557  0.00  0.00    -0.270 OA
ATOM     16  N   UNL     1       0.237  -1.327   5.129  0.00  0.00    -0.325 N 
ATOM     17  H   UNL     1      -0.253  -0.545   5.427  0.00  0.00    +0.145 HD
ATOM     18  H   UNL     1       0.284  -2.114   5.694  0.00  0.00    +0.145 HD
ENDBRANCH   6  14
ENDBRANCH   3   5
BRANCH   1  23
ATOM     19  N   UNL     1      -4.557  -0.660   0.306  0.00  0.00    -0.165 NA
ATOM     20  C   UNL     1      -5.293  -1.363  -0.757  0.00  0.00    +0.110 C 
ATOM     21  C   UNL     1      -4.477  -2.619  -1.127  0.00  0.00    +0.019 C 
ATOM     22  C   UNL     1      -3.046  -2.256  -0.652  0.00  0.00    +0.031 C 
ATOM     23  C   UNL     1      -3.342  -1.430   0.625  0.00  0.00    +0.166 C 
BRANCH  19  24
ATOM     24  S   UNL     1      -5.016   0.760   1.024  0.00  0.00    +0.062 S 
ATOM     25  O   UNL     1      -3.866   1.272   1.683  0.00  0.00    -0.153 OA
ATOM     26  O   UNL     1      -5.724   1.502   0.040  0.00  0.00    -0.153 OA
BRANCH  24  32
ATOM     27  C   UNL     1      -7.535   0.417   2.018  0.00  0.00    +0.030 A 
ATOM     28  C   UNL     1      -8.448   0.094   3.004  0.00  0.00    +0.022 A 
ATOM     29  C   UNL     1      -8.005  -0.281   4.261  0.00  0.00    +0.041 A 
ATOM     30  C   UNL     1      -6.649  -0.337   4.527  0.00  0.00    +0.022 A 
ATOM     31  C   UNL     1      -5.737  -0.019   3.538  0.00  0.00    +0.030 A 
ATOM     32  C   UNL     1      -6.179   0.355   2.284  0.00  0.00    +0.106 A 
ATOM     33 CL   UNL     1      -9.151  -0.680   5.502  0.00  0.00    -0.084 Cl
ENDBRANCH  24  32
ENDBRANCH  19  24
ENDBRANCH   1  23
TORSDOF 5
