REMARK  Name = ZINC48731427
REMARK  8 active torsions:
REMARK  status: ('A' for Active; 'I' for Inactive)
REMARK    1  A    between atoms: C_4  and  N_11
REMARK    2  A    between atoms: C_5  and  C_7
REMARK    3  A    between atoms: C_7  and  C_8
REMARK    4  A    between atoms: C_12  and  C_14
REMARK    5  A    between atoms: N_16  and  C_17
REMARK    6  A    between atoms: C_17  and  C_18
REMARK    7  A    between atoms: C_18  and  C_20
REMARK    8  A    between atoms: C_18  and  N_25
REMARK                            x       y       z     vdW  Elec       q    Type
REMARK                         _______ _______ _______ _____ _____    ______ ____
ROOT
ATOM      1  C   UNL     1       6.053  -0.654  -0.569  0.00  0.00    +0.299 C 
ATOM      2  O   UNL     1       6.054  -1.867  -0.544  0.00  0.00    -0.265 OA
ATOM      3  N   UNL     1       7.220   0.020  -0.592  0.00  0.00    -0.309 N 
ATOM      4  H   UNL     1       7.220   0.990  -0.612  0.00  0.00    +0.149 HD
ENDROOT
BRANCH   1   6
ATOM      5  N   UNL     1       3.593  -0.582  -0.551  0.00  0.00    -0.277 N 
ATOM      6  C   UNL     1       4.760   0.092  -0.574  0.00  0.00    +0.303 C 
ATOM      7  O   UNL     1       4.759   1.306  -0.599  0.00  0.00    -0.265 OA
ATOM      8  H   UNL     1       3.592  -1.548  -0.459  0.00  0.00    +0.155 HD
BRANCH   5  12
ATOM      9  C   UNL     1      -0.010   1.481  -0.874  0.00  0.00    +0.000 A 
ATOM     10  C   UNL     1       1.063   2.065  -0.227  0.00  0.00    +0.002 A 
ATOM     11  C   UNL     1       2.260   1.384  -0.117  0.00  0.00    +0.023 A 
ATOM     12  C   UNL     1       2.384   0.110  -0.659  0.00  0.00    +0.037 A 
ATOM     13  C   UNL     1       1.303  -0.473  -1.308  0.00  0.00    -0.017 A 
ATOM     14  C   UNL     1       0.110   0.214  -1.414  0.00  0.00    +0.006 A 
BRANCH  13  15
ATOM     15  C   UNL     1       1.433  -1.854  -1.897  0.00  0.00    +0.132 C 
BRANCH  15  16
ATOM     16  C   UNL     1       1.162  -2.883  -0.830  0.00  0.00    +0.215 C 
ATOM     17  O   UNL     1       0.890  -2.530   0.298  0.00  0.00    -0.276 OA
ATOM     18  N   UNL     1       1.222  -4.196  -1.129  0.00  0.00    -0.329 N 
ATOM     19  H   UNL     1       1.440  -4.479  -2.031  0.00  0.00    +0.145 HD
ATOM     20  H   UNL     1       1.048  -4.858  -0.442  0.00  0.00    +0.145 HD
ENDBRANCH  15  16
ENDBRANCH  13  15
ENDBRANCH   5  12
ENDBRANCH   1   6
BRANCH   3  21
ATOM     21  C   UNL     1       8.489  -0.712  -0.587  0.00  0.00    +0.097 C 
BRANCH  21  22
ATOM     22  C   UNL     1       9.650   0.281  -0.497  0.00  0.00    +0.016 C 
BRANCH  22  23
ATOM     23  N   UNL     1       9.537   1.267  -1.580  0.00  0.00    +0.387 N 
ATOM     24  C   UNL     1       9.455   0.569  -2.869  0.00  0.00    -0.078 C 
ATOM     25  C   UNL     1       9.255   1.587  -3.993  0.00  0.00    -0.019 C 
ATOM     26  C   UNL     1      10.439   2.559  -4.011  0.00  0.00    -0.004 C 
ATOM     27  C   UNL     1      10.560   3.226  -2.638  0.00  0.00    -0.019 C 
ATOM     28  C   UNL     1      10.711   2.147  -1.564  0.00  0.00    -0.078 C 
ATOM     29  H   UNL     1       8.703   1.819  -1.445  0.00  0.00    -0.081 HD
ENDBRANCH  22  23
BRANCH  22  30
ATOM     30  C   UNL     1      10.956  -0.460  -0.627  0.00  0.00    +0.093 A 
ATOM     31  C   UNL     1      11.741  -0.855   0.391  0.00  0.00    +0.043 A 
ATOM     32  C   UNL     1      12.856  -1.509  -0.181  0.00  0.00    +0.041 A 
ATOM     33  C   UNL     1      12.686  -1.474  -1.515  0.00  0.00    +0.195 A 
ATOM     34  O   UNL     1      11.530  -0.843  -1.779  0.00  0.00    -0.469 OA
ENDBRANCH  22  30
ENDBRANCH  21  22
ENDBRANCH   3  21
TORSDOF 8
