REMARK  Name = ZINC19364209
REMARK  9 active torsions:
REMARK  status: ('A' for Active; 'I' for Inactive)
REMARK    1  A    between atoms: C_4  and  C_7
REMARK    2  A    between atoms: C_7  and  C_9
REMARK    3  A    between atoms: C_7  and  N_20
REMARK    4  A    between atoms: C_9  and  N_10
REMARK    5  A    between atoms: N_10  and  S_11
REMARK    6  A    between atoms: S_11  and  C_14
REMARK    7  A    between atoms: N_23  and  C_26
REMARK    8  A    between atoms: C_26  and  C_27
REMARK    9  A    between atoms: C_26  and  C_33
REMARK                            x       y       z     vdW  Elec       q    Type
REMARK                         _______ _______ _______ _____ _____    ______ ____
ROOT
ATOM      1  N   UNL     1      -1.989  -1.998   3.184  0.00  0.00    -0.298 NA
ATOM      2  C   UNL     1      -2.050  -2.669   1.879  0.00  0.00    +0.066 C 
ATOM      3  C   UNL     1      -0.947  -2.117   0.972  0.00  0.00    -0.062 C 
ATOM      4  N   UNL     1      -1.120  -0.666   0.823  0.00  0.00    +0.389 N 
ATOM      5  C   UNL     1      -1.060   0.006   2.128  0.00  0.00    -0.062 C 
ATOM      6  C   UNL     1      -2.162  -0.546   3.035  0.00  0.00    +0.066 C 
ATOM      7  H   UNL     1      -2.117  -0.485   0.394  0.00  0.00    -0.080 HD
ENDROOT
BRANCH   1   8
ATOM      8  C   UNL     1      -2.985  -2.554   4.110  0.00  0.00    +0.102 C 
BRANCH   8  12
ATOM      9  C   UNL     1      -2.064  -6.651   4.896  0.00  0.00    +0.000 A 
ATOM     10  C   UNL     1      -3.379  -6.258   4.725  0.00  0.00    +0.000 A 
ATOM     11  C   UNL     1      -3.676  -4.933   4.470  0.00  0.00    +0.005 A 
ATOM     12  C   UNL     1      -2.660  -3.999   4.387  0.00  0.00    -0.029 A 
ATOM     13  C   UNL     1      -1.345  -4.393   4.553  0.00  0.00    +0.005 A 
ATOM     14  C   UNL     1      -1.048  -5.718   4.812  0.00  0.00    +0.000 A 
ENDBRANCH   8  12
BRANCH   8  15
ATOM     15  C   UNL     1      -2.960  -1.765   5.420  0.00  0.00    +0.129 C 
BRANCH  15  16
ATOM     16  N   UNL     1      -4.003  -2.273   6.316  0.00  0.00    -0.188 NA
ATOM     17  H   UNL     1      -4.899  -2.755   5.898  0.00  0.00    +0.148 HD
BRANCH  16  18
ATOM     18  S   UNL     1      -3.959  -1.906   7.930  0.00  0.00    +0.058 S 
ATOM     19  O   UNL     1      -5.103  -2.512   8.515  0.00  0.00    -0.153 OA
ATOM     20  O   UNL     1      -2.638  -2.183   8.374  0.00  0.00    -0.153 OA
BRANCH  18  21
ATOM     21  C   UNL     1      -4.183  -0.164   8.074  0.00  0.00    +0.105 A 
ATOM     22  C   UNL     1      -3.086   0.677   8.068  0.00  0.00    +0.028 A 
ATOM     23  C   UNL     1      -3.262   2.044   8.177  0.00  0.00    +0.002 A 
ATOM     24  C   UNL     1      -4.535   2.569   8.301  0.00  0.00    +0.000 A 
ATOM     25  C   UNL     1      -5.631   1.728   8.312  0.00  0.00    +0.002 A 
ATOM     26  C   UNL     1      -5.456   0.361   8.199  0.00  0.00    +0.028 A 
ENDBRANCH  18  21
ENDBRANCH  16  18
ENDBRANCH  15  16
ENDBRANCH   8  15
ENDBRANCH   1   8
BRANCH   4  27
ATOM     27  C   UNL     1      -0.125  -0.109  -0.103  0.00  0.00    -0.007 C 
BRANCH  27  28
ATOM     28  C   UNL     1      -0.333   1.378  -0.230  0.00  0.00    -0.057 A 
ATOM     29  C   UNL     1      -1.615   1.893  -0.298  0.00  0.00    +0.002 A 
ATOM     30  C   UNL     1      -1.806   3.257  -0.410  0.00  0.00    +0.000 A 
ATOM     31  C   UNL     1      -0.717   4.106  -0.465  0.00  0.00    +0.000 A 
ATOM     32  C   UNL     1       0.565   3.591  -0.403  0.00  0.00    +0.000 A 
ATOM     33  C   UNL     1       0.756   2.227  -0.285  0.00  0.00    +0.002 A 
ENDBRANCH  27  28
BRANCH  27  34
ATOM     34  C   UNL     1      -0.279  -0.756  -1.455  0.00  0.00    -0.057 A 
ATOM     35  C   UNL     1      -1.540  -1.016  -1.957  0.00  0.00    +0.002 A 
ATOM     36  C   UNL     1      -1.682  -1.605  -3.200  0.00  0.00    +0.000 A 
ATOM     37  C   UNL     1      -0.562  -1.943  -3.936  0.00  0.00    +0.000 A 
ATOM     38  C   UNL     1       0.700  -1.688  -3.432  0.00  0.00    +0.000 A 
ATOM     39  C   UNL     1       0.841  -1.094  -2.191  0.00  0.00    +0.002 A 
ENDBRANCH  27  34
ENDBRANCH   4  27
TORSDOF 9
