REMARK  Name = ZINC08994397
REMARK  5 active torsions:
REMARK  status: ('A' for Active; 'I' for Inactive)
REMARK    1  A    between atoms: C_1  and  C_2
REMARK    2  A    between atoms: C_2  and  C_35
REMARK    3  A    between atoms: C_6  and  C_24
REMARK    4  A    between atoms: C_16  and  C_18
REMARK    5  A    between atoms: C_27  and  N_29
REMARK                            x       y       z     vdW  Elec       q    Type
REMARK                         _______ _______ _______ _____ _____    ______ ____
ROOT
ATOM      1  C   UNL     1      -4.488   6.050  -3.421  0.00  0.00    +0.011 C 
ATOM      2  C   UNL     1      -3.500   4.898  -3.611  0.00  0.00    -0.023 C 
ATOM      3  C   UNL     1      -2.310   5.076  -2.671  0.00  0.00    +0.058 C 
ATOM      4  C   UNL     1      -2.787   5.093  -1.228  0.00  0.00    +0.017 C 
ATOM      5  C   UNL     1      -3.853   4.365  -0.855  0.00  0.00    +0.038 C 
ATOM      6  C   UNL     1      -4.417   4.271   0.543  0.00  0.00    +0.153 C 
ATOM      7  N   UNL     1      -3.881   5.245   1.469  0.00  0.00    -0.253 N 
ATOM      8  C   UNL     1      -2.537   5.235   1.832  0.00  0.00    +0.059 A 
ATOM      9  C   UNL     1      -2.136   4.910   3.119  0.00  0.00    +0.025 A 
ATOM     10  C   UNL     1      -0.786   4.804   3.404  0.00  0.00    +0.002 A 
ATOM     11  C   UNL     1       0.157   5.022   2.416  0.00  0.00    +0.002 A 
ATOM     12  C   UNL     1      -0.239   5.368   1.135  0.00  0.00    +0.025 A 
ATOM     13  C   UNL     1      -1.589   5.491   0.853  0.00  0.00    +0.053 A 
ATOM     14  N   UNL     1      -2.054   5.878  -0.398  0.00  0.00    -0.316 N 
ATOM     15  C   UNL     1      -4.699   6.180   1.994  0.00  0.00    +0.252 C 
ATOM     16  O   UNL     1      -5.857   6.248   1.631  0.00  0.00    -0.270 OA
ATOM     17  C   UNL     1      -4.560   3.596  -1.810  0.00  0.00    +0.163 C 
ATOM     18  O   UNL     1      -5.511   2.936  -1.442  0.00  0.00    -0.292 OA
ATOM     19  C   UNL     1      -4.178   3.568  -3.259  0.00  0.00    +0.086 C 
ATOM     20  C   UNL     1      -3.014   4.864  -5.062  0.00  0.00    +0.011 C 
ATOM     21  H   UNL     1      -1.788   6.901  -0.701  0.00  0.00    +0.152 HD
ENDROOT
BRANCH  15  22
ATOM     22  C   UNL     1      -4.187   7.121   3.012  0.00  0.00    +0.037 A 
ATOM     23  C   UNL     1      -2.917   7.685   2.871  0.00  0.00    +0.013 A 
ATOM     24  C   UNL     1      -2.448   8.567   3.822  0.00  0.00    +0.001 A 
ATOM     25  C   UNL     1      -3.228   8.886   4.919  0.00  0.00    +0.000 A 
ATOM     26  C   UNL     1      -4.485   8.327   5.068  0.00  0.00    +0.001 A 
ATOM     27  C   UNL     1      -4.968   7.447   4.122  0.00  0.00    +0.013 A 
ENDBRANCH  15  22
BRANCH   6  28
ATOM     28  C   UNL     1      -4.131   2.892   1.081  0.00  0.00    +0.017 A 
ATOM     29  C   UNL     1      -4.940   1.805   1.117  0.00  0.00    +0.016 A 
ATOM     30  C   UNL     1      -4.460   0.630   1.665  0.00  0.00    +0.041 A 
ATOM     31  C   UNL     1      -3.195   0.600   2.151  0.00  0.00    +0.164 A 
ATOM     32  S   UNL     1      -2.642   2.270   1.845  0.00  0.00    -0.067 S 
BRANCH  31  33
ATOM     33  N   UNL     1      -2.464  -0.524   2.778  0.00  0.00    +0.063 N 
ATOM     34  O   UNL     1      -3.008  -1.605   2.911  0.00  0.00    -0.126 OA
ATOM     35  O   UNL     1      -1.316  -0.368   3.156  0.00  0.00    -0.126 OA
ENDBRANCH  31  33
ENDBRANCH   6  28
TORSDOF 3
