REMARK  Name = ZINC14184746
REMARK  9 active torsions:
REMARK  status: ('A' for Active; 'I' for Inactive)
REMARK    1  A    between atoms: C_1  and  O_2
REMARK    2  A    between atoms: O_2  and  C_3
REMARK    3  A    between atoms: C_6  and  C_9
REMARK    4  A    between atoms: C_9  and  C_11
REMARK    5  A    between atoms: C_9  and  N_66
REMARK    6  A    between atoms: C_11  and  N_12
REMARK    7  A    between atoms: C_13  and  C_15
REMARK    8  A    between atoms: N_20  and  S_22
REMARK    9  A    between atoms: S_22  and  C_25
REMARK                            x       y       z     vdW  Elec       q    Type
REMARK                         _______ _______ _______ _____ _____    ______ ____
ROOT
ATOM      1  N   UNL     1       0.026   4.420   5.442  0.00  0.00    -0.316 N 
ATOM      2  C   UNL     1      -0.290   4.313   4.136  0.00  0.00    +0.217 C 
ATOM      3  O   UNL     1      -0.598   5.301   3.504  0.00  0.00    -0.275 OA
ATOM      4  H   UNL     1       0.273   3.630   5.947  0.00  0.00    +0.149 HD
ENDROOT
BRANCH   2   5
ATOM      5  C   UNL     1      -0.260   2.966   3.461  0.00  0.00    +0.091 C 
ATOM      6  C   UNL     1      -1.245   2.024   4.158  0.00  0.00    +0.015 C 
ATOM      7  C   UNL     1      -1.191   0.646   3.495  0.00  0.00    +0.018 C 
ATOM      8  C   UNL     1      -1.603   0.775   2.025  0.00  0.00    +0.109 C 
ATOM      9  N   UNL     1      -0.753   1.787   1.383  0.00  0.00    -0.176 NA
ATOM     10  C   UNL     1      -0.657   3.119   1.994  0.00  0.00    +0.122 C 
BRANCH   9  11
ATOM     11  S   UNL     1       0.085   1.430  -0.000  0.00  0.00    +0.061 S 
ATOM     12  O   UNL     1       0.256   0.020  -0.020  0.00  0.00    -0.153 OA
ATOM     13  O   UNL     1       1.183   2.331  -0.053  0.00  0.00    -0.153 OA
BRANCH  11  14
ATOM     14  C   UNL     1      -0.960   1.830  -1.361  0.00  0.00    +0.106 A 
ATOM     15  C   UNL     1      -1.812   0.874  -1.882  0.00  0.00    +0.031 A 
ATOM     16  C   UNL     1      -2.636   1.188  -2.946  0.00  0.00    +0.040 A 
ATOM     17  C   UNL     1      -2.600   2.457  -3.497  0.00  0.00    +0.124 A 
ATOM     18  C   UNL     1      -1.743   3.413  -2.978  0.00  0.00    +0.040 A 
ATOM     19  C   UNL     1      -0.924   3.098  -1.911  0.00  0.00    +0.031 A 
ATOM     20  F   UNL     1      -3.402   2.764  -4.541  0.00  0.00    -0.205 F 
ENDBRANCH  11  14
ENDBRANCH   9  11
ENDBRANCH   2   5
BRANCH   1  21
ATOM     21  C   UNL     1      -0.003   5.730   6.097  0.00  0.00    +0.093 C 
BRANCH  21  22
ATOM     22  C   UNL     1       0.280   5.559   7.591  0.00  0.00    -0.020 C 
BRANCH  22  26
ATOM     23  C   UNL     1       4.273   4.138   8.132  0.00  0.00    +0.120 A 
ATOM     24  C   UNL     1       3.207   3.253   8.197  0.00  0.00    +0.046 A 
ATOM     25  C   UNL     1       1.916   3.715   8.022  0.00  0.00    +0.005 A 
ATOM     26  C   UNL     1       1.688   5.058   7.782  0.00  0.00    -0.059 A 
ATOM     27  C   UNL     1       2.750   5.940   7.712  0.00  0.00    +0.005 A 
ATOM     28  C   UNL     1       4.042   5.484   7.892  0.00  0.00    +0.046 A 
BRANCH  23  30
ATOM     29  C   UNL     1       6.593   4.653   8.224  0.00  0.00    +0.277 C 
ATOM     30  O   UNL     1       5.544   3.686   8.303  0.00  0.00    -0.495 OA
ENDBRANCH  23  30
ENDBRANCH  22  26
BRANCH  22  35
ATOM     31  C   UNL     1      -1.247   7.391   8.080  0.00  0.00    -0.078 C 
ATOM     32  C   UNL     1      -1.391   8.410   9.238  0.00  0.00    -0.020 C 
ATOM     33  C   UNL     1      -0.650   7.716  10.403  0.00  0.00    -0.020 C 
ATOM     34  C   UNL     1       0.300   6.708   9.732  0.00  0.00    -0.078 C 
ATOM     35  N   UNL     1       0.112   6.869   8.289  0.00  0.00    +0.385 N 
ATOM     36  H   UNL     1       0.801   7.536   7.922  0.00  0.00    -0.081 HD
ENDBRANCH  22  35
ENDBRANCH  21  22
ENDBRANCH   1  21
TORSDOF 8
