REMARK  Name = ZINC33596613
REMARK  5 active torsions:
REMARK  status: ('A' for Active; 'I' for Inactive)
REMARK    1  A    between atoms: C_1  and  C_2
REMARK    2  A    between atoms: C_7  and  N_12
REMARK    3  A    between atoms: C_9  and  C_11
REMARK    4  A    between atoms: C_13  and  C_15
REMARK    5  A    between atoms: C_18  and  C_20
REMARK                            x       y       z     vdW  Elec       q    Type
REMARK                         _______ _______ _______ _____ _____    ______ ____
ROOT
ATOM      1  C   UNL     1      -1.265  -0.759   0.010  0.00  0.00    +0.164 A 
ATOM      2  C   UNL     1      -1.397  -2.114  -0.002  0.00  0.00    +0.230 A 
ATOM      3  O   UNL     1      -2.713  -2.383   0.014  0.00  0.00    -0.443 OA
ATOM      4  C   UNL     1      -3.380  -1.215   0.027  0.00  0.00    +0.229 A 
ATOM      5  N   UNL     1      -2.517  -0.231   0.024  0.00  0.00    -0.204 NA
ENDROOT
BRANCH   4   6
ATOM      6  C   UNL     1      -4.850  -1.067   0.041  0.00  0.00    +0.055 A 
ATOM      7  C   UNL     1      -5.679  -2.198   0.037  0.00  0.00    +0.018 A 
ATOM      8  C   UNL     1      -7.046  -2.009   0.056  0.00  0.00    +0.044 A 
ATOM      9  C   UNL     1      -7.554  -0.712   0.068  0.00  0.00    +0.116 A 
ATOM     10  N   UNL     1      -6.743   0.336   0.067  0.00  0.00    -0.240 NA
ATOM     11  C   UNL     1      -5.433   0.200   0.054  0.00  0.00    +0.126 A 
ATOM     12  N   UNL     1      -8.927  -0.515   0.082  0.00  0.00    -0.343 N 
ATOM     13  H   UNL     1      -9.336   0.506   0.092  0.00  0.00    +0.144 HD
ATOM     14  H   UNL     1      -9.607  -1.380   0.084  0.00  0.00    +0.144 HD
ENDBRANCH   4   6
BRANCH   1  16
ATOM     15  N   UNL     1      -0.016   1.344   0.009  0.00  0.00    -0.307 N 
ATOM     16  C   UNL     1       0.002  -0.004   0.002  0.00  0.00    +0.266 C 
ATOM     17  O   UNL     1       1.063  -0.598  -0.011  0.00  0.00    -0.268 OA
ATOM     18  H   UNL     1      -0.976   1.881   0.021  0.00  0.00    +0.149 HD
BRANCH  15  24
ATOM     19  C   UNL     1      -0.258   5.614   0.427  0.00  0.00    +0.008 C 
ATOM     20  C   UNL     1      -0.033   4.233  -0.193  0.00  0.00    -0.009 C 
ATOM     21  C   UNL     1       0.456   4.393  -1.634  0.00  0.00    +0.003 C 
ATOM     22  C   UNL     1       0.680   3.013  -2.253  0.00  0.00    +0.002 C 
ATOM     23  C   UNL     1       1.731   2.254  -1.440  0.00  0.00    +0.022 C 
ATOM     24  C   UNL     1       1.242   2.093   0.001  0.00  0.00    +0.076 C 
ATOM     25  C   UNL     1       1.018   3.474   0.621  0.00  0.00    +0.009 C 
ATOM     26  C   UNL     1       0.529   3.313   2.062  0.00  0.00    +0.009 C 
ENDBRANCH  15  24
ENDBRANCH   1  16
TORSDOF 3
