REMARK  Name = ZINC16610447
REMARK  12 active torsions:
REMARK  status: ('A' for Active; 'I' for Inactive)
REMARK    1  A    between atoms: C_1  and  C_2
REMARK    2  A    between atoms: C_2  and  N_3
REMARK    3  A    between atoms: C_4  and  C_34
REMARK    4  A    between atoms: C_5  and  C_29
REMARK    5  A    between atoms: C_6  and  C_11
REMARK    6  A    between atoms: C_14  and  N_17
REMARK    7  A    between atoms: N_20  and  C_21
REMARK    8  A    between atoms: C_25  and  C_28
REMARK    9  A    between atoms: C_26  and  C_27
REMARK   10  A    between atoms: C_29  and  O_31
REMARK   11  A    between atoms: O_31  and  C_32
REMARK   12  A    between atoms: C_32  and  C_33
REMARK                            x       y       z     vdW  Elec       q    Type
REMARK                         _______ _______ _______ _____ _____    ______ ____
ROOT
ATOM      1  C   UNL     1      -1.948   1.338   2.317  0.00  0.00    -0.022 A 
ATOM      2  C   UNL     1      -1.444   1.446   3.600  0.00  0.00    +0.007 A 
ATOM      3  C   UNL     1      -2.232   1.108   4.683  0.00  0.00    +0.024 A 
ATOM      4  C   UNL     1      -3.527   0.650   4.482  0.00  0.00    +0.035 A 
ATOM      5  C   UNL     1      -4.028   0.538   3.191  0.00  0.00    +0.024 A 
ATOM      6  C   UNL     1      -3.237   0.882   2.113  0.00  0.00    +0.007 A 
ENDROOT
BRANCH   1  10
ATOM      7  N   UNL     1       1.075   3.437   1.174  0.00  0.00    -0.286 N 
ATOM      8  C   UNL     1      -0.154   3.974   0.924  0.00  0.00    +0.021 C 
ATOM      9  C   UNL     1      -1.260   3.199   0.893  0.00  0.00    +0.078 C 
ATOM     10  C   UNL     1      -1.088   1.714   1.137  0.00  0.00    +0.141 C 
ATOM     11  N   UNL     1       0.280   1.236   1.403  0.00  0.00    -0.315 N 
ATOM     12  C   UNL     1       1.284   2.134   1.402  0.00  0.00    +0.138 C 
ATOM     13  S   UNL     1       2.880   1.592   1.702  0.00  0.00    -0.018 S 
ATOM     14  C   UNL     1      -0.280   5.456   0.680  0.00  0.00    +0.061 C 
ATOM     15  H   UNL     1       0.454   0.296   1.570  0.00  0.00    +0.149 HD
BRANCH   7  17
ATOM     16  C   UNL     1       2.733   4.553  -0.235  0.00  0.00    +0.025 C 
ATOM     17  C   UNL     1       2.231   4.336   1.194  0.00  0.00    +0.109 C 
ENDBRANCH   7  17
BRANCH   9  18
ATOM     18  C   UNL     1      -2.535   3.754   0.634  0.00  0.00    +0.339 C 
ATOM     19  O   UNL     1      -2.649   4.949   0.435  0.00  0.00    -0.245 OA
BRANCH  18  20
ATOM     20  O   UNL     1      -3.625   2.958   0.608  0.00  0.00    -0.462 OA
BRANCH  20  21
ATOM     21  C   UNL     1      -4.880   3.587   0.340  0.00  0.00    +0.229 C 
ATOM     22  C   UNL     1      -5.990   2.533   0.351  0.00  0.00    +0.048 C 
ENDBRANCH  20  21
ENDBRANCH  18  20
ENDBRANCH   9  18
ENDBRANCH   1  10
BRANCH   4  23
ATOM     23  N   UNL     1      -4.326   0.302   5.577  0.00  0.00    -0.269 N 
ATOM     24  C   UNL     1      -5.187  -0.730   5.482  0.00  0.00    +0.308 C 
ATOM     25  O   UNL     1      -5.328  -1.309   4.421  0.00  0.00    -0.252 OA
ATOM     26  N   UNL     1      -5.892  -1.122   6.562  0.00  0.00    -0.269 N 
ATOM     27  H   UNL     1      -4.260   0.804   6.404  0.00  0.00    +0.156 HD
ATOM     28  H   UNL     1      -5.821  -0.627   7.393  0.00  0.00    +0.156 HD
BRANCH  26  29
ATOM     29  C   UNL     1      -6.726  -2.242   6.484  0.00  0.00    +0.038 A 
ATOM     30  C   UNL     1      -7.313  -2.591   5.274  0.00  0.00    +0.023 A 
ATOM     31  C   UNL     1      -8.135  -3.698   5.201  0.00  0.00    +0.002 A 
ATOM     32  C   UNL     1      -8.376  -4.459   6.331  0.00  0.00    +0.004 A 
ATOM     33  C   UNL     1      -7.793  -4.114   7.537  0.00  0.00    -0.046 A 
ATOM     34  C   UNL     1      -6.966  -3.011   7.616  0.00  0.00    -0.026 A 
ATOM     35  C   UNL     1      -6.327  -2.639   8.929  0.00  0.00    +0.046 C 
ATOM     36  C   UNL     1      -8.058  -4.946   8.765  0.00  0.00    +0.044 C 
ENDBRANCH  26  29
ENDBRANCH   4  23
TORSDOF 7
