REMARK  Name = ZINC67570008
REMARK  5 active torsions:
REMARK  status: ('A' for Active; 'I' for Inactive)
REMARK    1  A    between atoms: C_4  and  C_7
REMARK    2  A    between atoms: C_7  and  N_8
REMARK    3  A    between atoms: C_13  and  C_15
REMARK    4  A    between atoms: C_15  and  N_16
REMARK    5  A    between atoms: C_22  and  C_25
REMARK                            x       y       z     vdW  Elec       q    Type
REMARK                         _______ _______ _______ _____ _____    ______ ____
ROOT
ATOM      1  C   UNL     1       6.456  -0.861   0.522  0.00  0.00    +0.090 C 
ENDROOT
BRANCH   1   2
ATOM      2  N   UNL     1       6.639   0.451   1.148  0.00  0.00    -0.301 N 
ATOM      3  C   UNL     1       7.425   1.375   0.560  0.00  0.00    +0.302 C 
ATOM      4  O   UNL     1       8.053   1.090  -0.441  0.00  0.00    -0.253 OA
ATOM      5  N   UNL     1       7.513   2.615   1.081  0.00  0.00    -0.286 N 
ATOM      6  C   UNL     1       8.270   3.666   0.388  0.00  0.00    +0.110 C 
ATOM      7  C   UNL     1       9.292   4.262   1.362  0.00  0.00    +0.032 C 
ATOM      8  C   UNL     1       8.570   4.736   2.625  0.00  0.00    +0.078 C 
ATOM      9  C   UNL     1       7.892   3.545   3.305  0.00  0.00    +0.032 C 
ATOM     10  C   UNL     1       6.850   2.942   2.351  0.00  0.00    +0.110 C 
ATOM     11  H   UNL     1       6.194   0.655   1.986  0.00  0.00    +0.150 HD
BRANCH   8  12
ATOM     12  C   UNL     1       9.567   5.354   3.571  0.00  0.00    +0.214 C 
ATOM     13  O   UNL     1      10.739   5.409   3.265  0.00  0.00    -0.276 OA
ATOM     14  N   UNL     1       9.156   5.845   4.757  0.00  0.00    -0.329 N 
ATOM     15  H   UNL     1       8.218   5.801   5.002  0.00  0.00    +0.145 HD
ATOM     16  H   UNL     1       9.798   6.242   5.366  0.00  0.00    +0.145 HD
ENDBRANCH   8  12
ENDBRANCH   1   2
BRANCH   1  22
ATOM     17  N   UNL     1       4.194  -0.888   1.456  0.00  0.00    +0.385 N 
ATOM     18  C   UNL     1       3.177  -1.684   2.153  0.00  0.00    -0.078 C 
ATOM     19  C   UNL     1       3.655  -1.998   3.572  0.00  0.00    -0.019 C 
ATOM     20  C   UNL     1       4.964  -2.790   3.501  0.00  0.00    -0.003 C 
ATOM     21  C   UNL     1       5.995  -1.982   2.707  0.00  0.00    -0.014 C 
ATOM     22  C   UNL     1       5.430  -1.668   1.319  0.00  0.00    -0.051 C 
ATOM     23  H   UNL     1       4.383  -0.050   1.984  0.00  0.00    -0.081 HD
BRANCH  17  24
ATOM     24  C   UNL     1       3.698  -0.523   0.122  0.00  0.00    -0.043 C 
BRANCH  24  28
ATOM     25  C   UNL     1       0.281   2.010   0.515  0.00  0.00    +0.000 A 
ATOM     26  C   UNL     1       1.546   2.562   0.451  0.00  0.00    +0.000 A 
ATOM     27  C   UNL     1       2.652   1.742   0.324  0.00  0.00    +0.002 A 
ATOM     28  C   UNL     1       2.492   0.370   0.262  0.00  0.00    -0.064 A 
ATOM     29  C   UNL     1       1.227  -0.182   0.327  0.00  0.00    +0.002 A 
ATOM     30  C   UNL     1       0.121   0.638   0.453  0.00  0.00    +0.000 A 
ENDBRANCH  24  28
ENDBRANCH  17  24
ENDBRANCH   1  22
TORSDOF 5
