REMARK  Name = ZINC09244345
REMARK  17 active torsions:
REMARK  status: ('A' for Active; 'I' for Inactive)
REMARK    1  A    between atoms: C_1  and  C_2
REMARK    2  A    between atoms: C_2  and  O_3
REMARK    3  A    between atoms: O_3  and  C_4
REMARK    4  A    between atoms: C_6  and  C_11
REMARK    5  A    between atoms: C_9  and  O_10
REMARK    6  A    between atoms: C_14  and  C_15
REMARK    7  A    between atoms: C_14  and  O_26
REMARK    8  A    between atoms: C_18  and  O_21
REMARK    9  A    between atoms: O_21  and  C_22
REMARK   10  A    between atoms: C_22  and  C_23
REMARK   11  A    between atoms: C_23  and  C_24
REMARK   12  A    between atoms: C_23  and  C_25
REMARK   13  A    between atoms: N_31  and  C_32
REMARK   14  A    between atoms: C_32  and  C_33
REMARK   15  A    between atoms: C_33  and  N_69
REMARK   16  A    between atoms: C_34  and  N_69
REMARK   17  A    between atoms: C_35  and  N_69
REMARK                            x       y       z     vdW  Elec       q    Type
REMARK                         _______ _______ _______ _____ _____    ______ ____
ROOT
ATOM      1  C   UNL     1       1.882  -1.625   3.765  0.00  0.00    +0.144 C 
ATOM      2  C   UNL     1       2.169  -2.020   5.195  0.00  0.00    +0.071 C 
ATOM      3  C   UNL     1       3.410  -2.131   5.793  0.00  0.00    +0.133 C 
ATOM      4  C   UNL     1       0.922  -2.257   5.792  0.00  0.00    +0.249 C 
ATOM      5  O   UNL     1       0.736  -2.602   6.945  0.00  0.00    -0.282 OA
ATOM      6  C   UNL     1      -0.134  -2.015   4.773  0.00  0.00    +0.288 C 
ATOM      7  O   UNL     1      -1.327  -2.132   4.966  0.00  0.00    -0.266 OA
ATOM      8  N   UNL     1       0.425  -1.648   3.607  0.00  0.00    -0.285 N 
ENDROOT
BRANCH   1  11
ATOM      9  C   UNL     1       4.072   1.205   2.553  0.00  0.00    +0.162 A 
ATOM     10  C   UNL     1       3.589  -0.070   2.802  0.00  0.00    +0.055 A 
ATOM     11  C   UNL     1       2.408  -0.238   3.500  0.00  0.00    -0.019 A 
ATOM     12  C   UNL     1       1.711   0.864   3.961  0.00  0.00    +0.009 A 
ATOM     13  C   UNL     1       2.189   2.138   3.720  0.00  0.00    +0.049 A 
ATOM     14  C   UNL     1       3.370   2.314   3.016  0.00  0.00    +0.158 A 
BRANCH  14  15
ATOM     15  O   UNL     1       3.842   3.567   2.779  0.00  0.00    -0.503 OA
ATOM     16  H   UNL     1       4.434   3.901   3.467  0.00  0.00    +0.292 HD
ENDBRANCH  14  15
BRANCH   9  17
ATOM     17  O   UNL     1       5.231   1.372   1.862  0.00  0.00    -0.489 OA
BRANCH  17  19
ATOM     18  C   UNL     1       7.173   0.574   0.664  0.00  0.00    +0.048 C 
ATOM     19  C   UNL     1       5.897   0.189   1.417  0.00  0.00    +0.226 C 
ENDBRANCH  17  19
ENDBRANCH   9  17
ENDBRANCH   1  11
BRANCH   3  20
ATOM     20  C   UNL     1       3.510  -2.389   7.237  0.00  0.00    +0.017 A 
ATOM     21  C   UNL     1       2.807  -1.588   8.144  0.00  0.00    +0.015 A 
ATOM     22  C   UNL     1       2.900  -1.837   9.495  0.00  0.00    +0.046 A 
ATOM     23  C   UNL     1       3.699  -2.876   9.959  0.00  0.00    +0.121 A 
ATOM     24  C   UNL     1       4.404  -3.671   9.062  0.00  0.00    +0.046 A 
ATOM     25  C   UNL     1       4.314  -3.433   7.710  0.00  0.00    +0.015 A 
BRANCH  23  26
ATOM     26  O   UNL     1       3.792  -3.114  11.292  0.00  0.00    -0.492 OA
BRANCH  26  27
ATOM     27  C   UNL     1       3.042  -2.259  12.157  0.00  0.00    +0.232 C 
BRANCH  27  28
ATOM     28  C   UNL     1       3.271  -2.678  13.611  0.00  0.00    +0.020 C 
ATOM     29  C   UNL     1       4.736  -2.445  13.984  0.00  0.00    +0.010 C 
ATOM     30  C   UNL     1       2.373  -1.845  14.529  0.00  0.00    +0.010 C 
ENDBRANCH  27  28
ENDBRANCH  26  27
ENDBRANCH  23  26
ENDBRANCH   3  20
BRANCH   3  31
ATOM     31  O   UNL     1       4.530  -2.002   5.050  0.00  0.00    -0.506 OA
ATOM     32  H   UNL     1       5.333  -2.109   5.637  0.00  0.00    +0.292 HD
ENDBRANCH   3  31
BRANCH   8  33
ATOM     33  C   UNL     1      -0.303  -1.329   2.377  0.00  0.00    +0.090 C 
BRANCH  33  34
ATOM     34  C   UNL     1      -0.628   0.166   2.350  0.00  0.00    -0.060 C 
BRANCH  34  37
ATOM     35  C   UNL     1      -0.507   0.292  -0.065  0.00  0.00    -0.097 C 
ATOM     36  C   UNL     1      -1.892   1.854   1.161  0.00  0.00    -0.097 C 
ATOM     37  N   UNL     1      -1.380   0.468   1.114  0.00  0.00    +0.377 N 
ATOM     38  H   UNL     1      -2.174  -0.178   1.041  0.00  0.00    -0.083 HD
ENDBRANCH  34  37
ENDBRANCH  33  34
ENDBRANCH   8  33
TORSDOF 12
