REMARK  Name = ZINC15218779
REMARK  3 active torsions:
REMARK  status: ('A' for Active; 'I' for Inactive)
REMARK    1  A    between atoms: C_5  and  O_15
REMARK    2  A    between atoms: C_6  and  C_7
REMARK    3  A    between atoms: N_8  and  C_9
REMARK                            x       y       z     vdW  Elec       q    Type
REMARK                         _______ _______ _______ _____ _____    ______ ____
ROOT
ATOM      1  C   UNL     1      -0.017   1.395   0.010  0.00  0.00    +0.027 A 
ATOM      2  C   UNL     1       1.169   2.098   0.002  0.00  0.00    +0.015 A 
ATOM      3  C   UNL     1       2.380   1.425  -0.013  0.00  0.00    +0.032 A 
ATOM      4  C   UNL     1       2.414   0.044  -0.021  0.00  0.00    +0.056 A 
ATOM      5  C   UNL     1       1.232  -0.680  -0.014  0.00  0.00    +0.139 A 
ATOM      6  C   UNL     1       0.002  -0.004   0.002  0.00  0.00    +0.037 A 
ATOM      7  I   UNL     1       4.254  -0.957  -0.045  0.00  0.00    -0.040 I 
ATOM      8  I   UNL     1       1.139   4.192   0.013  0.00  0.00    -0.044 I 
ENDROOT
BRANCH   6   9
ATOM      9  C   UNL     1      -1.258  -0.761   0.011  0.00  0.00    +0.125 C 
ATOM     10  N   UNL     1      -1.235  -2.065   0.003  0.00  0.00    -0.230 NA
BRANCH  10  11
ATOM     11  C   UNL     1      -2.407  -2.769   0.011  0.00  0.00    +0.238 A 
ATOM     12  C   UNL     1      -2.533  -4.234   0.010  0.00  0.00    +0.206 A 
ATOM     13  N   UNL     1      -3.801  -4.535   0.020  0.00  0.00    -0.032 NA
ATOM     14  O   UNL     1      -4.539  -3.326   0.028  0.00  0.00    -0.239 OA
ATOM     15  N   UNL     1      -3.611  -2.255   0.026  0.00  0.00    -0.027 NA
ATOM     16  N   UNL     1      -1.481  -5.141   0.001  0.00  0.00    -0.337 N 
ATOM     17  H   UNL     1      -0.565  -4.822  -0.006  0.00  0.00    +0.144 HD
ATOM     18  H   UNL     1      -1.663  -6.094   0.001  0.00  0.00    +0.144 HD
ENDBRANCH  10  11
ENDBRANCH   6   9
BRANCH   5  19
ATOM     19  O   UNL     1       1.264  -2.037  -0.022  0.00  0.00    -0.505 OA
ATOM     20  H   UNL     1       1.282  -2.436   0.859  0.00  0.00    +0.292 HD
ENDBRANCH   5  19
TORSDOF 3
