REMARK  Name = ZINC37981423
REMARK  4 active torsions:
REMARK  status: ('A' for Active; 'I' for Inactive)
REMARK    1  A    between atoms: C_1  and  C_2
REMARK    2  A    between atoms: C_3  and  S_9
REMARK    3  A    between atoms: S_9  and  N_12
REMARK    4  A    between atoms: C_20  and  C_22
REMARK                            x       y       z     vdW  Elec       q    Type
REMARK                         _______ _______ _______ _____ _____    ______ ____
ROOT
ATOM      1  S   UNL     1      -2.797  -0.150   0.016  0.00  0.00    +0.069 S 
ATOM      2  O   UNL     1      -3.492  -0.955   0.959  0.00  0.00    -0.152 OA
ATOM      3  O   UNL     1      -2.745   1.266   0.116  0.00  0.00    -0.152 OA
ENDROOT
BRANCH   1   4
ATOM      4  N   UNL     1      -3.443  -0.496  -1.469  0.00  0.00    -0.169 NA
ATOM      5  C   UNL     1      -3.348   0.476  -2.568  0.00  0.00    +0.115 C 
ATOM      6  C   UNL     1      -2.474  -0.133  -3.676  0.00  0.00    +0.060 C 
ATOM      7  C   UNL     1      -2.866  -1.562  -3.864  0.00  0.00    -0.004 A 
ATOM      8  C   UNL     1      -3.590  -2.349  -3.022  0.00  0.00    -0.019 A 
ATOM      9  C   UNL     1      -3.812  -3.663  -3.430  0.00  0.00    +0.013 A 
ATOM     10  C   UNL     1      -3.323  -4.096  -4.614  0.00  0.00    +0.046 A 
ATOM     11  S   UNL     1      -2.499  -2.634  -5.229  0.00  0.00    -0.101 S 
ATOM     12  C   UNL     1      -4.113  -1.782  -1.708  0.00  0.00    +0.107 C 
ATOM     13  C   UNL     1      -5.624  -1.567  -1.807  0.00  0.00    +0.031 C 
ENDBRANCH   1   4
BRANCH   1  16
ATOM     14  C   UNL     1      -0.018   1.503   0.010  0.00  0.00    +0.066 C 
ATOM     15  C   UNL     1       0.002  -0.004   0.002  0.00  0.00    +0.050 A 
ATOM     16  C   UNL     1      -1.129  -0.716   0.004  0.00  0.00    +0.166 A 
ATOM     17  S   UNL     1      -0.508  -2.388  -0.008  0.00  0.00    -0.007 S 
ATOM     18  C   UNL     1       1.138  -2.048  -0.015  0.00  0.00    +0.290 A 
ATOM     19  O   UNL     1       2.072  -2.830  -0.024  0.00  0.00    -0.260 OA
ATOM     20  N   UNL     1       1.176  -0.699  -0.013  0.00  0.00    -0.318 N 
ATOM     21  H   UNL     1       2.025  -0.230  -0.020  0.00  0.00    +0.169 HD
ENDBRANCH   1  16
TORSDOF 2
