REMARK  Name = ZINC01602348
REMARK  4 active torsions:
REMARK  status: ('A' for Active; 'I' for Inactive)
REMARK    1  A    between atoms: C_4  and  C_7
REMARK    2  A    between atoms: C_7  and  N_8
REMARK    3  A    between atoms: C_14  and  C_18
REMARK    4  A    between atoms: C_16  and  N_17
REMARK                            x       y       z     vdW  Elec       q    Type
REMARK                         _______ _______ _______ _____ _____    ______ ____
ROOT
ATOM      1  N   UNL     1      -2.993   4.114  -1.329  0.00  0.00    -0.310 N 
ATOM      2  C   UNL     1      -2.778   5.248  -2.054  0.00  0.00    +0.202 A 
ATOM      3  N   UNL     1      -3.304   5.125  -3.238  0.00  0.00    -0.231 NA
ATOM      4  C   UNL     1      -3.888   3.908  -3.348  0.00  0.00    +0.147 A 
ATOM      5  C   UNL     1      -3.690   3.242  -2.126  0.00  0.00    +0.166 A 
ATOM      6  N   UNL     1      -4.179   2.016  -1.972  0.00  0.00    -0.204 NA
ATOM      7  C   UNL     1      -4.830   1.425  -2.952  0.00  0.00    +0.238 A 
ATOM      8  N   UNL     1      -5.037   2.008  -4.118  0.00  0.00    -0.207 NA
ATOM      9  C   UNL     1      -4.590   3.236  -4.363  0.00  0.00    +0.148 A 
ENDROOT
BRANCH   7  10
ATOM     10  C   UNL     1      -5.361   0.032  -2.734  0.00  0.00    +0.452 C 
ATOM     11  F   UNL     1      -5.704  -0.535  -3.966  0.00  0.00    -0.163 F 
ATOM     12  F   UNL     1      -4.377  -0.751  -2.119  0.00  0.00    -0.163 F 
ATOM     13  F   UNL     1      -6.493   0.086  -1.914  0.00  0.00    -0.163 F 
ENDBRANCH   7  10
BRANCH   9  14
ATOM     14  N   UNL     1      -4.811   3.839  -5.589  0.00  0.00    -0.341 N 
ATOM     15  H   UNL     1      -5.337   4.679  -5.457  0.00  0.00    +0.144 HD
ATOM     16  H   UNL     1      -5.297   3.365  -6.282  0.00  0.00    +0.144 HD
ENDBRANCH   9  14
BRANCH   1  17
ATOM     17  C   UNL     1      -2.553   3.869   0.047  0.00  0.00    +0.159 C 
BRANCH  17  21
ATOM     18  C   UNL     1       1.175   1.783   0.000  0.00  0.00    +0.000 A 
ATOM     19  C   UNL     1      -0.013   1.076   0.008  0.00  0.00    +0.000 A 
ATOM     20  C   UNL     1      -1.219   1.751   0.017  0.00  0.00    +0.005 A 
ATOM     21  C   UNL     1      -1.238   3.133   0.030  0.00  0.00    -0.028 A 
ATOM     22  C   UNL     1      -0.050   3.840   0.022  0.00  0.00    +0.005 A 
ATOM     23  C   UNL     1       1.156   3.165   0.008  0.00  0.00    +0.000 A 
ENDBRANCH  17  21
ENDBRANCH   1  17
TORSDOF 4
