REMARK  Name = ZINC02394435
REMARK  8 active torsions:
REMARK  status: ('A' for Active; 'I' for Inactive)
REMARK    1  A    between atoms: C_4  and  C_7
REMARK    2  A    between atoms: C_7  and  C_8
REMARK    3  A    between atoms: C_8  and  C_9
REMARK    4  A    between atoms: C_9  and  N_10
REMARK    5  A    between atoms: C_11  and  C_13
REMARK    6  A    between atoms: N_24  and  N_27
REMARK    7  A    between atoms: C_25  and  N_26
REMARK    8  A    between atoms: C_28  and  C_29
REMARK                            x       y       z     vdW  Elec       q    Type
REMARK                         _______ _______ _______ _____ _____    ______ ____
ROOT
ATOM      1  C   UNL     1       0.103  -4.353   4.385  0.00  0.00    +0.105 A 
ATOM      2  C   UNL     1       1.294  -4.635   5.203  0.00  0.00    +0.124 A 
ATOM      3  C   UNL     1       0.778  -5.104   6.493  0.00  0.00    +0.183 A 
ATOM      4  N   UNL     1       1.623  -5.438   7.444  0.00  0.00    -0.224 NA
ATOM      5  C   UNL     1       2.942  -5.347   7.228  0.00  0.00    +0.092 A 
ATOM      6  C   UNL     1       3.853  -5.702   8.241  0.00  0.00    +0.030 A 
ATOM      7  C   UNL     1       5.190  -5.607   8.012  0.00  0.00    +0.002 A 
ATOM      8  C   UNL     1       5.678  -5.161   6.785  0.00  0.00    +0.002 A 
ATOM      9  C   UNL     1       4.829  -4.809   5.782  0.00  0.00    +0.030 A 
ATOM     10  C   UNL     1       3.438  -4.894   5.980  0.00  0.00    +0.090 A 
ATOM     11  N   UNL     1       2.593  -4.550   5.000  0.00  0.00    -0.241 NA
ATOM     12  N   UNL     1      -0.600  -5.086   6.406  0.00  0.00    -0.198 N 
ATOM     13  C   UNL     1      -1.001  -4.644   5.181  0.00  0.00    +0.134 A 
ENDROOT
BRANCH   1  15
ATOM     14  N   UNL     1       0.063  -2.547   2.812  0.00  0.00    -0.311 N 
ATOM     15  C   UNL     1       0.084  -3.873   3.051  0.00  0.00    +0.250 C 
ATOM     16  O   UNL     1       0.086  -4.660   2.121  0.00  0.00    -0.270 OA
ATOM     17  H   UNL     1       0.062  -1.921   3.552  0.00  0.00    +0.149 HD
BRANCH  14  18
ATOM     18  C   UNL     1       0.043  -2.052   1.433  0.00  0.00    +0.105 C 
BRANCH  18  19
ATOM     19  C   UNL     1       0.023  -0.522   1.442  0.00  0.00    +0.023 C 
BRANCH  19  20
ATOM     20  C   UNL     1       0.002  -0.004   0.002  0.00  0.00    +0.036 C 
BRANCH  20  24
ATOM     21  C   UNL     1      -0.056   4.267   0.025  0.00  0.00    +0.000 A 
ATOM     22  C   UNL     1       1.151   3.592   0.010  0.00  0.00    +0.000 A 
ATOM     23  C   UNL     1       1.169   2.210   0.003  0.00  0.00    +0.003 A 
ATOM     24  C   UNL     1      -0.018   1.503   0.010  0.00  0.00    -0.047 A 
ATOM     25  C   UNL     1      -1.225   2.178   0.020  0.00  0.00    +0.003 A 
ATOM     26  C   UNL     1      -1.244   3.560   0.032  0.00  0.00    +0.000 A 
ENDBRANCH  20  24
ENDBRANCH  19  20
ENDBRANCH  18  19
ENDBRANCH  14  18
ENDBRANCH   1  15
BRANCH  13  27
ATOM     27  N   UNL     1      -2.308  -4.509   4.787  0.00  0.00    -0.342 N 
ATOM     28  H   UNL     1      -2.514  -4.190   3.895  0.00  0.00    +0.144 HD
ATOM     29  H   UNL     1      -3.025  -4.733   5.400  0.00  0.00    +0.144 HD
ENDBRANCH  13  27
BRANCH  12  30
ATOM     30  N   UNL     1      -1.468  -5.466   7.439  0.00  0.00    -0.171 NA
ATOM     31  C   UNL     1      -1.881  -4.582   8.299  0.00  0.00    +0.148 C 
BRANCH  31  32
ATOM     32  C   UNL     1      -2.789  -4.979   9.379  0.00  0.00    +0.032 A 
ATOM     33  C   UNL     1      -3.339  -4.204  10.386  0.00  0.00    +0.017 A 
ATOM     34  C   UNL     1      -4.174  -4.810  11.295  0.00  0.00    +0.008 A 
ATOM     35  C   UNL     1      -4.431  -6.139  11.178  0.00  0.00    +0.046 A 
ATOM     36  S   UNL     1      -3.479  -6.586   9.736  0.00  0.00    -0.096 S 
ENDBRANCH  31  32
ENDBRANCH  12  30
TORSDOF 8
