REMARK  Name = ZINC08880079
REMARK  10 active torsions:
REMARK  status: ('A' for Active; 'I' for Inactive)
REMARK    1  A    between atoms: C_1  and  C_2
REMARK    2  A    between atoms: C_2  and  O_3
REMARK    3  A    between atoms: O_3  and  C_4
REMARK    4  A    between atoms: C_4  and  C_6
REMARK    5  A    between atoms: C_7  and  C_29
REMARK    6  A    between atoms: C_8  and  S_26
REMARK    7  A    between atoms: C_9  and  N_11
REMARK    8  A    between atoms: C_12  and  C_14
REMARK    9  A    between atoms: C_18  and  N_23
REMARK   10  A    between atoms: S_26  and  C_27
REMARK                            x       y       z     vdW  Elec       q    Type
REMARK                         _______ _______ _______ _____ _____    ______ ____
ROOT
ATOM      1  N   UNL     1      -2.396  -0.460   0.023  0.00  0.00    -0.275 N 
ATOM      2  C   UNL     1      -1.135  -0.935   0.008  0.00  0.00    +0.255 C 
ATOM      3  O   UNL     1      -0.938  -2.136   0.000  0.00  0.00    -0.269 OA
ATOM      4  H   UNL     1      -2.553   0.498   0.029  0.00  0.00    +0.156 HD
ENDROOT
BRANCH   2   5
ATOM      5  C   UNL     1       0.002  -0.004   0.002  0.00  0.00    +0.075 A 
ATOM      6  C   UNL     1       1.331  -0.290  -0.012  0.00  0.00    +0.029 A 
ATOM      7  C   UNL     1       2.274   0.754  -0.016  0.00  0.00    -0.008 A 
ATOM      8  C   UNL     1       3.689   0.660  -0.030  0.00  0.00    +0.041 A 
ATOM      9  C   UNL     1       4.460   1.778  -0.032  0.00  0.00    +0.127 A 
ATOM     10  C   UNL     1       3.899   3.050  -0.020  0.00  0.00    +0.034 A 
ATOM     11  C   UNL     1       2.526   3.187  -0.005  0.00  0.00    +0.018 A 
ATOM     12  C   UNL     1       1.730   2.061  -0.003  0.00  0.00    +0.020 A 
ATOM     13  S   UNL     1      -0.022   1.780   0.012  0.00  0.00    -0.084 S 
BRANCH   9  14
ATOM     14  N   UNL     1       5.933   1.639  -0.048  0.00  0.00    +0.056 N 
ATOM     15  O   UNL     1       6.639   2.632  -0.050  0.00  0.00    -0.126 OA
ATOM     16  O   UNL     1       6.441   0.532  -0.058  0.00  0.00    -0.126 OA
ENDBRANCH   9  14
ENDBRANCH   2   5
BRANCH   1  20
ATOM     17  C   UNL     1      -5.220  -3.396   0.035  0.00  0.00    +0.102 A 
ATOM     18  C   UNL     1      -5.717  -2.098   0.047  0.00  0.00    -0.013 A 
ATOM     19  C   UNL     1      -4.827  -1.056   0.043  0.00  0.00    +0.055 A 
ATOM     20  C   UNL     1      -3.470  -1.340   0.029  0.00  0.00    +0.088 A 
ATOM     21  S   UNL     1      -3.456  -3.124   0.012  0.00  0.00    -0.066 S 
ATOM     22  C   UNL     1      -7.202  -1.842   0.063  0.00  0.00    +0.046 C 
BRANCH  17  23
ATOM     23  C   UNL     1      -5.931  -4.620   0.035  0.00  0.00    +0.346 C 
ATOM     24  O   UNL     1      -7.148  -4.616   0.046  0.00  0.00    -0.244 OA
BRANCH  23  25
ATOM     25  O   UNL     1      -5.260  -5.791   0.023  0.00  0.00    -0.461 OA
BRANCH  25  27
ATOM     26  C   UNL     1      -5.112  -8.203   0.009  0.00  0.00    +0.048 C 
ATOM     27  C   UNL     1      -6.041  -6.987   0.024  0.00  0.00    +0.229 C 
ENDBRANCH  25  27
ENDBRANCH  23  25
ENDBRANCH  17  23
BRANCH  19  28
ATOM     28  S   UNL     1      -5.397   0.611   0.058  0.00  0.00    -0.008 S 
BRANCH  28  29
ATOM     29  C   UNL     1      -5.516   0.918  -1.722  0.00  0.00    +0.138 C 
ATOM     30  N   UNL     1      -5.591   1.111  -2.839  0.00  0.00    -0.183 NA
ENDBRANCH  28  29
ENDBRANCH  19  28
ENDBRANCH   1  20
TORSDOF 8
