REMARK  Name = ZINC08897114
REMARK  6 active torsions:
REMARK  status: ('A' for Active; 'I' for Inactive)
REMARK    1  A    between atoms: C_1  and  C_2
REMARK    2  A    between atoms: C_10  and  N_15
REMARK    3  A    between atoms: C_11  and  C_12
REMARK    4  A    between atoms: C_16  and  C_18
REMARK    5  A    between atoms: N_23  and  S_24
REMARK    6  A    between atoms: S_24  and  C_27
REMARK                            x       y       z     vdW  Elec       q    Type
REMARK                         _______ _______ _______ _____ _____    ______ ____
ROOT
ATOM      1  N   UNL     1      -7.172   2.283  -2.365  0.00  0.00    -0.278 N 
ATOM      2  C   UNL     1      -8.177   1.832  -1.588  0.00  0.00    +0.236 C 
ATOM      3  O   UNL     1      -7.933   1.327  -0.513  0.00  0.00    -0.274 OA
ATOM      4  H   UNL     1      -7.367   2.686  -3.225  0.00  0.00    +0.155 HD
ENDROOT
BRANCH   1  14
ATOM      5  C   UNL     1      -0.311  -0.578   0.329  0.00  0.00    +0.109 C 
ATOM      6  C   UNL     1      -0.136   0.696  -0.457  0.00  0.00    +0.213 C 
ATOM      7  O   UNL     1       0.913   0.921  -1.023  0.00  0.00    -0.276 OA
ATOM      8  N   UNL     1      -1.148   1.583  -0.537  0.00  0.00    -0.297 N 
ATOM      9  C   UNL     1      -1.045   2.785  -1.378  0.00  0.00    +0.113 C 
ATOM     10  C   UNL     1      -2.082   2.715  -2.501  0.00  0.00    +0.056 C 
ATOM     11  C   UNL     1      -3.434   2.335  -1.911  0.00  0.00    -0.020 A 
ATOM     12  C   UNL     1      -3.531   1.743  -0.701  0.00  0.00    +0.013 A 
ATOM     13  S   UNL     1      -5.265   1.494  -0.454  0.00  0.00    -0.076 S 
ATOM     14  C   UNL     1      -5.859   2.169  -1.935  0.00  0.00    +0.084 A 
ATOM     15  C   UNL     1      -4.700   2.570  -2.585  0.00  0.00    +0.068 A 
ATOM     16  C   UNL     1      -2.404   1.381   0.213  0.00  0.00    +0.150 C 
BRANCH  15  17
ATOM     17  C   UNL     1      -4.752   3.208  -3.904  0.00  0.00    +0.244 C 
ATOM     18  O   UNL     1      -4.705   2.527  -4.912  0.00  0.00    -0.270 OA
ATOM     19  N   UNL     1      -4.852   4.549  -4.002  0.00  0.00    -0.325 N 
ATOM     20  H   UNL     1      -4.890   5.092  -3.199  0.00  0.00    +0.145 HD
ATOM     21  H   UNL     1      -4.886   4.971  -4.874  0.00  0.00    +0.145 HD
ENDBRANCH  15  17
ENDBRANCH   1  14
BRANCH   2  22
ATOM     22  C   UNL     1      -9.604   1.955  -2.056  0.00  0.00    +0.166 C 
ATOM     23  C   UNL     1     -10.190   3.308  -1.602  0.00  0.00    +0.031 C 
ATOM     24  C   UNL     1     -11.650   2.940  -1.216  0.00  0.00    +0.019 C 
ATOM     25  C   UNL     1     -11.468   1.522  -0.620  0.00  0.00    +0.110 C 
ATOM     26  N   UNL     1     -10.422   0.895  -1.449  0.00  0.00    -0.165 NA
BRANCH  26  27
ATOM     27  S   UNL     1     -10.206  -0.733  -1.661  0.00  0.00    +0.062 S 
ATOM     28  O   UNL     1      -8.860  -0.912  -2.079  0.00  0.00    -0.153 OA
ATOM     29  O   UNL     1     -10.736  -1.367  -0.506  0.00  0.00    -0.153 OA
BRANCH  27  30
ATOM     30  C   UNL     1     -11.222  -1.221  -3.015  0.00  0.00    +0.106 A 
ATOM     31  C   UNL     1     -12.550  -1.541  -2.802  0.00  0.00    +0.031 A 
ATOM     32  C   UNL     1     -13.350  -1.919  -3.864  0.00  0.00    +0.040 A 
ATOM     33  C   UNL     1     -12.817  -1.988  -5.140  0.00  0.00    +0.124 A 
ATOM     34  C   UNL     1     -11.486  -1.673  -5.352  0.00  0.00    +0.040 A 
ATOM     35  C   UNL     1     -10.690  -1.290  -4.289  0.00  0.00    +0.031 A 
ATOM     36  F   UNL     1     -13.597  -2.363  -6.178  0.00  0.00    -0.205 F 
ENDBRANCH  27  30
ENDBRANCH  26  27
ENDBRANCH   2  22
TORSDOF 5
