REMARK  Name = ZINC66894360
REMARK  4 active torsions:
REMARK  status: ('A' for Active; 'I' for Inactive)
REMARK    1  A    between atoms: C_6  and  C_10
REMARK    2  A    between atoms: C_10  and  N_11
REMARK    3  A    between atoms: N_14  and  C_15
REMARK    4  A    between atoms: C_15  and  C_16
REMARK                            x       y       z     vdW  Elec       q    Type
REMARK                         _______ _______ _______ _____ _____    ______ ____
ROOT
ATOM      1  N   UNL     1       3.802  -3.882   1.317  0.00  0.00    -0.294 N 
ATOM      2  C   UNL     1       4.454  -5.038   1.549  0.00  0.00    +0.300 C 
ATOM      3  O   UNL     1       4.913  -5.674   0.619  0.00  0.00    -0.253 OA
ATOM      4  N   UNL     1       4.598  -5.490   2.810  0.00  0.00    -0.295 N 
ATOM      5  H   UNL     1       3.436  -3.375   2.058  0.00  0.00    +0.151 HD
ATOM      6  H   UNL     1       4.232  -4.982   3.552  0.00  0.00    +0.151 HD
ENDROOT
BRANCH   1   7
ATOM      7  C   UNL     1       3.645  -3.391  -0.054  0.00  0.00    +0.160 C 
BRANCH   7  13
ATOM      8  C   UNL     1      -0.016   1.356   0.009  0.00  0.00    +0.005 A 
ATOM      9  C   UNL     1       1.194   2.068   0.002  0.00  0.00    +0.018 A 
ATOM     10  C   UNL     1       2.372   1.409  -0.013  0.00  0.00    +0.092 A 
ATOM     11  N   UNL     1       2.405   0.045  -0.021  0.00  0.00    -0.308 N 
ATOM     12  C   UNL     1       3.434  -0.856  -0.037  0.00  0.00    +0.115 A 
ATOM     13  C   UNL     1       2.885  -2.090  -0.039  0.00  0.00    +0.051 A 
ATOM     14  N   UNL     1       1.556  -1.965  -0.025  0.00  0.00    -0.342 N 
ATOM     15  C   UNL     1       1.240  -0.678  -0.014  0.00  0.00    +0.115 A 
ATOM     16  C   UNL     1       0.002  -0.004   0.002  0.00  0.00    +0.045 A 
ATOM     17  H   UNL     1       0.922  -2.699  -0.023  0.00  0.00    +0.167 HD
ENDBRANCH   7  13
ENDBRANCH   1   7
BRANCH   4  18
ATOM     18  C   UNL     1       5.308  -6.747   3.062  0.00  0.00    +0.142 C 
BRANCH  18  19
ATOM     19  C   UNL     1       5.329  -7.023   4.543  0.00  0.00    -0.012 A 
ATOM     20  C   UNL     1       6.458  -6.729   5.285  0.00  0.00    +0.008 A 
ATOM     21  C   UNL     1       6.478  -6.982   6.644  0.00  0.00    +0.016 A 
ATOM     22  C   UNL     1       5.369  -7.531   7.262  0.00  0.00    +0.019 A 
ATOM     23  C   UNL     1       4.239  -7.826   6.520  0.00  0.00    +0.035 A 
ATOM     24  C   UNL     1       4.217  -7.567   5.161  0.00  0.00    +0.047 A 
ATOM     25 CL   UNL     1       2.798  -7.931   4.231  0.00  0.00    -0.083 Cl
ATOM     26 BR   UNL     1       5.397  -7.879   9.120  0.00  0.00    -0.050 Br
ENDBRANCH  18  19
ENDBRANCH   4  18
TORSDOF 4
