REMARK  Name = ZINC32943291
REMARK  8 active torsions:
REMARK  status: ('A' for Active; 'I' for Inactive)
REMARK    1  A    between atoms: C_1  and  O_2
REMARK    2  A    between atoms: O_2  and  C_3
REMARK    3  A    between atoms: C_8  and  N_9
REMARK    4  A    between atoms: N_11  and  C_12
REMARK    5  A    between atoms: C_12  and  C_13
REMARK    6  A    between atoms: C_13  and  C_14
REMARK    7  A    between atoms: N_24  and  C_25
REMARK    8  A    between atoms: C_25  and  C_27
REMARK                            x       y       z     vdW  Elec       q    Type
REMARK                         _______ _______ _______ _____ _____    ______ ____
ROOT
ATOM      1  N   UNL     1      -0.053  -2.815  -0.068  0.00  0.00    -0.325 N 
ATOM      2  C   UNL     1      -0.169  -4.099   0.381  0.00  0.00    +0.194 C 
ATOM      3  N   UNL     1       0.918  -4.740   0.900  0.00  0.00    -0.357 N 
ATOM      4  N   UNL     1      -1.335  -4.722   0.314  0.00  0.00    -0.143 NA
ATOM      5  H   UNL     1       0.836  -5.652   1.220  0.00  0.00    +0.162 HD
ATOM      6  H   UNL     1       0.391  -2.635  -0.911  0.00  0.00    +0.169 HD
ENDROOT
BRANCH   1  12
ATOM      7  C   UNL     1      -0.409  -0.444   0.260  0.00  0.00    +0.143 A 
ATOM      8  C   UNL     1      -0.933   0.597   1.008  0.00  0.00    +0.049 A 
ATOM      9  C   UNL     1      -1.617   0.331   2.180  0.00  0.00    +0.024 A 
ATOM     10  C   UNL     1      -1.779  -0.974   2.610  0.00  0.00    +0.043 A 
ATOM     11  C   UNL     1      -1.258  -2.019   1.868  0.00  0.00    +0.049 A 
ATOM     12  C   UNL     1      -0.577  -1.759   0.688  0.00  0.00    +0.085 A 
ATOM     13 CL   UNL     1      -2.637  -1.301   4.083  0.00  0.00    -0.083 Cl
BRANCH   7  15
ATOM     14  C   UNL     1       0.397   1.189  -1.270  0.00  0.00    +0.277 C 
ATOM     15  O   UNL     1       0.263  -0.183  -0.893  0.00  0.00    -0.493 OA
ENDBRANCH   7  15
ENDBRANCH   1  12
BRANCH   4  16
ATOM     16  C   UNL     1      -2.426  -4.059  -0.095  0.00  0.00    +0.270 C 
ATOM     17  O   UNL     1      -2.349  -2.877  -0.382  0.00  0.00    -0.268 OA
BRANCH  16  18
ATOM     18  C   UNL     1      -3.724  -4.761  -0.196  0.00  0.00    +0.043 A 
ATOM     19  C   UNL     1      -3.791  -6.140   0.012  0.00  0.00    +0.017 A 
ATOM     20  C   UNL     1      -5.000  -6.794  -0.084  0.00  0.00    +0.050 A 
ATOM     21  C   UNL     1      -6.155  -6.085  -0.386  0.00  0.00    +0.166 A 
ATOM     22  C   UNL     1      -6.094  -4.707  -0.595  0.00  0.00    +0.167 A 
ATOM     23  C   UNL     1      -4.885  -4.046  -0.494  0.00  0.00    +0.062 A 
ATOM     24  O   UNL     1      -7.351  -4.253  -0.874  0.00  0.00    -0.453 OA
ATOM     25  C   UNL     1      -8.110  -5.422  -1.237  0.00  0.00    +0.466 C 
ATOM     26  O   UNL     1      -7.449  -6.491  -0.534  0.00  0.00    -0.453 OA
ENDBRANCH  16  18
ENDBRANCH   4  16
BRANCH   3  27
ATOM     27  C   UNL     1       2.209  -4.051   0.975  0.00  0.00    +0.120 C 
BRANCH  27  28
ATOM     28  C   UNL     1       3.251  -4.986   1.592  0.00  0.00    +0.058 C 
BRANCH  28  29
ATOM     29  C   UNL     1       4.579  -4.277   1.669  0.00  0.00    -0.021 A 
ATOM     30  C   UNL     1       5.570  -4.339   0.766  0.00  0.00    +0.087 A 
ATOM     31  N   UNL     1       6.622  -3.564   1.174  0.00  0.00    -0.360 N 
ATOM     32  H   UNL     1       7.452  -3.451   0.687  0.00  0.00    +0.165 HD
ATOM     33  C   UNL     1       6.325  -2.970   2.380  0.00  0.00    +0.047 A 
ATOM     34  C   UNL     1       5.029  -3.385   2.740  0.00  0.00    +0.003 A 
ATOM     35  C   UNL     1       4.457  -2.929   3.928  0.00  0.00    +0.010 A 
ATOM     36  C   UNL     1       5.157  -2.077   4.736  0.00  0.00    +0.001 A 
ATOM     37  C   UNL     1       6.433  -1.661   4.384  0.00  0.00    +0.002 A 
ATOM     38  C   UNL     1       7.021  -2.106   3.220  0.00  0.00    +0.026 A 
ENDBRANCH  28  29
ENDBRANCH  27  28
ENDBRANCH   3  27
TORSDOF 7
