REMARK  Name = ZINC15230405
REMARK  5 active torsions:
REMARK  status: ('A' for Active; 'I' for Inactive)
REMARK    1  A    between atoms: C_1  and  C_2
REMARK    2  A    between atoms: C_2  and  C_3
REMARK    3  A    between atoms: C_2  and  N_4
REMARK    4  A    between atoms: N_12  and  N_13
REMARK    5  A    between atoms: C_14  and  C_16
REMARK                            x       y       z     vdW  Elec       q    Type
REMARK                         _______ _______ _______ _____ _____    ______ ____
ROOT
ATOM      1  N   UNL     1       0.002  -0.004   0.002  0.00  0.00    -0.200 N 
ATOM      2  C   UNL     1      -0.016   1.344   0.009  0.00  0.00    +0.299 C 
ATOM      3  O   UNL     1      -1.078   1.938   0.018  0.00  0.00    -0.265 OA
ATOM      4  H   UNL     1       0.962  -0.541  -0.010  0.00  0.00    +0.178 HD
ENDROOT
BRANCH   2   5
ATOM      5  C   UNL     1       1.244   2.094   0.001  0.00  0.00    +0.192 A 
ATOM      6  C   UNL     1       1.353   3.452   0.002  0.00  0.00    +0.063 A 
ATOM      7  C   UNL     1       2.731   3.751  -0.004  0.00  0.00    +0.029 A 
ATOM      8  C   UNL     1       3.505   4.990  -0.004  0.00  0.00    -0.007 A 
ATOM      9  C   UNL     1       2.887   6.244   0.009  0.00  0.00    +0.009 A 
ATOM     10  C   UNL     1       3.651   7.374   0.009  0.00  0.00    +0.001 A 
ATOM     11  C   UNL     1       5.041   7.296  -0.005  0.00  0.00    +0.001 A 
ATOM     12  C   UNL     1       5.674   6.090  -0.018  0.00  0.00    +0.008 A 
ATOM     13  C   UNL     1       4.918   4.907  -0.018  0.00  0.00    -0.017 A 
ATOM     14  C   UNL     1       5.540   3.643  -0.032  0.00  0.00    +0.012 A 
ATOM     15  C   UNL     1       4.809   2.501  -0.031  0.00  0.00    +0.047 A 
ATOM     16  C   UNL     1       3.409   2.524  -0.017  0.00  0.00    +0.136 A 
ATOM     17  O   UNL     1       2.479   1.549  -0.014  0.00  0.00    -0.450 OA
ENDBRANCH   2   5
BRANCH   1  26
ATOM     18  N   UNL     1      -0.435  -4.187  -0.015  0.00  0.00    -0.263 N 
ATOM     19  C   UNL     1      -1.824  -4.250  -0.002  0.00  0.00    +0.046 A 
ATOM     20  C   UNL     1      -2.700  -5.330   0.001  0.00  0.00    +0.024 A 
ATOM     21  C   UNL     1      -4.063  -5.117   0.029  0.00  0.00    +0.002 A 
ATOM     22  C   UNL     1      -4.575  -3.830   0.042  0.00  0.00    +0.001 A 
ATOM     23  C   UNL     1      -3.721  -2.745   0.035  0.00  0.00    +0.012 A 
ATOM     24  C   UNL     1      -2.346  -2.951   0.015  0.00  0.00    +0.028 A 
ATOM     25  C   UNL     1      -1.184  -2.033   0.002  0.00  0.00    +0.153 C 
ATOM     26  N   UNL     1      -1.202  -0.721   0.010  0.00  0.00    -0.174 NA
ATOM     27  C   UNL     1      -0.001  -2.915  -0.013  0.00  0.00    +0.272 C 
ATOM     28  O   UNL     1       1.162  -2.555  -0.022  0.00  0.00    -0.268 OA
BRANCH  18  30
ATOM     29  C   UNL     1       1.315  -5.329  -1.286  0.00  0.00    +0.028 C 
ATOM     30  C   UNL     1       0.444  -5.359  -0.029  0.00  0.00    +0.076 C 
ATOM     31  C   UNL     1       1.339  -5.340   1.212  0.00  0.00    +0.028 C 
ENDBRANCH  18  30
ENDBRANCH   1  26
TORSDOF 3
