REMARK  Name = ZINC04424500
REMARK  16 active torsions:
REMARK  status: ('A' for Active; 'I' for Inactive)
REMARK    1  A    between atoms: C_1  and  C_2
REMARK    2  A    between atoms: C_2  and  N_67
REMARK    3  A    between atoms: C_3  and  C_4
REMARK    4  A    between atoms: C_3  and  N_67
REMARK    5  A    between atoms: C_5  and  C_6
REMARK    6  A    between atoms: C_5  and  N_67
REMARK    7  A    between atoms: C_6  and  C_7
REMARK    8  A    between atoms: C_7  and  C_8
REMARK    9  A    between atoms: C_8  and  C_10
REMARK   10  A    between atoms: C_8  and  N_11
REMARK   11  A    between atoms: N_11  and  C_12
REMARK   12  A    between atoms: C_14  and  C_23
REMARK   13  A    between atoms: C_19  and  O_21
REMARK   14  A    between atoms: O_21  and  C_22
REMARK   15  A    between atoms: C_24  and  C_25
REMARK   16  A    between atoms: C_28  and  N_31
REMARK                            x       y       z     vdW  Elec       q    Type
REMARK                         _______ _______ _______ _____ _____    ______ ____
ROOT
ATOM      1  C   UNL     1      -1.742   1.450   3.116  0.00  0.00    +0.038 A 
ATOM      2  C   UNL     1      -2.412   0.452   2.433  0.00  0.00    +0.049 A 
ATOM      3  C   UNL     1      -3.437  -0.258   3.074  0.00  0.00    +0.041 A 
ATOM      4  C   UNL     1      -3.171   0.958   5.035  0.00  0.00    +0.052 A 
ATOM      5  C   UNL     1      -2.121   1.712   4.456  0.00  0.00    +0.019 A 
ATOM      6  C   UNL     1      -1.488   2.715   5.203  0.00  0.00    +0.015 A 
ATOM      7  C   UNL     1      -1.875   2.951   6.487  0.00  0.00    +0.046 A 
ATOM      8  C   UNL     1      -2.906   2.209   7.071  0.00  0.00    +0.122 A 
ATOM      9  C   UNL     1      -3.551   1.222   6.362  0.00  0.00    +0.072 A 
ATOM     10  N   UNL     1      -3.841  -0.037   4.359  0.00  0.00    -0.354 N 
ATOM     11  H   UNL     1      -4.597  -0.579   4.794  0.00  0.00    +0.166 HD
ENDROOT
BRANCH   1  12
ATOM     12  N   UNL     1      -0.724   2.170   2.509  0.00  0.00    -0.341 N 
ATOM     13  H   UNL     1      -0.263   2.867   3.001  0.00  0.00    +0.146 HD
BRANCH  12  14
ATOM     14  C   UNL     1      -0.344   1.877   1.124  0.00  0.00    +0.067 C 
ATOM     15  C   UNL     1      -1.259   2.649   0.171  0.00  0.00    +0.028 C 
BRANCH  14  16
ATOM     16  C   UNL     1       1.107   2.301   0.892  0.00  0.00    +0.020 C 
BRANCH  16  17
ATOM     17  C   UNL     1       2.034   1.442   1.756  0.00  0.00    -0.017 C 
BRANCH  17  18
ATOM     18  C   UNL     1       3.485   1.866   1.524  0.00  0.00    -0.079 C 
BRANCH  18  19
ATOM     19  N   UNL     1       4.365   1.043   2.381  0.00  0.00    +0.379 N 
ATOM     20  H   UNL     1       4.020   1.081   3.347  0.00  0.00    -0.082 HD
BRANCH  19  22
ATOM     21  C   UNL     1       4.830  -0.458   0.472  0.00  0.00    -0.017 C 
ATOM     22  C   UNL     1       4.347  -0.362   1.920  0.00  0.00    -0.082 C 
ENDBRANCH  19  22
BRANCH  19  23
ATOM     23  C   UNL     1       5.745   1.570   2.341  0.00  0.00    -0.082 C 
ATOM     24  C   UNL     1       6.541   0.949   3.491  0.00  0.00    -0.017 C 
ENDBRANCH  19  23
ENDBRANCH  18  19
ENDBRANCH  17  18
ENDBRANCH  16  17
ENDBRANCH  14  16
ENDBRANCH  12  14
ENDBRANCH   1  12
BRANCH   8  25
ATOM     25  O   UNL     1      -3.273   2.465   8.353  0.00  0.00    -0.495 OA
ATOM     26  C   UNL     1      -2.566   3.501   9.037  0.00  0.00    +0.277 C 
ENDBRANCH   8  25
BRANCH   3  27
ATOM     27  C   UNL     1      -4.146  -1.319   2.340  0.00  0.00    +0.026 C 
ATOM     28  C   UNL     1      -5.130  -2.009   2.940  0.00  0.00    +0.010 C 
BRANCH  28  29
ATOM     29  C   UNL     1      -5.839  -3.071   2.204  0.00  0.00    -0.025 A 
ATOM     30  C   UNL     1      -5.494  -3.360   0.881  0.00  0.00    +0.010 A 
ATOM     31  C   UNL     1      -6.159  -4.360   0.202  0.00  0.00    +0.033 A 
ATOM     32  C   UNL     1      -7.172  -5.068   0.823  0.00  0.00    +0.126 A 
ATOM     33  C   UNL     1      -7.523  -4.784   2.131  0.00  0.00    +0.033 A 
ATOM     34  C   UNL     1      -6.864  -3.791   2.825  0.00  0.00    +0.010 A 
BRANCH  32  35
ATOM     35  N   UNL     1      -7.884  -6.136   0.085  0.00  0.00    +0.056 N 
ATOM     36  O   UNL     1      -8.777  -6.761   0.629  0.00  0.00    -0.126 OA
ATOM     37  O   UNL     1      -7.577  -6.388  -1.067  0.00  0.00    -0.126 OA
ENDBRANCH  32  35
ENDBRANCH  28  29
ENDBRANCH   3  27
TORSDOF 12
