REMARK  Name = ZINC43222908
REMARK  13 active torsions:
REMARK  status: ('A' for Active; 'I' for Inactive)
REMARK    1  A    between atoms: C_1  and  C_2
REMARK    2  A    between atoms: C_2  and  C_4
REMARK    3  A    between atoms: C_2  and  N_10
REMARK    4  A    between atoms: C_4  and  C_5
REMARK    5  A    between atoms: C_5  and  C_6
REMARK    6  A    between atoms: C_6  and  C_7
REMARK    7  A    between atoms: C_7  and  C_8
REMARK    8  A    between atoms: C_7  and  C_9
REMARK    9  A    between atoms: C_11  and  C_13
REMARK   10  A    between atoms: C_18  and  C_20
REMARK   11  A    between atoms: N_22  and  C_23
REMARK   12  A    between atoms: C_23  and  C_25
REMARK   13  A    between atoms: C_23  and  C_26
REMARK                            x       y       z     vdW  Elec       q    Type
REMARK                         _______ _______ _______ _____ _____    ______ ____
ROOT
ATOM      1  C   UNL     1       3.980  -1.549   0.765  0.00  0.00    +0.068 C 
ATOM      2  C   UNL     1       2.494  -1.256   0.463  0.00  0.00    -0.069 C 
ATOM      3  N   UNL     1       2.521  -0.413  -0.761  0.00  0.00    +0.380 N 
ATOM      4  C   UNL     1       3.594  -1.014  -1.594  0.00  0.00    -0.069 C 
ATOM      5  C   UNL     1       4.705  -1.391  -0.588  0.00  0.00    +0.068 C 
ATOM      6  H   UNL     1       1.634  -0.460  -1.240  0.00  0.00    -0.086 HD
ATOM      7  H   UNL     1       2.748   0.542  -0.527  0.00  0.00    -0.086 HD
ENDROOT
BRANCH   1   9
ATOM      8  N   UNL     1       3.997  -0.506   3.008  0.00  0.00    -0.313 N 
ATOM      9  C   UNL     1       4.516  -0.557   1.765  0.00  0.00    +0.215 C 
ATOM     10  O   UNL     1       5.415   0.195   1.452  0.00  0.00    -0.276 OA
ATOM     11  H   UNL     1       3.278  -1.107   3.259  0.00  0.00    +0.149 HD
BRANCH   8  13
ATOM     12  C   UNL     1       3.817   1.805   3.790  0.00  0.00    +0.028 C 
ATOM     13  C   UNL     1       4.518   0.458   3.980  0.00  0.00    +0.070 C 
BRANCH  13  14
ATOM     14  C   UNL     1       4.259  -0.056   5.397  0.00  0.00    +0.022 C 
BRANCH  14  15
ATOM     15  C   UNL     1       5.061  -1.338   5.629  0.00  0.00    +0.002 C 
BRANCH  15  16
ATOM     16  C   UNL     1       4.802  -1.853   7.047  0.00  0.00    +0.003 C 
BRANCH  16  17
ATOM     17  C   UNL     1       5.604  -3.135   7.278  0.00  0.00    -0.017 C 
ATOM     18  C   UNL     1       7.099  -2.817   7.230  0.00  0.00    +0.007 C 
ATOM     19  C   UNL     1       5.250  -3.717   8.648  0.00  0.00    +0.007 C 
ENDBRANCH  16  17
ENDBRANCH  15  16
ENDBRANCH  14  15
ENDBRANCH  13  14
ENDBRANCH   8  13
ENDBRANCH   1   9
BRANCH   5  20
ATOM     20  C   UNL     1       5.356  -2.691  -0.987  0.00  0.00    +0.215 C 
ATOM     21  O   UNL     1       5.259  -3.663  -0.268  0.00  0.00    -0.276 OA
ATOM     22  N   UNL     1       6.046  -2.772  -2.142  0.00  0.00    -0.309 N 
ATOM     23  H   UNL     1       6.123  -1.994  -2.716  0.00  0.00    +0.149 HD
BRANCH  22  24
ATOM     24  C   UNL     1       6.678  -4.035  -2.530  0.00  0.00    +0.101 C 
ATOM     25  C   UNL     1       6.863  -4.067  -4.048  0.00  0.00    +0.033 C 
BRANCH  24  26
ATOM     26  C   UNL     1       8.022  -4.151  -1.858  0.00  0.00    -0.020 A 
ATOM     27  C   UNL     1       8.683  -3.032  -1.452  0.00  0.00    +0.006 A 
ATOM     28  C   UNL     1       9.926  -3.119  -0.829  0.00  0.00    +0.001 A 
ATOM     29  C   UNL     1      10.517  -4.325  -0.609  0.00  0.00    +0.008 A 
ATOM     30  C   UNL     1       9.865  -5.503  -1.014  0.00  0.00    -0.018 A 
ATOM     31  C   UNL     1       8.598  -5.414  -1.642  0.00  0.00    -0.013 A 
ATOM     32  C   UNL     1       7.943  -6.592  -2.042  0.00  0.00    +0.009 A 
ATOM     33  C   UNL     1       8.531  -7.798  -1.817  0.00  0.00    +0.001 A 
ATOM     34  C   UNL     1       9.775  -7.886  -1.193  0.00  0.00    +0.001 A 
ATOM     35  C   UNL     1      10.444  -6.766  -0.804  0.00  0.00    +0.008 A 
ENDBRANCH  24  26
ENDBRANCH  22  24
ENDBRANCH   5  20
TORSDOF 9
