REMARK  Name = ZINC12442063
REMARK  6 active torsions:
REMARK  status: ('A' for Active; 'I' for Inactive)
REMARK    1  A    between atoms: C_5  and  C_19
REMARK    2  A    between atoms: C_6  and  C_11
REMARK    3  A    between atoms: C_11  and  N_54
REMARK    4  A    between atoms: C_12  and  C_13
REMARK    5  A    between atoms: C_12  and  N_54
REMARK    6  A    between atoms: C_13  and  C_14
REMARK                            x       y       z     vdW  Elec       q    Type
REMARK                         _______ _______ _______ _____ _____    ______ ____
ROOT
ATOM      1  C   UNL     1      -0.013   1.076   0.008  0.00  0.00    +0.025 A 
ATOM      2  C   UNL     1       1.153   1.774   0.001  0.00  0.00    +0.048 A 
ATOM      3  C   UNL     1       1.115   3.185   0.008  0.00  0.00    +0.139 A 
ATOM      4  N   UNL     1       2.073   4.097   0.003  0.00  0.00    -0.223 NA
ATOM      5  C   UNL     1       1.514   5.321   0.014  0.00  0.00    +0.146 A 
ATOM      6  C   UNL     1       0.157   5.169   0.026  0.00  0.00    +0.039 A 
ATOM      7  N   UNL     1      -0.096   3.831   0.023  0.00  0.00    -0.303 N 
ATOM      8  C   UNL     1      -1.261   3.115   0.030  0.00  0.00    +0.113 A 
ATOM      9  C   UNL     1      -1.238   1.765   0.018  0.00  0.00    +0.058 A 
ATOM     10 CL   UNL     1      -2.730   0.876   0.020  0.00  0.00    -0.082 Cl
ENDROOT
BRANCH   5  11
ATOM     11  C   UNL     1       2.241   6.605   0.013  0.00  0.00    +0.267 C 
ATOM     12  O   UNL     1       1.625   7.653   0.023  0.00  0.00    -0.268 OA
ATOM     13  N   UNL     1       3.589   6.616   0.000  0.00  0.00    -0.296 N 
ATOM     14  C   UNL     1       4.343   5.354  -0.006  0.00  0.00    +0.108 C 
ATOM     15  C   UNL     1       4.130   4.659  -1.351  0.00  0.00    +0.019 C 
ATOM     16  C   UNL     1       4.907   5.416  -2.441  0.00  0.00    +0.002 C 
ATOM     17  C   UNL     1       4.136   6.671  -2.834  0.00  0.00    +0.000 C 
ATOM     18  C   UNL     1       4.912   7.937  -2.428  0.00  0.00    +0.002 C 
ATOM     19  C   UNL     1       5.464   7.773  -1.012  0.00  0.00    +0.019 C 
ATOM     20  C   UNL     1       4.313   7.876  -0.002  0.00  0.00    +0.108 C 
ENDBRANCH   5  11
BRANCH   6  21
ATOM     21  C   UNL     1      -0.868   6.274   0.042  0.00  0.00    -0.025 C 
BRANCH  21  22
ATOM     22  N   UNL     1      -1.183   6.621   1.441  0.00  0.00    +0.383 N 
ATOM     23  H   UNL     1      -0.326   6.933   1.913  0.00  0.00    -0.085 HD
ATOM     24  H   UNL     1      -1.555   5.793   1.920  0.00  0.00    -0.085 HD
BRANCH  22  25
ATOM     25  C   UNL     1      -2.185   7.702   1.487  0.00  0.00    -0.076 C 
BRANCH  25  26
ATOM     26  C   UNL     1      -2.491   8.041   2.947  0.00  0.00    +0.037 C 
BRANCH  26  27
ATOM     27  C   UNL     1      -3.515   9.145   3.003  0.00  0.00    +0.047 A 
ATOM     28  C   UNL     1      -4.671   8.987   3.697  0.00  0.00    +0.069 A 
ATOM     29  S   UNL     1      -5.447  10.570   3.407  0.00  0.00    -0.084 S 
ATOM     30  C   UNL     1      -4.196  11.255   2.416  0.00  0.00    +0.156 A 
ATOM     31  N   UNL     1      -3.312  10.285   2.376  0.00  0.00    -0.252 NA
ENDBRANCH  26  27
ENDBRANCH  25  26
ENDBRANCH  22  25
ENDBRANCH  21  22
ENDBRANCH   6  21
TORSDOF 6
