REMARK  Name = ZINC12529994
REMARK  6 active torsions:
REMARK  status: ('A' for Active; 'I' for Inactive)
REMARK    1  A    between atoms: C_1  and  N_47
REMARK    2  A    between atoms: C_3  and  N_20
REMARK    3  A    between atoms: C_6  and  C_8
REMARK    4  A    between atoms: C_10  and  C_13
REMARK    5  A    between atoms: N_20  and  S_21
REMARK    6  A    between atoms: S_21  and  C_24
REMARK                            x       y       z     vdW  Elec       q    Type
REMARK                         _______ _______ _______ _____ _____    ______ ____
ROOT
ATOM      1  C   UNL     1      -0.013   1.086   0.008  0.00  0.00    -0.095 C 
ATOM      2  C   UNL     1      -0.644   3.041   1.315  0.00  0.00    -0.058 C 
ATOM      3  C   UNL     1      -0.892   3.341   2.809  0.00  0.00    +0.059 C 
ATOM      4  C   UNL     1      -0.474   2.055   3.551  0.00  0.00    +0.012 C 
ATOM      5  C   UNL     1      -0.009   1.086   2.443  0.00  0.00    +0.023 C 
ATOM      6  N   UNL     1      -0.692   1.576   1.248  0.00  0.00    +0.387 N 
ATOM      7  H   UNL     1      -1.668   1.256   1.247  0.00  0.00    -0.081 HD
ENDROOT
BRANCH   5   8
ATOM      8  C   UNL     1      -0.425  -0.325   2.770  0.00  0.00    +0.214 A 
ATOM      9  N   UNL     1       0.363  -1.302   3.143  0.00  0.00    -0.193 NA
ATOM     10  C   UNL     1      -0.445  -2.371   3.325  0.00  0.00    +0.202 A 
ATOM     11  N   UNL     1      -1.665  -1.984   3.053  0.00  0.00    -0.056 NA
ATOM     12  O   UNL     1      -1.669  -0.813   2.738  0.00  0.00    -0.339 OA
BRANCH  10  13
ATOM     13  C   UNL     1      -0.027  -3.729   3.751  0.00  0.00    +0.023 A 
ATOM     14  C   UNL     1       1.317  -4.000   4.001  0.00  0.00    +0.014 A 
ATOM     15  C   UNL     1       1.701  -5.263   4.402  0.00  0.00    +0.039 A 
ATOM     16  C   UNL     1       0.754  -6.264   4.546  0.00  0.00    +0.123 A 
ATOM     17  C   UNL     1      -0.582  -6.001   4.293  0.00  0.00    +0.039 A 
ATOM     18  C   UNL     1      -0.976  -4.739   3.897  0.00  0.00    +0.014 A 
ATOM     19  F   UNL     1       1.135  -7.501   4.934  0.00  0.00    -0.205 F 
ENDBRANCH  10  13
ENDBRANCH   5   8
BRANCH   3  20
ATOM     20  N   UNL     1      -2.309   3.627   3.045  0.00  0.00    -0.189 NA
ATOM     21  H   UNL     1      -2.943   2.897   3.129  0.00  0.00    +0.148 HD
BRANCH  20  22
ATOM     22  S   UNL     1      -2.829   5.194   3.167  0.00  0.00    +0.059 S 
ATOM     23  O   UNL     1      -4.235   5.141   3.365  0.00  0.00    -0.153 OA
ATOM     24  O   UNL     1      -1.955   5.842   4.080  0.00  0.00    -0.153 OA
BRANCH  22  25
ATOM     25  C   UNL     1      -2.570   5.952   1.597  0.00  0.00    +0.105 A 
ATOM     26  C   UNL     1      -1.374   6.592   1.328  0.00  0.00    +0.030 A 
ATOM     27  C   UNL     1      -1.168   7.182   0.095  0.00  0.00    +0.022 A 
ATOM     28  C   UNL     1      -2.163   7.143  -0.865  0.00  0.00    +0.041 A 
ATOM     29  C   UNL     1      -3.362   6.508  -0.593  0.00  0.00    +0.022 A 
ATOM     30  C   UNL     1      -3.564   5.913   0.638  0.00  0.00    +0.030 A 
ATOM     31 CL   UNL     1      -1.908   7.890  -2.411  0.00  0.00    -0.084 Cl
ENDBRANCH  22  25
ENDBRANCH  20  22
ENDBRANCH   3  20
TORSDOF 5
