REMARK  Name = ZINC13346894
REMARK  9 active torsions:
REMARK  status: ('A' for Active; 'I' for Inactive)
REMARK    1  A    between atoms: C_3  and  C_16
REMARK    2  A    between atoms: C_6  and  C_7
REMARK    3  A    between atoms: C_7  and  O_8
REMARK    4  A    between atoms: O_8  and  C_9
REMARK    5  A    between atoms: N_18  and  N_19
REMARK    6  A    between atoms: N_19  and  S_20
REMARK    7  A    between atoms: S_20  and  C_23
REMARK    8  A    between atoms: C_26  and  C_29
REMARK    9  A    between atoms: C_30  and  C_31
REMARK                            x       y       z     vdW  Elec       q    Type
REMARK                         _______ _______ _______ _____ _____    ______ ____
ROOT
ATOM      1  C   UNL     1       1.849  -8.385  -0.058  0.00  0.00    +0.259 C 
ATOM      2  O   UNL     1       1.768  -8.983  -1.113  0.00  0.00    -0.269 OA
ATOM      3  N   UNL     1       1.783  -9.060   1.106  0.00  0.00    -0.228 N 
ATOM      4  H   UNL     1       1.848  -8.582   1.948  0.00  0.00    +0.171 HD
ENDROOT
BRANCH   1   7
ATOM      5  C   UNL     1       2.279  -4.856   1.155  0.00  0.00    +0.008 A 
ATOM      6  C   UNL     1       2.114  -6.226   1.157  0.00  0.00    +0.013 A 
ATOM      7  C   UNL     1       2.021  -6.916  -0.052  0.00  0.00    +0.038 A 
ATOM      8  C   UNL     1       2.090  -6.214  -1.257  0.00  0.00    +0.013 A 
ATOM      9  C   UNL     1       2.250  -4.844  -1.244  0.00  0.00    +0.008 A 
ATOM     10  C   UNL     1       2.341  -4.166  -0.042  0.00  0.00    -0.010 A 
BRANCH  10  11
ATOM     11  C   UNL     1       2.517  -2.669  -0.036  0.00  0.00    +0.264 C 
BRANCH  11  12
ATOM     12  O   UNL     1       1.234  -2.039  -0.020  0.00  0.00    -0.487 OA
BRANCH  12  13
ATOM     13  C   UNL     1       1.213  -0.680  -0.013  0.00  0.00    +0.121 A 
ATOM     14  C   UNL     1       0.002  -0.004   0.002  0.00  0.00    +0.047 A 
ATOM     15  C   UNL     1      -0.017   1.377   0.010  0.00  0.00    +0.023 A 
ATOM     16  C   UNL     1       1.172   2.086   0.002  0.00  0.00    +0.041 A 
ATOM     17  C   UNL     1       2.381   1.413  -0.013  0.00  0.00    +0.023 A 
ATOM     18  C   UNL     1       2.403   0.032  -0.021  0.00  0.00    +0.047 A 
ATOM     19 CL   UNL     1       1.145   3.822   0.011  0.00  0.00    -0.084 Cl
ENDBRANCH  12  13
ENDBRANCH  11  12
ENDBRANCH  10  11
ENDBRANCH   1   7
BRANCH   3  20
ATOM     20  N   UNL     1       1.620 -10.451   1.101  0.00  0.00    -0.108 NA
ATOM     21  H   UNL     1       0.876 -10.851   0.625  0.00  0.00    +0.172 HD
BRANCH  20  22
ATOM     22  S   UNL     1       2.699 -11.414   1.908  0.00  0.00    +0.074 S 
ATOM     23  O   UNL     1       2.191 -12.740   1.839  0.00  0.00    -0.152 OA
ATOM     24  O   UNL     1       3.991 -11.068   1.427  0.00  0.00    -0.152 OA
BRANCH  22  25
ATOM     25  C   UNL     1       2.650 -10.944   3.605  0.00  0.00    +0.107 A 
ATOM     26  C   UNL     1       3.502  -9.958   4.071  0.00  0.00    +0.029 A 
ATOM     27  C   UNL     1       3.466  -9.580   5.396  0.00  0.00    +0.010 A 
ATOM     28  C   UNL     1       2.572 -10.203   6.273  0.00  0.00    -0.025 A 
ATOM     29  C   UNL     1       1.718 -11.203   5.796  0.00  0.00    +0.010 A 
ATOM     30  C   UNL     1       1.763 -11.566   4.466  0.00  0.00    +0.029 A 
BRANCH  28  31
ATOM     31  C   UNL     1       2.531  -9.810   7.691  0.00  0.00    +0.015 C 
ATOM     32  C   UNL     1       3.356  -8.845   8.148  0.00  0.00    +0.096 C 
BRANCH  32  33
ATOM     33  C   UNL     1       3.315  -8.455   9.556  0.00  0.00    +0.380 C 
ATOM     34  O   UNL     1       2.537  -8.999  10.316  0.00  0.00    -0.241 OA
ATOM     35  O   UNL     1       4.140  -7.490  10.013  0.00  0.00    -0.241 OA
ENDBRANCH  32  33
ENDBRANCH  28  31
ENDBRANCH  22  25
ENDBRANCH  20  22
ENDBRANCH   3  20
TORSDOF 9
