REMARK  Name = ZINC14661497
REMARK  11 active torsions:
REMARK  status: ('A' for Active; 'I' for Inactive)
REMARK    1  A    between atoms: C_1  and  C_2
REMARK    2  A    between atoms: C_2  and  C_4
REMARK    3  A    between atoms: C_2  and  O_22
REMARK    4  A    between atoms: N_6  and  N_7
REMARK    5  A    between atoms: C_8  and  C_10
REMARK    6  A    between atoms: C_13  and  O_17
REMARK    7  A    between atoms: O_17  and  C_18
REMARK    8  A    between atoms: C_18  and  C_19
REMARK    9  A    between atoms: C_19  and  O_20
REMARK   10  A    between atoms: O_20  and  C_21
REMARK   11  A    between atoms: O_22  and  C_23
REMARK                            x       y       z     vdW  Elec       q    Type
REMARK                         _______ _______ _______ _____ _____    ______ ____
ROOT
ATOM      1  N   UNL     1      -1.199   1.685  -0.498  0.00  0.00    -0.230 N 
ATOM      2  C   UNL     1      -2.366   1.013  -0.535  0.00  0.00    +0.260 C 
ATOM      3  O   UNL     1      -2.380  -0.192  -0.373  0.00  0.00    -0.269 OA
ATOM      4  H   UNL     1      -1.188   2.646  -0.628  0.00  0.00    +0.173 HD
ENDROOT
BRANCH   2   5
ATOM      5  C   UNL     1      -3.629   1.740  -0.771  0.00  0.00    +0.039 A 
ATOM      6  C   UNL     1      -3.617   3.125  -0.952  0.00  0.00    +0.017 A 
ATOM      7  C   UNL     1      -4.796   3.799  -1.177  0.00  0.00    +0.047 A 
ATOM      8  C   UNL     1      -6.000   3.105  -1.213  0.00  0.00    +0.135 A 
ATOM      9  C   UNL     1      -6.017   1.727  -1.029  0.00  0.00    +0.060 A 
ATOM     10  C   UNL     1      -4.841   1.045  -0.809  0.00  0.00    +0.032 A 
ATOM     11 BR   UNL     1      -7.658   0.788  -1.081  0.00  0.00    -0.046 Br
BRANCH   8  12
ATOM     12  O   UNL     1      -7.160   3.774  -1.430  0.00  0.00    -0.489 OA
BRANCH  12  13
ATOM     13  C   UNL     1      -7.070   5.189  -1.612  0.00  0.00    +0.257 C 
BRANCH  13  14
ATOM     14  C   UNL     1      -8.469   5.764  -1.842  0.00  0.00    +0.200 C 
BRANCH  14  15
ATOM     15  O   UNL     1      -9.258   5.583  -0.664  0.00  0.00    -0.380 OA
ATOM     16  C   UNL     1     -10.590   6.089  -0.773  0.00  0.00    +0.194 C 
ENDBRANCH  14  15
ENDBRANCH  13  14
ENDBRANCH  12  13
ENDBRANCH   8  12
ENDBRANCH   2   5
BRANCH   1  19
ATOM     17  C   UNL     1       1.168   1.666  -0.244  0.00  0.00    +0.270 C 
ATOM     18  O   UNL     1       1.181   2.868  -0.405  0.00  0.00    -0.270 OA
ATOM     19  N   UNL     1      -0.000   0.995  -0.274  0.00  0.00    -0.231 N 
ATOM     20  H   UNL     1      -0.011   0.034  -0.145  0.00  0.00    +0.173 HD
BRANCH  17  22
ATOM     21  C   UNL     1       2.720  -0.027  -1.179  0.00  0.00    +0.062 C 
ATOM     22  C   UNL     1       2.458   0.923  -0.009  0.00  0.00    +0.257 C 
BRANCH  22  23
ATOM     23  O   UNL     1       3.534   1.858   0.096  0.00  0.00    -0.478 OA
BRANCH  23  24
ATOM     24  C   UNL     1       4.629   1.463   0.797  0.00  0.00    +0.140 A 
ATOM     25  C   UNL     1       4.715   0.164   1.277  0.00  0.00    +0.048 A 
ATOM     26  C   UNL     1       5.831  -0.237   1.986  0.00  0.00    +0.023 A 
ATOM     27  C   UNL     1       6.859   0.658   2.226  0.00  0.00    +0.043 A 
ATOM     28  C   UNL     1       6.773   1.955   1.753  0.00  0.00    +0.043 A 
ATOM     29  C   UNL     1       5.661   2.360   1.039  0.00  0.00    +0.084 A 
ATOM     30 CL   UNL     1       5.553   3.988   0.447  0.00  0.00    -0.080 Cl
ATOM     31 CL   UNL     1       8.257   0.152   3.123  0.00  0.00    -0.083 Cl
ENDBRANCH  23  24
ENDBRANCH  22  23
ENDBRANCH  17  22
ENDBRANCH   1  19
TORSDOF 9
