REMARK  Name = ZINC38748440
REMARK  5 active torsions:
REMARK  status: ('A' for Active; 'I' for Inactive)
REMARK    1  A    between atoms: C_1  and  C_2
REMARK    2  A    between atoms: C_11  and  C_13
REMARK    3  A    between atoms: C_13  and  S_14
REMARK    4  A    between atoms: S_14  and  C_15
REMARK    5  A    between atoms: N_22  and  C_25
REMARK                            x       y       z     vdW  Elec       q    Type
REMARK                         _______ _______ _______ _____ _____    ______ ____
ROOT
ATOM      1  C   UNL     1       3.164  -1.163   7.478  0.00  0.00    +0.171 A 
ATOM      2  N   UNL     1       3.209  -0.417   8.620  0.00  0.00    -0.301 N 
ATOM      3  C   UNL     1       3.790  -0.910   9.736  0.00  0.00    +0.263 A 
ATOM      4  O   UNL     1       3.835  -0.253  10.760  0.00  0.00    -0.267 OA
ATOM      5  C   UNL     1       4.345  -2.214   9.683  0.00  0.00    +0.103 A 
ATOM      6  C   UNL     1       5.011  -3.036  10.615  0.00  0.00    +0.150 A 
ATOM      7  N   UNL     1       5.315  -4.161  10.030  0.00  0.00    -0.172 NA
ATOM      8  N   UNL     1       4.869  -4.134   8.702  0.00  0.00    -0.214 N 
ATOM      9  C   UNL     1       4.268  -2.932   8.478  0.00  0.00    +0.171 A 
ATOM     10  N   UNL     1       3.671  -2.375   7.417  0.00  0.00    -0.204 NA
ATOM     11  H   UNL     1       2.822   0.473   8.630  0.00  0.00    +0.171 HD
ENDROOT
BRANCH   8  12
ATOM     12  C   UNL     1       5.017  -5.165   7.766  0.00  0.00    +0.069 A 
ATOM     13  C   UNL     1       4.027  -5.391   6.818  0.00  0.00    +0.028 A 
ATOM     14  C   UNL     1       4.175  -6.409   5.896  0.00  0.00    +0.003 A 
ATOM     15  C   UNL     1       5.307  -7.202   5.915  0.00  0.00    +0.020 A 
ATOM     16  C   UNL     1       6.295  -6.980   6.857  0.00  0.00    +0.043 A 
ATOM     17  C   UNL     1       6.156  -5.959   7.779  0.00  0.00    +0.047 A 
ATOM     18 CL   UNL     1       7.715  -7.979   6.878  0.00  0.00    -0.083 Cl
ENDBRANCH   8  12
BRANCH   1  19
ATOM     19  S   UNL     1       2.398  -0.485   6.044  0.00  0.00    -0.082 S 
BRANCH  19  20
ATOM     20  C   UNL     1       2.558  -1.795   4.799  0.00  0.00    +0.133 C 
BRANCH  20  30
ATOM     21  C   UNL     1      -0.019   1.526   0.010  0.00  0.00    +0.032 C 
ATOM     22  C   UNL     1       0.002  -0.004   0.002  0.00  0.00    +0.100 C 
ATOM     23  C   UNL     1      -1.454  -0.526  -0.002  0.00  0.00    +0.102 C 
ATOM     24  S   UNL     1      -1.673  -0.772   1.810  0.00  0.00    -0.086 S 
ATOM     25  C   UNL     1       0.048  -0.898   2.257  0.00  0.00    +0.172 A 
ATOM     26  N   UNL     1       0.755  -0.477   1.169  0.00  0.00    -0.284 N 
ATOM     27  C   UNL     1       2.118  -0.528   1.267  0.00  0.00    +0.255 A 
ATOM     28  O   UNL     1       2.811  -0.197   0.319  0.00  0.00    -0.268 OA
ATOM     29  C   UNL     1       2.719  -0.961   2.454  0.00  0.00    +0.094 A 
ATOM     30  C   UNL     1       1.934  -1.339   3.506  0.00  0.00    +0.059 A 
ATOM     31  N   UNL     1       0.618  -1.298   3.371  0.00  0.00    -0.227 NA
ENDBRANCH  20  30
ENDBRANCH  19  20
ENDBRANCH   1  19
TORSDOF 4
