REMARK  Name = ZINC08951119
REMARK  12 active torsions:
REMARK  status: ('A' for Active; 'I' for Inactive)
REMARK    1  A    between atoms: C_1  and  C_2
REMARK    2  A    between atoms: C_2  and  O_3
REMARK    3  A    between atoms: O_3  and  C_4
REMARK    4  A    between atoms: C_4  and  C_6
REMARK    5  A    between atoms: C_10  and  N_11
REMARK    6  A    between atoms: C_12  and  C_14
REMARK    7  A    between atoms: C_14  and  S_15
REMARK    8  A    between atoms: S_15  and  C_16
REMARK    9  A    between atoms: C_26  and  O_27
REMARK   10  A    between atoms: O_27  and  C_28
REMARK   11  A    between atoms: C_29  and  C_31
REMARK   12  A    between atoms: C_33  and  C_37
REMARK                            x       y       z     vdW  Elec       q    Type
REMARK                         _______ _______ _______ _____ _____    ______ ____
ROOT
ATOM      1  N   UNL     1      -1.491  -0.852  -2.475  0.00  0.00    -0.279 N 
ATOM      2  C   UNL     1      -2.243  -1.282  -3.508  0.00  0.00    +0.228 C 
ATOM      3  O   UNL     1      -3.268  -1.896  -3.298  0.00  0.00    -0.275 OA
ATOM      4  H   UNL     1      -0.671  -0.361  -2.643  0.00  0.00    +0.155 HD
ENDROOT
BRANCH   1   9
ATOM      5  C   UNL     1      -1.256  -0.753   0.010  0.00  0.00    +0.091 A 
ATOM      6  C   UNL     1      -1.892  -1.146   1.257  0.00  0.00    -0.021 A 
ATOM      7  C   UNL     1      -3.047  -1.832   1.122  0.00  0.00    -0.004 A 
ATOM      8  S   UNL     1      -3.296  -1.961  -0.626  0.00  0.00    -0.077 S 
ATOM      9  C   UNL     1      -1.889  -1.111  -1.173  0.00  0.00    +0.086 A 
ATOM     10  C   UNL     1      -3.916  -2.363   2.220  0.00  0.00    +0.046 C 
ATOM     11  C   UNL     1      -3.111  -2.340   3.528  0.00  0.00    -0.009 C 
ATOM     12  C   UNL     1      -2.442  -0.970   3.671  0.00  0.00    +0.008 C 
ATOM     13  C   UNL     1      -1.327  -0.824   2.634  0.00  0.00    +0.037 C 
ATOM     14  C   UNL     1      -4.048  -2.583   4.712  0.00  0.00    +0.008 C 
BRANCH   5  15
ATOM     15  C   UNL     1       0.002  -0.004   0.002  0.00  0.00    +0.342 C 
ATOM     16  O   UNL     1       1.064  -0.598  -0.011  0.00  0.00    -0.245 OA
BRANCH  15  17
ATOM     17  O   UNL     1      -0.016   1.345   0.009  0.00  0.00    -0.461 OA
BRANCH  17  19
ATOM     18  C   UNL     1       1.047   3.535   0.011  0.00  0.00    +0.048 C 
ATOM     19  C   UNL     1       1.268   2.021   0.001  0.00  0.00    +0.229 C 
ENDBRANCH  17  19
ENDBRANCH  15  17
ENDBRANCH   5  15
ENDBRANCH   1   9
BRANCH   2  20
ATOM     20  C   UNL     1      -1.810  -1.001  -4.924  0.00  0.00    +0.173 C 
BRANCH  20  21
ATOM     21  S   UNL     1      -3.019  -1.701  -6.075  0.00  0.00    -0.076 S 
BRANCH  21  22
ATOM     22  C   UNL     1      -2.285  -1.239  -7.608  0.00  0.00    +0.197 A 
ATOM     23  N   UNL     1      -1.167  -0.565  -7.766  0.00  0.00    -0.122 NA
ATOM     24  N   UNL     1      -0.919  -0.402  -9.017  0.00  0.00    -0.129 NA
ATOM     25  C   UNL     1      -1.874  -0.959  -9.739  0.00  0.00    +0.163 A 
ATOM     26  N   UNL     1      -2.773  -1.509  -8.853  0.00  0.00    -0.267 N 
ATOM     27  C   UNL     1      -3.901  -2.173  -9.306  0.00  0.00    +0.099 A 
ATOM     28  C   UNL     1      -4.129  -2.286 -10.688  0.00  0.00    +0.006 A 
ATOM     29  C   UNL     1      -5.265  -2.955 -11.154  0.00  0.00    +0.010 A 
ATOM     30  C   UNL     1      -6.154  -3.501 -10.255  0.00  0.00    +0.004 A 
ATOM     31  C   UNL     1      -5.931  -3.390  -8.891  0.00  0.00    +0.048 A 
ATOM     32  C   UNL     1      -4.812  -2.731  -8.413  0.00  0.00    +0.144 A 
ATOM     33  C   UNL     1      -3.166  -1.697 -11.624  0.00  0.00    -0.038 A 
ATOM     34  C   UNL     1      -2.079  -1.057 -11.135  0.00  0.00    +0.052 A 
ATOM     35  C   UNL     1      -3.384  -1.803 -13.111  0.00  0.00    +0.044 C 
BRANCH  32  36
ATOM     36  O   UNL     1      -4.602  -2.629  -7.073  0.00  0.00    -0.493 OA
ATOM     37  C   UNL     1      -5.578  -3.225  -6.216  0.00  0.00    +0.277 C 
ENDBRANCH  32  36
ENDBRANCH  21  22
ENDBRANCH  20  21
ENDBRANCH   2  20
TORSDOF 8
