REMARK  Name = ZINC60409944
REMARK  4 active torsions:
REMARK  status: ('A' for Active; 'I' for Inactive)
REMARK    1  A    between atoms: C_9  and  C_12
REMARK    2  A    between atoms: N_14  and  C_15
REMARK    3  A    between atoms: C_19  and  S_21
REMARK    4  A    between atoms: S_21  and  N_24
REMARK                            x       y       z     vdW  Elec       q    Type
REMARK                         _______ _______ _______ _____ _____    ______ ____
ROOT
ATOM      1  C   UNL     1       6.124  -0.545   0.276  0.00  0.00    +0.248 C 
ATOM      2  O   UNL     1       6.240  -1.719  -0.024  0.00  0.00    -0.270 OA
ATOM      3  N   UNL     1       7.213   0.180   0.599  0.00  0.00    -0.282 N 
ATOM      4  H   UNL     1       7.130   1.131   0.773  0.00  0.00    +0.155 HD
ENDROOT
BRANCH   1  13
ATOM      5  C   UNL     1      -0.013   1.391  -0.020  0.00  0.00    +0.023 A 
ATOM      6  C   UNL     1       1.169   2.109  -0.029  0.00  0.00    +0.048 A 
ATOM      7  C   UNL     1       2.380   1.442  -0.036  0.00  0.00    +0.128 A 
ATOM      8  C   UNL     1       2.401   0.036  -0.033  0.00  0.00    +0.019 A 
ATOM      9  C   UNL     1       1.204  -0.679  -0.024  0.00  0.00    +0.031 A 
ATOM     10  C   UNL     1       0.004   0.004  -0.018  0.00  0.00    +0.042 A 
ATOM     11 CL   UNL     1      -1.492  -0.877  -0.006  0.00  0.00    -0.084 Cl
ATOM     12  C   UNL     1       3.703  -0.647  -0.039  0.00  0.00    +0.023 C 
ATOM     13  C   UNL     1       4.802   0.079   0.285  0.00  0.00    +0.052 C 
ATOM     14  C   UNL     1       4.653   1.532   0.656  0.00  0.00    +0.269 C 
ATOM     15  O   UNL     1       3.556   2.117  -0.046  0.00  0.00    -0.487 OA
ENDBRANCH   1  13
BRANCH   3  16
ATOM     16  C   UNL     1       8.464  -0.439   0.684  0.00  0.00    +0.038 A 
ATOM     17  C   UNL     1       9.384  -0.021   1.637  0.00  0.00    +0.061 A 
ATOM     18  C   UNL     1      10.620  -0.635   1.718  0.00  0.00    +0.127 A 
ATOM     19  C   UNL     1      10.941  -1.665   0.850  0.00  0.00    +0.067 A 
ATOM     20  C   UNL     1      10.026  -2.082  -0.099  0.00  0.00    +0.109 A 
ATOM     21  C   UNL     1       8.787  -1.476  -0.181  0.00  0.00    +0.052 A 
ATOM     22  F   UNL     1      11.516  -0.229   2.644  0.00  0.00    -0.205 F 
BRANCH  20  23
ATOM     23  S   UNL     1      10.438  -3.394  -1.202  0.00  0.00    +0.056 S 
ATOM     24  O   UNL     1       9.619  -3.230  -2.351  0.00  0.00    -0.153 OA
ATOM     25  O   UNL     1      11.857  -3.432  -1.276  0.00  0.00    -0.153 OA
BRANCH  23  26
ATOM     26  N   UNL     1       9.964  -4.807  -0.480  0.00  0.00    -0.204 NA
ATOM     27  H   UNL     1       9.691  -5.562  -1.025  0.00  0.00    +0.144 HD
ATOM     28  H   UNL     1       9.960  -4.880   0.487  0.00  0.00    +0.144 HD
ENDBRANCH  23  26
ENDBRANCH  20  23
ENDBRANCH   3  16
TORSDOF 4
