REMARK  Name = ZINC21722065
REMARK  4 active torsions:
REMARK  status: ('A' for Active; 'I' for Inactive)
REMARK    1  A    between atoms: C_10  and  C_25
REMARK    2  A    between atoms: N_12  and  C_13
REMARK    3  A    between atoms: C_13  and  C_14
REMARK    4  A    between atoms: C_19  and  C_22
REMARK                            x       y       z     vdW  Elec       q    Type
REMARK                         _______ _______ _______ _____ _____    ______ ____
ROOT
ATOM      1  C   UNL     1      -3.848  -1.347   2.185  0.00  0.00    +0.002 A 
ATOM      2  C   UNL     1      -2.691  -1.382   2.941  0.00  0.00    +0.002 A 
ATOM      3  C   UNL     1      -1.640  -0.529   2.655  0.00  0.00    +0.025 A 
ATOM      4  C   UNL     1      -1.755   0.366   1.599  0.00  0.00    +0.052 A 
ATOM      5  C   UNL     1      -2.917   0.408   0.856  0.00  0.00    +0.052 A 
ATOM      6  C   UNL     1      -3.968  -0.450   1.136  0.00  0.00    +0.025 A 
ATOM      7  N   UNL     1      -2.998   1.358  -0.158  0.00  0.00    -0.316 N 
ATOM      8  C   UNL     1      -2.196   1.345  -1.255  0.00  0.00    +0.017 C 
ATOM      9  C   UNL     1      -0.875   1.125  -1.207  0.00  0.00    +0.037 C 
ATOM     10  C   UNL     1      -0.041   0.912   0.035  0.00  0.00    +0.146 C 
ATOM     11  N   UNL     1      -0.708   1.223   1.278  0.00  0.00    -0.308 N 
ATOM     12  C   UNL     1      -0.127   1.081  -2.409  0.00  0.00    +0.163 C 
ATOM     13  O   UNL     1       1.066   0.855  -2.351  0.00  0.00    -0.292 OA
ATOM     14  C   UNL     1      -0.760   1.302  -3.750  0.00  0.00    +0.080 C 
ATOM     15  C   UNL     1      -1.966   2.232  -3.570  0.00  0.00    +0.014 C 
ATOM     16  C   UNL     1      -2.906   1.577  -2.576  0.00  0.00    +0.051 C 
ATOM     17  H   UNL     1      -3.738   2.169  -0.094  0.00  0.00    +0.152 HD
ENDROOT
BRANCH  10  18
ATOM     18  C   UNL     1       1.193   1.770  -0.069  0.00  0.00    +0.015 A 
ATOM     19  C   UNL     1       2.438   1.428  -0.482  0.00  0.00    +0.013 A 
ATOM     20  C   UNL     1       3.428   2.392  -0.495  0.00  0.00    +0.008 A 
ATOM     21  C   UNL     1       3.125   3.652  -0.096  0.00  0.00    +0.045 A 
ATOM     22  S   UNL     1       1.393   3.503   0.312  0.00  0.00    -0.099 S 
ENDBRANCH  10  18
BRANCH  11  23
ATOM     23  C   UNL     1       0.255   1.315   2.383  0.00  0.00    +0.202 C 
BRANCH  23  24
ATOM     24  C   UNL     1      -0.473   1.670   3.655  0.00  0.00    +0.233 C 
ATOM     25  O   UNL     1      -1.647   1.972   3.618  0.00  0.00    -0.274 OA
ATOM     26  N   UNL     1       0.182   1.651   4.833  0.00  0.00    -0.300 N 
ATOM     27  C   UNL     1       1.602   1.281   4.895  0.00  0.00    +0.108 C 
ATOM     28  C   UNL     1       1.780   0.155   5.912  0.00  0.00    +0.032 C 
ATOM     29  C   UNL     1       1.183   0.585   7.254  0.00  0.00    +0.078 C 
ATOM     30  C   UNL     1      -0.314   0.855   7.086  0.00  0.00    +0.032 C 
ATOM     31  C   UNL     1      -0.514   1.994   6.081  0.00  0.00    +0.108 C 
BRANCH  29  32
ATOM     32  C   UNL     1       1.384  -0.512   8.267  0.00  0.00    +0.214 C 
ATOM     33  O   UNL     1       0.425  -1.028   8.802  0.00  0.00    -0.276 OA
ATOM     34  N   UNL     1       2.630  -0.921   8.579  0.00  0.00    -0.329 N 
ATOM     35  H   UNL     1       2.777  -1.722   9.319  0.00  0.00    +0.145 HD
ATOM     36  H   UNL     1       3.500  -0.454   8.094  0.00  0.00    +0.145 HD
ENDBRANCH  29  32
ENDBRANCH  23  24
ENDBRANCH  11  23
TORSDOF 4
