REMARK  Name = ZINC37264044
REMARK  14 active torsions:
REMARK  status: ('A' for Active; 'I' for Inactive)
REMARK    1  A    between atoms: C_1  and  C_2
REMARK    2  A    between atoms: C_2  and  C_3
REMARK    3  A    between atoms: C_3  and  C_5
REMARK    4  A    between atoms: C_3  and  N_6
REMARK    5  A    between atoms: C_7  and  C_9
REMARK    6  A    between atoms: C_9  and  N_10
REMARK    7  A    between atoms: C_13  and  C_24
REMARK    8  A    between atoms: N_15  and  C_16
REMARK    9  A    between atoms: C_19  and  C_23
REMARK   10  A    between atoms: C_21  and  C_22
REMARK   11  A    between atoms: C_24  and  C_25
REMARK   12  A    between atoms: C_24  and  C_26
REMARK   13  A    between atoms: C_24  and  C_27
REMARK   14  A    between atoms: C_28  and  C_34
REMARK                            x       y       z     vdW  Elec       q    Type
REMARK                         _______ _______ _______ _____ _____    ______ ____
ROOT
ATOM      1  N   UNL     1      -3.630   2.888   0.427  0.00  0.00    -0.246 N 
ATOM      2  C   UNL     1      -4.898   3.378   0.772  0.00  0.00    +0.136 A 
ATOM      3  C   UNL     1      -6.042   3.020   0.144  0.00  0.00    +0.034 A 
ATOM      4  C   UNL     1      -7.098   3.696   0.756  0.00  0.00    +0.075 A 
ATOM      5  N   UNL     1      -6.606   4.439   1.718  0.00  0.00    -0.169 NA
ATOM      6  N   UNL     1      -5.214   4.260   1.750  0.00  0.00    -0.217 N 
ATOM      7  C   UNL     1      -6.122   2.059  -1.015  0.00  0.00    +0.112 C 
ATOM      8  S   UNL     1      -5.849   0.363  -0.388  0.00  0.00    -0.138 S 
ATOM      9  C   UNL     1      -4.503   0.621   0.817  0.00  0.00    +0.166 C 
ATOM     10  C   UNL     1      -3.479   1.569   0.267  0.00  0.00    +0.231 C 
ATOM     11  O   UNL     1      -2.509   1.139  -0.321  0.00  0.00    -0.274 OA
ENDROOT
BRANCH   6  12
ATOM     12  C   UNL     1      -4.317   4.879   2.632  0.00  0.00    +0.070 A 
ATOM     13  C   UNL     1      -3.367   4.121   3.303  0.00  0.00    +0.028 A 
ATOM     14  C   UNL     1      -2.485   4.733   4.171  0.00  0.00    +0.005 A 
ATOM     15  C   UNL     1      -2.547   6.100   4.372  0.00  0.00    -0.050 A 
ATOM     16  C   UNL     1      -3.492   6.858   3.704  0.00  0.00    +0.008 A 
ATOM     17  C   UNL     1      -4.373   6.251   2.830  0.00  0.00    -0.025 A 
ATOM     18  C   UNL     1      -5.398   7.078   2.099  0.00  0.00    +0.046 C 
ATOM     19  C   UNL     1      -1.583   6.766   5.320  0.00  0.00    +0.044 C 
ENDBRANCH   6  12
BRANCH   7  20
ATOM     20  C   UNL     1      -7.483   2.152  -1.656  0.00  0.00    -0.023 A 
ATOM     21  C   UNL     1      -7.680   2.945  -2.772  0.00  0.00    +0.012 A 
ATOM     22  C   UNL     1      -8.917   3.006  -3.323  0.00  0.00    +0.045 A 
ATOM     23  S   UNL     1      -9.852   1.922  -2.257  0.00  0.00    -0.105 S 
ATOM     24  C   UNL     1      -8.530   1.456  -1.151  0.00  0.00    +0.050 A 
ENDBRANCH   7  20
BRANCH   4  25
ATOM     25  C   UNL     1      -8.553   3.591   0.377  0.00  0.00    +0.007 C 
ATOM     26  C   UNL     1      -9.040   2.161   0.619  0.00  0.00    +0.017 C 
ATOM     27  C   UNL     1      -9.373   4.560   1.229  0.00  0.00    +0.017 C 
ATOM     28  C   UNL     1      -8.721   3.944  -1.102  0.00  0.00    +0.017 C 
ENDBRANCH   4  25
BRANCH   1  29
ATOM     29  C   UNL     1      -2.499   3.800   0.239  0.00  0.00    +0.210 C 
BRANCH  29  31
ATOM     30  N   UNL     1      -1.389   4.974  -1.633  0.00  0.00    -0.311 N 
ATOM     31  C   UNL     1      -2.368   4.144  -1.222  0.00  0.00    +0.231 C 
ATOM     32  O   UNL     1      -3.143   3.673  -2.028  0.00  0.00    -0.274 OA
ATOM     33  H   UNL     1      -0.769   5.351  -0.989  0.00  0.00    +0.149 HD
BRANCH  30  34
ATOM     34  C   UNL     1      -1.261   5.309  -3.054  0.00  0.00    +0.070 C 
ATOM     35  C   UNL     1      -0.440   4.228  -3.760  0.00  0.00    +0.028 C 
BRANCH  34  37
ATOM     36  C   UNL     1      -1.438   7.759  -2.602  0.00  0.00    +0.005 C 
ATOM     37  C   UNL     1      -0.558   6.660  -3.199  0.00  0.00    +0.018 C 
ENDBRANCH  34  37
ENDBRANCH  30  34
ENDBRANCH  29  31
ENDBRANCH   1  29
TORSDOF 7
