REMARK  3 active torsions:
REMARK  status: ('A' for Active; 'I' for Inactive)
REMARK    1  A    between atoms: C6_6  and  C8_9 
REMARK    2  A    between atoms: C10_12  and  N5_28 
REMARK    3  A    between atoms: C12_13  and  N5_28 
ROOT
HETATM    1  C8  855 A 857      14.743  65.859   5.924  1.00 16.75     0.134 A 
HETATM    2  N9  855 A 857      15.662  66.579   5.254  1.00 17.36    -0.326 N 
ATOM      3  H9  855 A 857      15.744  66.492   4.241  1.00  0.00     0.169 HD
HETATM    4  C10 855 A 857      16.474  67.416   5.931  1.00 17.21     0.119 A 
HETATM    5  C18 855 A 857      16.401  67.566   7.336  1.00 18.20     0.035 A 
HETATM    6  C19 855 A 857      17.216  68.435   8.152  1.00 19.21     0.017 A 
HETATM    7  C20 855 A 857      17.037  68.486   9.557  1.00 19.18     0.001 A 
HETATM    8  C21 855 A 857      16.050  67.678  10.165  1.00 20.18     0.002 A 
HETATM    9  C22 855 A 857      15.237  66.821   9.367  1.00 19.67     0.030 A 
HETATM   10  C23 855 A 857      15.392  66.751   7.965  1.00 18.13     0.047 A 
HETATM   11  N24 855 A 857      14.580  65.915   7.272  1.00 18.00    -0.340 N 
ATOM     12  H24 855 A 857      13.874  65.350   7.744  1.00  0.00     0.167 HD
ENDROOT
BRANCH   4  13
HETATM   13  N5  855 A 857      17.395  68.128   5.153  1.00 17.20    -0.342 N 
ATOM     14  H5  855 A 857      18.241  68.395   5.657  1.00  0.00     0.167 HD
BRANCH  13  15
HETATM   15  C12 855 A 857      17.378  68.546   3.810  1.00 16.96     0.036 A 
HETATM   16  C17 855 A 857      16.213  68.407   2.978  1.00 17.67     0.046 A 
HETATM   17  C16 855 A 857      16.275  68.850   1.647  1.00 16.96     0.090 A 
HETATM   18  N15 855 A 857      17.404  69.414   1.099  1.00 18.09    -0.375 N 
HETATM   19  C14 855 A 857      18.514  69.538   1.910  1.00 17.63     0.090 A 
ATOM     20  H15 855 A 857      17.420  69.729   0.129  1.00  0.00     0.164 HD
HETATM   21  C13 855 A 857      18.540  69.123   3.250  1.00 17.71     0.046 A 
ENDBRANCH  13  15
ENDBRANCH   4  13
BRANCH   1  22
HETATM   22  C6  855 A 857      13.872  64.995   5.122  1.00 16.58     0.077 A 
HETATM   23  C5  855 A 857      14.305  64.371   3.922  1.00 16.64     0.033 A 
HETATM   24  C4  855 A 857      13.377  63.574   3.204  1.00 16.54     0.004 A 
HETATM   25  C3  855 A 857      12.050  63.421   3.683  1.00 16.34     0.024 A 
HETATM   26  C2  855 A 857      11.688  64.067   4.880  1.00 16.52     0.005 A 
HETATM   27  N7  855 A 857      12.574  64.838   5.586  1.00 16.48    -0.357 N 
HETATM   28  C1  855 A 857      10.302  63.945   5.427  1.00 16.51     0.068 C 
ATOM     29  H7  855 A 857      12.280  65.295   6.449  1.00  0.00     0.166 HD
ENDBRANCH   1  22
TORSDOF 3
