REMARK  Name = ZINC15723723
REMARK  8 active torsions:
REMARK  status: ('A' for Active; 'I' for Inactive)
REMARK    1  A    between atoms: C_1  and  C_2
REMARK    2  A    between atoms: C_2  and  C_4
REMARK    3  A    between atoms: C_2  and  N_14
REMARK    4  A    between atoms: C_15  and  C_17
REMARK    5  A    between atoms: C_23  and  C_28
REMARK    6  A    between atoms: C_23  and  C_29
REMARK    7  A    between atoms: N_24  and  C_27
REMARK    8  A    between atoms: N_31  and  C_32
REMARK                            x       y       z     vdW  Elec       q    Type
REMARK                         _______ _______ _______ _____ _____    ______ ____
ROOT
ATOM      1  C   UNL     1       3.179   3.497  -0.293  0.00  0.00    +0.148 A 
ATOM      2  C   UNL     1       2.649   2.215  -0.018  0.00  0.00    +0.067 A 
ATOM      3  C   UNL     1       1.321   2.410   0.147  0.00  0.00    +0.124 A 
ATOM      4  N   UNL     1       1.076   3.757  -0.024  0.00  0.00    -0.256 N 
ATOM      5  N   UNL     1       2.174   4.356  -0.277  0.00  0.00    -0.166 NA
ATOM      6  C   UNL     1      -0.283   4.299   0.091  0.00  0.00    +0.179 C 
ATOM      7  C   UNL     1      -1.288   3.233  -0.340  0.00  0.00    +0.130 C 
ATOM      8  N   UNL     1      -1.031   1.933   0.268  0.00  0.00    -0.284 N 
ATOM      9  C   UNL     1       0.229   1.470   0.454  0.00  0.00    +0.265 C 
ATOM     10  O   UNL     1       0.447   0.340   0.847  0.00  0.00    -0.268 OA
ATOM     11  C   UNL     1      -2.164   1.109   0.693  0.00  0.00    +0.133 C 
ATOM     12  C   UNL     1      -1.224   3.079  -1.861  0.00  0.00    +0.044 C 
ENDROOT
BRANCH   1  14
ATOM     13  N   UNL     1       4.967   5.090  -0.800  0.00  0.00    -0.307 N 
ATOM     14  C   UNL     1       4.598   3.817  -0.551  0.00  0.00    +0.264 C 
ATOM     15  O   UNL     1       5.434   2.934  -0.537  0.00  0.00    -0.268 OA
ATOM     16  H   UNL     1       4.301   5.794  -0.811  0.00  0.00    +0.149 HD
BRANCH  13  18
ATOM     17  C   UNL     1       6.688   5.181  -2.536  0.00  0.00    +0.028 C 
ATOM     18  C   UNL     1       6.374   5.408  -1.056  0.00  0.00    +0.076 C 
BRANCH  18  19
ATOM     19  C   UNL     1       6.640   6.871  -0.697  0.00  0.00    -0.010 C 
ATOM     20  C   UNL     1       6.326   7.098   0.784  0.00  0.00    +0.012 C 
ATOM     21  C   UNL     1       6.591   8.561   1.143  0.00  0.00    -0.010 C 
ATOM     22  C   UNL     1       8.061   8.893   0.876  0.00  0.00    +0.007 C 
ATOM     23  C   UNL     1       8.374   8.667  -0.604  0.00  0.00    -0.010 C 
ATOM     24  C   UNL     1       8.109   7.203  -0.963  0.00  0.00    +0.012 C 
ATOM     25  C   UNL     1       7.484   9.571  -1.458  0.00  0.00    +0.007 C 
ATOM     26  C   UNL     1       6.014   9.239  -1.192  0.00  0.00    -0.010 C 
ATOM     27  C   UNL     1       5.701   9.466   0.288  0.00  0.00    +0.007 C 
ATOM     28  C   UNL     1       5.749   7.775  -1.551  0.00  0.00    +0.012 C 
ENDBRANCH  18  19
ENDBRANCH  13  18
ENDBRANCH   1  14
BRANCH   7  29
ATOM     29  C   UNL     1      -2.673   3.686   0.044  0.00  0.00    +0.238 C 
ATOM     30  O   UNL     1      -3.420   4.136  -0.799  0.00  0.00    -0.273 OA
ATOM     31  N   UNL     1      -3.082   3.592   1.325  0.00  0.00    -0.311 N 
ATOM     32  H   UNL     1      -2.461   3.304   2.012  0.00  0.00    +0.149 HD
BRANCH  31  33
ATOM     33  C   UNL     1      -4.464   3.925   1.679  0.00  0.00    +0.073 C 
ATOM     34  C   UNL     1      -4.583   5.434   1.906  0.00  0.00    +0.022 C 
ATOM     35  C   UNL     1      -6.026   5.782   2.276  0.00  0.00    +0.002 C 
ATOM     36  C   UNL     1      -6.417   5.041   3.556  0.00  0.00    +0.000 C 
ATOM     37  C   UNL     1      -6.298   3.533   3.329  0.00  0.00    +0.002 C 
ATOM     38  C   UNL     1      -4.855   3.185   2.959  0.00  0.00    +0.022 C 
ENDBRANCH  31  33
ENDBRANCH   7  29
TORSDOF 5
