REMARK  Name = ZINC39666251
REMARK  12 active torsions:
REMARK  status: ('A' for Active; 'I' for Inactive)
REMARK    1  A    between atoms: C_1  and  C_2
REMARK    2  A    between atoms: C_2  and  C_3
REMARK    3  A    between atoms: C_3  and  C_5
REMARK    4  A    between atoms: C_3  and  C_6
REMARK    5  A    between atoms: C_6  and  C_7
REMARK    6  A    between atoms: C_11  and  C_20
REMARK    7  A    between atoms: N_22  and  C_23
REMARK    8  A    between atoms: C_23  and  C_24
REMARK    9  A    between atoms: C_24  and  C_26
REMARK   10  A    between atoms: C_24  and  O_27
REMARK   11  A    between atoms: O_27  and  C_28
REMARK   12  A    between atoms: C_31  and  C_34
REMARK                            x       y       z     vdW  Elec       q    Type
REMARK                         _______ _______ _______ _____ _____    ______ ____
ROOT
ATOM      1  C   UNL     1      -2.779  -2.551  -0.238  0.00  0.00    +0.216 C 
ATOM      2  O   UNL     1      -3.704  -1.767  -0.205  0.00  0.00    -0.276 OA
ATOM      3  N   UNL     1      -3.018  -3.872  -0.360  0.00  0.00    -0.300 N 
ATOM      4  C   UNL     1      -2.029  -4.973  -0.411  0.00  0.00    +0.121 C 
ATOM      5  C   UNL     1      -2.668  -6.111   0.416  0.00  0.00    +0.100 C 
ATOM      6  C   UNL     1      -4.179  -5.828   0.370  0.00  0.00    -0.004 C 
ATOM      7  C   UNL     1      -4.332  -4.550  -0.468  0.00  0.00    +0.115 C 
ATOM      8  C   UNL     1      -4.717  -5.596   1.778  0.00  0.00    -0.010 C 
ATOM      9  C   UNL     1      -6.231  -5.374   1.712  0.00  0.00    -0.082 C 
ATOM     10  N   UNL     1      -6.873  -6.548   1.108  0.00  0.00    +0.379 N 
ATOM     11  C   UNL     1      -6.419  -6.710  -0.278  0.00  0.00    -0.082 C 
ATOM     12  C   UNL     1      -4.914  -6.988  -0.296  0.00  0.00    -0.010 C 
ATOM     13  H   UNL     1      -6.631  -7.372   1.638  0.00  0.00    -0.086 HD
ATOM     14  H   UNL     1      -7.875  -6.426   1.121  0.00  0.00    -0.086 HD
ENDROOT
BRANCH   5  15
ATOM     15  C   UNL     1      -2.362  -7.449  -0.207  0.00  0.00    +0.218 C 
ATOM     16  O   UNL     1      -2.287  -7.553  -1.413  0.00  0.00    -0.275 OA
ATOM     17  N   UNL     1      -2.173  -8.529   0.576  0.00  0.00    -0.312 N 
ATOM     18  H   UNL     1      -2.234  -8.446   1.541  0.00  0.00    +0.149 HD
BRANCH  17  19
ATOM     19  C   UNL     1      -1.876  -9.830  -0.029  0.00  0.00    +0.148 C 
BRANCH  19  20
ATOM     20  C   UNL     1      -1.708 -10.878   1.072  0.00  0.00    +0.187 C 
ATOM     21  C   UNL     1      -1.397 -12.237   0.439  0.00  0.00    +0.053 C 
BRANCH  20  22
ATOM     22  O   UNL     1      -0.632 -10.497   1.933  0.00  0.00    -0.488 OA
BRANCH  22  23
ATOM     23  C   UNL     1      -0.660 -10.977   3.204  0.00  0.00    +0.121 A 
ATOM     24  C   UNL     1       0.284 -10.552   4.127  0.00  0.00    +0.046 A 
ATOM     25  C   UNL     1       0.254 -11.041   5.419  0.00  0.00    +0.007 A 
ATOM     26  C   UNL     1      -0.715 -11.954   5.791  0.00  0.00    -0.050 A 
ATOM     27  C   UNL     1      -1.657 -12.379   4.873  0.00  0.00    +0.007 A 
ATOM     28  C   UNL     1      -1.635 -11.889   3.581  0.00  0.00    +0.046 A 
ATOM     29  C   UNL     1      -0.745 -12.486   7.201  0.00  0.00    +0.044 C 
ENDBRANCH  22  23
ENDBRANCH  20  22
ENDBRANCH  19  20
ENDBRANCH  17  19
ENDBRANCH   5  15
BRANCH   1  30
ATOM     30  C   UNL     1      -1.361  -2.048  -0.142  0.00  0.00    +0.099 C 
BRANCH  30  31
ATOM     31  C   UNL     1      -1.369  -0.524  -0.011  0.00  0.00    -0.006 C 
ATOM     32  C   UNL     1      -2.029  -0.128   1.311  0.00  0.00    +0.008 C 
BRANCH  31  34
ATOM     33  C   UNL     1       0.058   1.528  -0.034  0.00  0.00    +0.004 C 
ATOM     34  C   UNL     1       0.070  -0.003  -0.039  0.00  0.00    +0.000 C 
ENDBRANCH  31  34
ENDBRANCH  30  31
ENDBRANCH   1  30
TORSDOF 8
