REMARK  Name = ZINC41077028
REMARK  7 active torsions:
REMARK  status: ('A' for Active; 'I' for Inactive)
REMARK    1  A    between atoms: C_1  and  C_2
REMARK    2  A    between atoms: C_7  and  N_8
REMARK    3  A    between atoms: N_11  and  C_12
REMARK    4  A    between atoms: N_11  and  C_25
REMARK    5  A    between atoms: C_12  and  C_13
REMARK    6  A    between atoms: C_25  and  C_26
REMARK    7  A    between atoms: C_25  and  C_27
REMARK                            x       y       z     vdW  Elec       q    Type
REMARK                         _______ _______ _______ _____ _____    ______ ____
ROOT
ATOM      1  N   UNL     1      -0.179  -1.960   3.615  0.00  0.00    -0.269 N 
ATOM      2  C   UNL     1       0.043  -0.632   3.675  0.00  0.00    +0.307 C 
ATOM      3  O   UNL     1      -0.028   0.043   2.666  0.00  0.00    -0.252 OA
ATOM      4  N   UNL     1       0.344  -0.051   4.854  0.00  0.00    -0.279 N 
ATOM      5  H   UNL     1      -0.197  -2.486   4.430  0.00  0.00    +0.156 HD
ENDROOT
BRANCH   1  12
ATOM      6  C   UNL     1       0.625  -4.673   3.322  0.00  0.00    +0.045 C 
ATOM      7  C   UNL     1      -0.006  -3.903   2.191  0.00  0.00    -0.029 A 
ATOM      8  C   UNL     1      -0.214  -4.514   0.970  0.00  0.00    +0.005 A 
ATOM      9  C   UNL     1      -0.793  -3.807  -0.068  0.00  0.00    +0.000 A 
ATOM     10  C   UNL     1      -1.165  -2.487   0.113  0.00  0.00    +0.002 A 
ATOM     11  C   UNL     1      -0.959  -1.871   1.331  0.00  0.00    +0.023 A 
ATOM     12  C   UNL     1      -0.384  -2.580   2.378  0.00  0.00    +0.038 A 
ENDBRANCH   1  12
BRANCH   4  13
ATOM     13  C   UNL     1       0.451   1.407   4.946  0.00  0.00    +0.072 C 
ATOM     14  C   UNL     1      -0.486   1.918   6.043  0.00  0.00    +0.028 C 
ATOM     15  C   UNL     1       1.892   1.792   5.286  0.00  0.00    +0.028 C 
ENDBRANCH   4  13
BRANCH   4  16
ATOM     16  C   UNL     1       0.565  -0.879   6.043  0.00  0.00    +0.145 C 
BRANCH  16  17
ATOM     17  C   UNL     1      -0.761  -1.212   6.676  0.00  0.00    -0.016 A 
ATOM     18  C   UNL     1      -1.924  -0.903   6.052  0.00  0.00    +0.076 A 
ATOM     19  C   UNL     1      -3.160  -1.220   6.655  0.00  0.00    +0.249 A 
ATOM     20  O   UNL     1      -4.194  -0.934   6.076  0.00  0.00    -0.268 OA
ATOM     21  N   UNL     1      -3.226  -1.830   7.851  0.00  0.00    -0.322 N 
ATOM     22  H   UNL     1      -4.093  -2.034   8.237  0.00  0.00    +0.169 HD
ATOM     23  C   UNL     1      -2.080  -2.171   8.537  0.00  0.00    +0.049 A 
ATOM     24  C   UNL     1      -0.821  -1.882   7.977  0.00  0.00    +0.003 A 
ATOM     25  C   UNL     1       0.345  -2.230   8.666  0.00  0.00    +0.010 A 
ATOM     26  C   UNL     1       0.254  -2.854   9.878  0.00  0.00    +0.001 A 
ATOM     27  C   UNL     1      -0.985  -3.146  10.432  0.00  0.00    +0.002 A 
ATOM     28  C   UNL     1      -2.147  -2.801   9.775  0.00  0.00    +0.026 A 
ENDBRANCH  16  17
ENDBRANCH   4  16
TORSDOF 4
