REMARK  Name = ZINC37725532
REMARK  12 active torsions:
REMARK  status: ('A' for Active; 'I' for Inactive)
REMARK    1  A    between atoms: C_1  and  C_2
REMARK    2  A    between atoms: C_2  and  C_3
REMARK    3  A    between atoms: C_3  and  C_5
REMARK    4  A    between atoms: C_3  and  N_23
REMARK    5  A    between atoms: C_5  and  C_6
REMARK    6  A    between atoms: C_11  and  O_12
REMARK    7  A    between atoms: O_12  and  C_13
REMARK    8  A    between atoms: C_13  and  C_15
REMARK    9  A    between atoms: C_13  and  C_16
REMARK   10  A    between atoms: N_18  and  C_19
REMARK   11  A    between atoms: C_19  and  C_20
REMARK   12  A    between atoms: C_19  and  C_21
REMARK                            x       y       z     vdW  Elec       q    Type
REMARK                         _______ _______ _______ _____ _____    ______ ____
ROOT
ATOM      1  C   UNL     1       1.685  -2.296  -2.469  0.00  0.00    -0.006 A 
ATOM      2  C   UNL     1       1.051  -2.715  -3.623  0.00  0.00    +0.022 A 
ATOM      3  C   UNL     1       1.772  -3.350  -4.617  0.00  0.00    +0.018 A 
ATOM      4  C   UNL     1       3.129  -3.568  -4.459  0.00  0.00    +0.019 A 
ATOM      5  C   UNL     1       3.767  -3.150  -3.307  0.00  0.00    +0.047 A 
ATOM      6  C   UNL     1       3.046  -2.507  -2.311  0.00  0.00    +0.125 A 
ATOM      7 BR   UNL     1       0.901  -3.924  -6.195  0.00  0.00    -0.050 Br
ENDROOT
BRANCH   1   8
ATOM      8  C   UNL     1       0.898  -1.603  -1.386  0.00  0.00    +0.022 C 
BRANCH   8   9
ATOM      9  C   UNL     1       1.006  -0.087  -1.567  0.00  0.00    -0.071 C 
BRANCH   9  10
ATOM     10  N   UNL     1       0.359   0.302  -2.827  0.00  0.00    +0.380 N 
ATOM     11  H   UNL     1       0.430   1.302  -2.946  0.00  0.00    -0.090 HD
ATOM     12  H   UNL     1       0.816  -0.162  -3.598  0.00  0.00    -0.090 HD
ATOM     13  H   UNL     1      -0.614   0.035  -2.802  0.00  0.00    -0.090 HD
ENDBRANCH   9  10
BRANCH   9  15
ATOM     14  C   UNL     1       0.528   2.127  -0.513  0.00  0.00    +0.002 C 
ATOM     15  C   UNL     1       0.314   0.617  -0.399  0.00  0.00    -0.019 C 
ENDBRANCH   9  15
ENDBRANCH   8   9
ENDBRANCH   1   8
BRANCH   6  16
ATOM     16  O   UNL     1       3.673  -2.091  -1.179  0.00  0.00    -0.480 OA
BRANCH  16  17
ATOM     17  C   UNL     1       5.093  -2.239  -1.132  0.00  0.00    +0.255 C 
ATOM     18  C   UNL     1       5.444  -3.652  -0.663  0.00  0.00    +0.062 C 
BRANCH  17  19
ATOM     19  C   UNL     1       5.671  -1.232  -0.170  0.00  0.00    +0.254 C 
ATOM     20  O   UNL     1       4.934  -0.526   0.484  0.00  0.00    -0.272 OA
ATOM     21  N   UNL     1       7.008  -1.117  -0.038  0.00  0.00    -0.310 N 
ATOM     22  H   UNL     1       7.597  -1.682  -0.562  0.00  0.00    +0.149 HD
BRANCH  21  23
ATOM     23  C   UNL     1       7.569  -0.139   0.897  0.00  0.00    +0.067 C 
ATOM     24  C   UNL     1       7.631  -0.750   2.298  0.00  0.00    +0.027 C 
ATOM     25  C   UNL     1       8.980   0.246   0.446  0.00  0.00    +0.027 C 
ENDBRANCH  21  23
ENDBRANCH  17  19
ENDBRANCH  16  17
ENDBRANCH   6  16
TORSDOF 8
