REMARK  Name = ZINC23326484
REMARK  7 active torsions:
REMARK  status: ('A' for Active; 'I' for Inactive)
REMARK    1  A    between atoms: C_1  and  C_2
REMARK    2  A    between atoms: C_2  and  C_4
REMARK    3  A    between atoms: C_2  and  N_14
REMARK    4  A    between atoms: C_15  and  C_17
REMARK    5  A    between atoms: C_17  and  N_18
REMARK    6  A    between atoms: C_21  and  C_25
REMARK    7  A    between atoms: C_21  and  C_26
REMARK                            x       y       z     vdW  Elec       q    Type
REMARK                         _______ _______ _______ _____ _____    ______ ____
ROOT
ATOM      1  N   UNL     1       2.876   7.460   3.034  0.00  0.00    -0.215 N 
ATOM      2  C   UNL     1       2.010   6.689   3.722  0.00  0.00    +0.251 C 
ATOM      3  O   UNL     1       2.222   6.095   4.758  0.00  0.00    -0.272 OA
ATOM      4  C   UNL     1       0.717   6.721   2.933  0.00  0.00    +0.135 C 
ATOM      5  N   UNL     1       1.034   7.586   1.783  0.00  0.00    -0.281 N 
ATOM      6  C   UNL     1       2.315   7.968   1.931  0.00  0.00    +0.310 C 
ATOM      7  O   UNL     1       2.899   8.693   1.149  0.00  0.00    -0.252 OA
ATOM      8  C   UNL     1      -0.411   7.325   3.771  0.00  0.00    +0.047 C 
ATOM      9  H   UNL     1       0.266   7.794   1.023  0.00  0.00    +0.152 HD
ENDROOT
BRANCH   4  10
ATOM     10  C   UNL     1       0.346   5.336   2.467  0.00  0.00    -0.012 A 
ATOM     11  C   UNL     1       0.716   4.235   3.217  0.00  0.00    +0.010 A 
ATOM     12  C   UNL     1       0.380   2.961   2.796  0.00  0.00    +0.050 A 
ATOM     13  C   UNL     1      -0.330   2.792   1.619  0.00  0.00    +0.162 A 
ATOM     14  C   UNL     1      -0.702   3.897   0.867  0.00  0.00    +0.162 A 
ATOM     15  C   UNL     1      -0.364   5.171   1.292  0.00  0.00    +0.055 A 
ATOM     16  O   UNL     1      -1.402   3.720  -0.291  0.00  0.00    -0.488 OA
ATOM     17  C   UNL     1      -0.690   3.098  -1.362  0.00  0.00    +0.232 C 
ATOM     18  C   UNL     1      -0.736   1.583  -1.234  0.00  0.00    +0.082 C 
ATOM     19  C   UNL     1      -0.013   1.086   0.008  0.00  0.00    +0.232 C 
ATOM     20  O   UNL     1      -0.670   1.541   1.193  0.00  0.00    -0.488 OA
ENDBRANCH   4  10
BRANCH   1  21
ATOM     21  C   UNL     1       4.260   7.709   3.444  0.00  0.00    +0.213 C 
BRANCH  21  23
ATOM     22  N   UNL     1       6.484   6.686   3.086  0.00  0.00    -0.307 N 
ATOM     23  C   UNL     1       5.158   6.657   2.844  0.00  0.00    +0.231 C 
ATOM     24  O   UNL     1       4.688   5.786   2.144  0.00  0.00    -0.274 OA
ATOM     25  H   UNL     1       6.910   7.476   3.721  0.00  0.00    +0.149 HD
BRANCH  22  27
ATOM     26  C   UNL     1       7.367   4.428   3.405  0.00  0.00    +0.033 C 
ATOM     27  C   UNL     1       7.357   5.664   2.503  0.00  0.00    +0.100 C 
BRANCH  27  28
ATOM     28  C   UNL     1       8.757   6.209   2.382  0.00  0.00    -0.027 A 
ATOM     29  C   UNL     1       9.286   6.993   3.390  0.00  0.00    +0.006 A 
ATOM     30  C   UNL     1      10.567   7.490   3.271  0.00  0.00    +0.004 A 
ATOM     31  C   UNL     1      11.330   7.210   2.144  0.00  0.00    -0.044 A 
ATOM     32  C   UNL     1      10.805   6.426   1.142  0.00  0.00    -0.044 A 
ATOM     33  C   UNL     1       9.516   5.923   1.267  0.00  0.00    +0.009 A 
ATOM     34  C   UNL     1      11.579   6.074  -0.102  0.00  0.00    +0.035 C 
ATOM     35  C   UNL     1      12.759   7.024  -0.287  0.00  0.00    +0.005 C 
ATOM     36  C   UNL     1      13.554   7.069   1.024  0.00  0.00    +0.005 C 
ATOM     37  C   UNL     1      12.716   7.798   2.072  0.00  0.00    +0.035 C 
ENDBRANCH  27  28
ENDBRANCH  22  27
ENDBRANCH  21  23
ENDBRANCH   1  21
TORSDOF 5
