REMARK  Name = ZINC59982438
REMARK  16 active torsions:
REMARK  status: ('A' for Active; 'I' for Inactive)
REMARK    1  A    between atoms: C_1  and  C_2
REMARK    2  A    between atoms: C_2  and  N_3
REMARK    3  A    between atoms: N_3  and  C_4
REMARK    4  A    between atoms: N_3  and  S_6
REMARK    5  A    between atoms: C_4  and  C_5
REMARK    6  A    between atoms: S_6  and  C_9
REMARK    7  A    between atoms: C_11  and  C_17
REMARK    8  A    between atoms: C_14  and  O_15
REMARK    9  A    between atoms: O_15  and  C_16
REMARK   10  A    between atoms: N_19  and  C_20
REMARK   11  A    between atoms: C_20  and  C_21
REMARK   12  A    between atoms: C_21  and  C_22
REMARK   13  A    between atoms: C_21  and  C_23
REMARK   14  A    between atoms: C_21  and  N_24
REMARK   15  A    between atoms: C_26  and  C_33
REMARK   16  A    between atoms: C_29  and  C_32
REMARK                            x       y       z     vdW  Elec       q    Type
REMARK                         _______ _______ _______ _____ _____    ______ ____
ROOT
ATOM      1  C   UNL     1      -6.349   1.730   2.476  0.00  0.00    +0.244 C 
ATOM      2  O   UNL     1      -6.850   0.645   2.255  0.00  0.00    -0.270 OA
ATOM      3  N   UNL     1      -7.096   2.725   2.993  0.00  0.00    -0.313 N 
ATOM      4  H   UNL     1      -6.695   3.591   3.170  0.00  0.00    +0.149 HD
ENDROOT
BRANCH   1   7
ATOM      5  C   UNL     1      -2.813   1.143   1.365  0.00  0.00    +0.148 A 
ATOM      6  C   UNL     1      -4.144   0.927   1.642  0.00  0.00    +0.045 A 
ATOM      7  C   UNL     1      -4.921   1.957   2.178  0.00  0.00    +0.039 A 
ATOM      8  C   UNL     1      -4.342   3.204   2.431  0.00  0.00    +0.017 A 
ATOM      9  C   UNL     1      -3.010   3.412   2.151  0.00  0.00    +0.048 A 
ATOM     10  C   UNL     1      -2.240   2.382   1.623  0.00  0.00    +0.146 A 
BRANCH   5  11
ATOM     11  S   UNL     1      -1.833  -0.155   0.688  0.00  0.00    +0.064 S 
ATOM     12  O   UNL     1      -2.627  -1.333   0.740  0.00  0.00    -0.153 OA
ATOM     13  O   UNL     1      -0.558  -0.069   1.310  0.00  0.00    -0.153 OA
BRANCH  11  14
ATOM     14  N   UNL     1      -1.602   0.190  -0.915  0.00  0.00    -0.177 NA
BRANCH  14  16
ATOM     15  C   UNL     1      -0.657   2.194  -1.951  0.00  0.00    +0.022 C 
ATOM     16  C   UNL     1      -0.354   0.817  -1.357  0.00  0.00    +0.106 C 
ENDBRANCH  14  16
BRANCH  14  17
ATOM     17  C   UNL     1      -2.645  -0.133  -1.891  0.00  0.00    +0.106 C 
ATOM     18  C   UNL     1      -2.353  -1.497  -2.519  0.00  0.00    +0.022 C 
ENDBRANCH  14  17
ENDBRANCH  11  14
ENDBRANCH   5  11
BRANCH  10  19
ATOM     19  O   UNL     1      -0.926   2.590   1.354  0.00  0.00    -0.493 OA
ATOM     20  C   UNL     1      -0.401   3.887   1.644  0.00  0.00    +0.277 C 
ENDBRANCH  10  19
ENDBRANCH   1   7
BRANCH   3  21
ATOM     21  C   UNL     1      -8.513   2.499   3.289  0.00  0.00    +0.092 C 
BRANCH  21  22
ATOM     22  C   UNL     1      -9.154   3.812   3.745  0.00  0.00    -0.055 C 
ATOM     23  C   UNL     1      -9.112   4.825   2.599  0.00  0.00    -0.008 C 
ATOM     24  C   UNL     1     -10.608   3.556   4.146  0.00  0.00    -0.008 C 
BRANCH  22  25
ATOM     25  N   UNL     1      -8.414   4.344   4.897  0.00  0.00    +0.384 N 
ATOM     26  C   UNL     1      -8.454   3.370   5.994  0.00  0.00    -0.075 C 
ATOM     27  C   UNL     1      -7.617   3.884   7.168  0.00  0.00    -0.031 C 
ATOM     28  C   UNL     1      -8.188   5.221   7.648  0.00  0.00    +0.003 C 
ATOM     29  C   UNL     1      -8.211   6.206   6.476  0.00  0.00    -0.031 C 
ATOM     30  C   UNL     1      -9.026   5.606   5.329  0.00  0.00    -0.075 C 
ATOM     31  C   UNL     1      -8.852   7.521   6.926  0.00  0.00    +0.005 C 
ATOM     32  C   UNL     1      -6.168   4.080   6.715  0.00  0.00    +0.005 C 
ATOM     33  H   UNL     1      -7.455   4.510   4.631  0.00  0.00    -0.081 HD
ENDBRANCH  22  25
ENDBRANCH  21  22
ENDBRANCH   3  21
TORSDOF 9
