REMARK  Name = ZINC06462040
REMARK  14 active torsions:
REMARK  status: ('A' for Active; 'I' for Inactive)
REMARK    1  A    between atoms: C_1  and  C_2
REMARK    2  A    between atoms: C_2  and  C_3
REMARK    3  A    between atoms: C_3  and  C_4
REMARK    4  A    between atoms: C_3  and  C_5
REMARK    5  A    between atoms: C_3  and  N_6
REMARK    6  A    between atoms: C_7  and  C_9
REMARK    7  A    between atoms: C_9  and  C_11
REMARK    8  A    between atoms: C_9  and  N_18
REMARK    9  A    between atoms: C_14  and  O_17
REMARK   10  A    between atoms: N_18  and  C_19
REMARK   11  A    between atoms: C_19  and  C_20
REMARK   12  A    between atoms: C_26  and  C_28
REMARK   13  A    between atoms: C_29  and  N_36
REMARK   14  A    between atoms: C_30  and  C_33
REMARK                            x       y       z     vdW  Elec       q    Type
REMARK                         _______ _______ _______ _____ _____    ______ ____
ROOT
ATOM      1  N   UNL     1       4.435  -0.662  -2.131  0.00  0.00    -0.277 N 
ATOM      2  C   UNL     1       4.790   0.352  -2.946  0.00  0.00    +0.258 C 
ATOM      3  O   UNL     1       4.397   0.373  -4.098  0.00  0.00    -0.269 OA
ENDROOT
BRANCH   2   4
ATOM      4  C   UNL     1       5.649   1.427  -2.446  0.00  0.00    +0.115 A 
ATOM      5  C   UNL     1       6.187   2.520  -3.127  0.00  0.00    +0.076 A 
ATOM      6  C   UNL     1       6.960   3.337  -2.302  0.00  0.00    +0.155 A 
ATOM      7  N   UNL     1       7.109   3.015  -1.036  0.00  0.00    -0.203 NA
ATOM      8  S   UNL     1       6.293   1.686  -0.806  0.00  0.00    +0.019 S 
BRANCH   6   9
ATOM      9  C   UNL     1       7.607   4.545  -2.845  0.00  0.00    +0.262 C 
ATOM     10  O   UNL     1       7.464   4.837  -4.017  0.00  0.00    -0.269 OA
ATOM     11  N   UNL     1       8.356   5.327  -2.042  0.00  0.00    -0.324 N 
ATOM     12  H   UNL     1       8.470   5.094  -1.108  0.00  0.00    +0.145 HD
ATOM     13  H   UNL     1       8.782   6.122  -2.400  0.00  0.00    +0.145 HD
ENDBRANCH   6   9
BRANCH   5  14
ATOM     14  N   UNL     1       5.974   2.768  -4.477  0.00  0.00    -0.355 N 
ATOM     15  H   UNL     1       5.424   2.164  -5.000  0.00  0.00    +0.142 HD
ATOM     16  H   UNL     1       6.375   3.545  -4.896  0.00  0.00    +0.142 HD
ENDBRANCH   5  14
ENDBRANCH   2   4
BRANCH   1  17
ATOM     17  C   UNL     1       3.680  -1.799  -2.663  0.00  0.00    +0.193 C 
BRANCH  17  18
ATOM     18  C   UNL     1       2.227  -1.656  -2.291  0.00  0.00    -0.018 A 
ATOM     19  C   UNL     1       1.879  -1.163  -1.047  0.00  0.00    +0.009 A 
ATOM     20  C   UNL     1       0.547  -1.026  -0.705  0.00  0.00    +0.046 A 
ATOM     21  C   UNL     1      -0.441  -1.394  -1.607  0.00  0.00    +0.117 A 
ATOM     22  C   UNL     1      -0.088  -1.893  -2.853  0.00  0.00    +0.046 A 
ATOM     23  C   UNL     1       1.245  -2.023  -3.192  0.00  0.00    +0.009 A 
BRANCH  21  24
ATOM     24  O   UNL     1      -1.751  -1.265  -1.271  0.00  0.00    -0.507 OA
ATOM     25  H   UNL     1      -2.126  -2.048  -0.844  0.00  0.00    +0.292 HD
ENDBRANCH  21  24
ENDBRANCH  17  18
BRANCH  17  27
ATOM     26  N   UNL     1       4.044  -4.245  -2.733  0.00  0.00    -0.308 N 
ATOM     27  C   UNL     1       4.224  -3.079  -2.082  0.00  0.00    +0.239 C 
ATOM     28  O   UNL     1       4.824  -3.059  -1.028  0.00  0.00    -0.273 OA
ATOM     29  H   UNL     1       3.591  -4.256  -3.591  0.00  0.00    +0.149 HD
BRANCH  26  30
ATOM     30  C   UNL     1       4.533  -5.495  -2.146  0.00  0.00    +0.029 C 
ATOM     31  C   UNL     1       6.052  -5.423  -1.985  0.00  0.00    +0.031 C 
ATOM     32  C   UNL     1       3.883  -5.703  -0.777  0.00  0.00    +0.031 C 
BRANCH  30  34
ATOM     33  C   UNL     1       4.683  -7.970  -2.451  0.00  0.00    +0.006 C 
ATOM     34  C   UNL     1       4.173  -6.665  -3.065  0.00  0.00    +0.022 C 
ENDBRANCH  30  34
ENDBRANCH  26  30
ENDBRANCH  17  27
ENDBRANCH   1  17
BRANCH   1  35
ATOM     35  C   UNL     1       4.804  -0.626  -0.714  0.00  0.00    +0.144 C 
BRANCH  35  36
ATOM     36  C   UNL     1       6.246  -1.035  -0.560  0.00  0.00    -0.030 A 
ATOM     37  C   UNL     1       7.103  -0.970  -1.643  0.00  0.00    +0.005 A 
ATOM     38  C   UNL     1       8.425  -1.346  -1.501  0.00  0.00    +0.000 A 
ATOM     39  C   UNL     1       8.892  -1.787  -0.277  0.00  0.00    +0.000 A 
ATOM     40  C   UNL     1       8.035  -1.851   0.806  0.00  0.00    +0.000 A 
ATOM     41  C   UNL     1       6.712  -1.476   0.665  0.00  0.00    +0.005 A 
ENDBRANCH  35  36
ENDBRANCH   1  35
TORSDOF 11
