REMARK  Name = ZINC38546139
REMARK  5 active torsions:
REMARK  status: ('A' for Active; 'I' for Inactive)
REMARK    1  A    between atoms: C_3  and  C_6
REMARK    2  A    between atoms: N_8  and  C_9
REMARK    3  A    between atoms: C_10  and  C_18
REMARK    4  A    between atoms: C_18  and  C_20
REMARK    5  A    between atoms: C_18  and  N_29
REMARK                            x       y       z     vdW  Elec       q    Type
REMARK                         _______ _______ _______ _____ _____    ______ ____
ROOT
ATOM      1  C   UNL     1       6.749  -0.743   0.013  0.00  0.00    +0.074 A 
ATOM      2  C   UNL     1       6.985  -2.060   0.250  0.00  0.00    -0.025 A 
ATOM      3  C   UNL     1       8.266  -2.484   0.604  0.00  0.00    -0.033 A 
ATOM      4  C   UNL     1       9.223  -1.521   0.692  0.00  0.00    -0.005 A 
ATOM      5  S   UNL     1       8.364  -0.027   0.277  0.00  0.00    -0.078 S 
ATOM      6  C   UNL     1      10.663  -1.698   1.051  0.00  0.00    +0.043 C 
ATOM      7  C   UNL     1      10.839  -3.093   1.670  0.00  0.00    +0.005 C 
ATOM      8  C   UNL     1      10.129  -4.118   0.780  0.00  0.00    +0.005 C 
ATOM      9  C   UNL     1       8.614  -3.943   0.886  0.00  0.00    +0.036 C 
ENDROOT
BRANCH   1  12
ATOM     10  C   UNL     1       5.495   1.232  -0.410  0.00  0.00    +0.284 C 
ATOM     11  O   UNL     1       6.480   1.898  -0.149  0.00  0.00    -0.266 OA
ATOM     12  N   UNL     1       5.556  -0.113  -0.350  0.00  0.00    -0.273 N 
ATOM     13  H   UNL     1       4.772  -0.644  -0.558  0.00  0.00    +0.156 HD
BRANCH  10  16
ATOM     14  C   UNL     1       2.708   3.423  -1.280  0.00  0.00    +0.042 A 
ATOM     15  C   UNL     1       4.044   3.240  -0.890  0.00  0.00    +0.054 A 
ATOM     16  C   UNL     1       4.243   1.892  -0.791  0.00  0.00    +0.189 A 
ATOM     17  O   UNL     1       3.084   1.276  -1.104  0.00  0.00    -0.458 OA
ATOM     18  C   UNL     1       2.157   2.195  -1.400  0.00  0.00    +0.196 A 
ENDBRANCH  10  16
ENDBRANCH   1  12
BRANCH   2  19
ATOM     19  C   UNL     1       5.865  -3.062   0.132  0.00  0.00    -0.004 C 
BRANCH  19  20
ATOM     20  C   UNL     1       5.584  -3.331  -1.324  0.00  0.00    -0.053 A 
ATOM     21  C   UNL     1       4.550  -2.670  -1.961  0.00  0.00    +0.006 A 
ATOM     22  C   UNL     1       4.288  -2.913  -3.296  0.00  0.00    +0.050 A 
ATOM     23  C   UNL     1       5.063  -3.821  -4.000  0.00  0.00    +0.166 A 
ATOM     24  C   UNL     1       6.105  -4.487  -3.359  0.00  0.00    +0.166 A 
ATOM     25  C   UNL     1       6.364  -4.234  -2.022  0.00  0.00    +0.052 A 
ATOM     26  O   UNL     1       6.710  -5.318  -4.257  0.00  0.00    -0.453 OA
ATOM     27  C   UNL     1       5.774  -5.459  -5.342  0.00  0.00    +0.466 C 
ATOM     28  O   UNL     1       5.015  -4.235  -5.300  0.00  0.00    -0.453 OA
ENDBRANCH  19  20
BRANCH  19  29
ATOM     29  N   UNL     1       4.657  -2.523   0.772  0.00  0.00    +0.387 N 
ATOM     30  C   UNL     1       4.973  -2.119   2.147  0.00  0.00    -0.078 C 
ATOM     31  C   UNL     1       3.740  -1.483   2.792  0.00  0.00    -0.019 C 
ATOM     32  C   UNL     1       2.597  -2.502   2.808  0.00  0.00    -0.004 C 
ATOM     33  C   UNL     1       2.325  -2.973   1.376  0.00  0.00    -0.019 C 
ATOM     34  C   UNL     1       3.611  -3.553   0.784  0.00  0.00    -0.078 C 
ATOM     35  H   UNL     1       4.332  -1.721   0.254  0.00  0.00    -0.080 HD
ENDBRANCH  19  29
ENDBRANCH   2  19
TORSDOF 5
