REMARK  Name = ZINC00708491
REMARK  11 active torsions:
REMARK  status: ('A' for Active; 'I' for Inactive)
REMARK    1  A    between atoms: C_1  and  C_2
REMARK    2  A    between atoms: C_2  and  O_3
REMARK    3  A    between atoms: O_3  and  C_4
REMARK    4  A    between atoms: C_6  and  C_11
REMARK    5  A    between atoms: C_9  and  O_10
REMARK    6  A    between atoms: C_18  and  C_37
REMARK    7  A    between atoms: C_19  and  C_34
REMARK    8  A    between atoms: C_20  and  C_22
REMARK    9  A    between atoms: C_31  and  O_32
REMARK   10  A    between atoms: O_32  and  C_33
REMARK   11  A    between atoms: C_34  and  C_36
REMARK                            x       y       z     vdW  Elec       q    Type
REMARK                         _______ _______ _______ _____ _____    ______ ____
ROOT
ATOM      1  C   UNL     1       4.476   1.812   1.150  0.00  0.00    +0.028 C 
ATOM      2  C   UNL     1       5.711   2.238   0.779  0.00  0.00    +0.081 A 
ATOM      3  C   UNL     1       6.175   3.597   0.467  0.00  0.00    +0.268 A 
ATOM      4  O   UNL     1       5.427   4.555   0.517  0.00  0.00    -0.266 OA
ATOM      5  N   UNL     1       7.465   3.728   0.123  0.00  0.00    -0.275 N 
ATOM      6  C   UNL     1       8.254   2.606   0.086  0.00  0.00    +0.178 A 
ATOM      7  N   UNL     1       9.528   2.615  -0.234  0.00  0.00    -0.228 NA
ATOM      8  C   UNL     1      10.220   3.694  -0.562  0.00  0.00    +0.050 C 
ATOM      9  C   UNL     1       9.610   4.935  -0.586  0.00  0.00    +0.043 C 
ATOM     10  C   UNL     1       8.143   5.007  -0.230  0.00  0.00    +0.162 C 
ATOM     11  C   UNL     1      11.681   3.571  -0.910  0.00  0.00    +0.066 C 
ATOM     12  S   UNL     1       7.211   1.301   0.544  0.00  0.00    -0.046 S 
ENDROOT
BRANCH  10  13
ATOM     13  C   UNL     1       7.410   5.612  -1.400  0.00  0.00    +0.029 A 
ATOM     14  C   UNL     1       7.367   4.939  -2.631  0.00  0.00    -0.009 A 
ATOM     15  C   UNL     1       7.999   3.695  -2.804  0.00  0.00    +0.009 A 
ATOM     16  C   UNL     1       7.938   3.071  -4.012  0.00  0.00    +0.001 A 
ATOM     17  C   UNL     1       7.255   3.645  -5.083  0.00  0.00    +0.001 A 
ATOM     18  C   UNL     1       6.622   4.843  -4.949  0.00  0.00    +0.008 A 
ATOM     19  C   UNL     1       6.669   5.521  -3.719  0.00  0.00    -0.017 A 
ATOM     20  C   UNL     1       6.041   6.767  -3.550  0.00  0.00    +0.012 A 
ATOM     21  C   UNL     1       6.105   7.396  -2.346  0.00  0.00    +0.046 A 
ATOM     22  C   UNL     1       6.789   6.822  -1.270  0.00  0.00    +0.126 A 
BRANCH  22  23
ATOM     23  O   UNL     1       6.836   7.475  -0.079  0.00  0.00    -0.495 OA
ATOM     24  C   UNL     1       6.167   8.736  -0.004  0.00  0.00    +0.277 C 
ENDBRANCH  22  23
ENDBRANCH  10  13
BRANCH   1  27
ATOM     25  C   UNL     1       1.140   3.520   1.285  0.00  0.00    +0.162 A 
ATOM     26  C   UNL     1       2.123   2.597   0.987  0.00  0.00    +0.057 A 
ATOM     27  C   UNL     1       3.425   2.789   1.464  0.00  0.00    -0.020 A 
ATOM     28  C   UNL     1       3.724   3.916   2.240  0.00  0.00    +0.012 A 
ATOM     29  C   UNL     1       2.736   4.831   2.532  0.00  0.00    +0.050 A 
ATOM     30  C   UNL     1       1.446   4.642   2.054  0.00  0.00    +0.158 A 
BRANCH  30  31
ATOM     31  O   UNL     1       0.478   5.551   2.341  0.00  0.00    -0.503 OA
ATOM     32  H   UNL     1      -0.005   5.367   3.158  0.00  0.00    +0.292 HD
ENDBRANCH  30  31
BRANCH  25  33
ATOM     33  O   UNL     1      -0.127   3.337   0.824  0.00  0.00    -0.489 OA
BRANCH  33  35
ATOM     34  C   UNL     1      -1.838   2.135  -0.387  0.00  0.00    +0.048 C 
ATOM     35  C   UNL     1      -0.368   2.168   0.038  0.00  0.00    +0.226 C 
ENDBRANCH  33  35
ENDBRANCH  25  33
ENDBRANCH   1  27
BRANCH   9  36
ATOM     36  C   UNL     1      10.325   6.082  -0.928  0.00  0.00    +0.160 C 
ATOM     37  O   UNL     1      11.466   5.987  -1.340  0.00  0.00    -0.293 OA
ATOM     38  C   UNL     1       9.685   7.439  -0.789  0.00  0.00    +0.091 C 
ENDBRANCH   9  36
TORSDOF 7
