REMARK  Name = ZINC21324139
REMARK  9 active torsions:
REMARK  status: ('A' for Active; 'I' for Inactive)
REMARK    1  A    between atoms: C_1  and  C_2
REMARK    2  A    between atoms: C_2  and  C_24
REMARK    3  A    between atoms: N_3  and  N_4
REMARK    4  A    between atoms: C_8  and  S_11
REMARK    5  A    between atoms: N_9  and  N_10
REMARK    6  A    between atoms: S_11  and  C_12
REMARK    7  A    between atoms: C_12  and  C_13
REMARK    8  A    between atoms: N_15  and  C_16
REMARK    9  A    between atoms: C_25  and  C_26
REMARK                            x       y       z     vdW  Elec       q    Type
REMARK                         _______ _______ _______ _____ _____    ______ ____
ROOT
ATOM      1  N   UNL     1       1.185   7.706  -0.035  0.00  0.00    -0.204 N 
ATOM      2  C   UNL     1      -0.021   8.390  -0.010  0.00  0.00    +0.254 A 
ATOM      3  N   UNL     1      -1.217   7.857   0.003  0.00  0.00    -0.109 NA
ATOM      4  N   UNL     1      -2.111   8.780   0.026  0.00  0.00    -0.119 NA
ATOM      5  C   UNL     1      -1.539   9.959   0.029  0.00  0.00    +0.210 A 
ATOM      6  N   UNL     1      -0.185   9.751   0.013  0.00  0.00    -0.211 N 
ATOM      7  H   UNL     1       2.134   8.264  -0.043  0.00  0.00    +0.178 HD
ENDROOT
BRANCH   1  10
ATOM      8  C   UNL     1       3.629   6.426  -0.085  0.00  0.00    +0.067 C 
ATOM      9  C   UNL     1       2.330   5.663  -0.074  0.00  0.00    +0.056 C 
ATOM     10  N   UNL     1       1.196   6.305  -0.050  0.00  0.00    -0.185 NA
BRANCH   9  11
ATOM     11  C   UNL     1       2.341   4.246  -0.089  0.00  0.00    +0.025 C 
ATOM     12  C   UNL     1       1.178   3.562  -0.079  0.00  0.00    +0.010 C 
BRANCH  12  13
ATOM     13  C   UNL     1       1.190   2.090  -0.095  0.00  0.00    -0.025 A 
ATOM     14  C   UNL     1      -0.014   1.378  -0.085  0.00  0.00    +0.008 A 
ATOM     15  C   UNL     1       0.005  -0.001  -0.101  0.00  0.00    +0.001 A 
ATOM     16  C   UNL     1       1.211  -0.680  -0.126  0.00  0.00    +0.000 A 
ATOM     17  C   UNL     1       2.406   0.018  -0.136  0.00  0.00    +0.001 A 
ATOM     18  C   UNL     1       2.404   1.397  -0.121  0.00  0.00    +0.008 A 
ENDBRANCH  12  13
ENDBRANCH   9  11
ENDBRANCH   1  10
BRANCH   6  19
ATOM     19  N   UNL     1       0.796  10.702   0.016  0.00  0.00    -0.294 N 
ATOM     20  H   UNL     1       0.529  11.768   0.035  0.00  0.00    +0.163 HD
ATOM     21  H   UNL     1       1.854  10.400  -0.001  0.00  0.00    +0.163 HD
ENDBRANCH   6  19
BRANCH   5  22
ATOM     22  S   UNL     1      -2.358  11.519   0.058  0.00  0.00    -0.075 S 
BRANCH  22  23
ATOM     23  C   UNL     1      -4.082  10.969   0.079  0.00  0.00    +0.173 C 
BRANCH  23  24
ATOM     24  C   UNL     1      -4.992  12.169   0.105  0.00  0.00    +0.228 C 
ATOM     25  O   UNL     1      -4.522  13.287   0.109  0.00  0.00    -0.275 OA
ATOM     26  N   UNL     1      -6.329  12.001   0.124  0.00  0.00    -0.284 N 
ATOM     27  H   UNL     1      -6.758  10.991   0.045  0.00  0.00    +0.155 HD
BRANCH  26  28
ATOM     28  C   UNL     1      -7.173  13.112   0.243  0.00  0.00    +0.053 A 
ATOM     29  C   UNL     1      -6.821  14.319  -0.347  0.00  0.00    +0.025 A 
ATOM     30  C   UNL     1      -7.655  15.413  -0.229  0.00  0.00    +0.003 A 
ATOM     31  C   UNL     1      -8.841  15.309   0.476  0.00  0.00    +0.021 A 
ATOM     32  C   UNL     1      -9.195  14.108   1.066  0.00  0.00    +0.061 A 
ATOM     33  C   UNL     1      -8.367  13.007   0.946  0.00  0.00    +0.080 A 
ATOM     34 CL   UNL     1      -8.814  11.498   1.679  0.00  0.00    -0.080 Cl
ATOM     35 CL   UNL     1     -10.684  13.982   1.950  0.00  0.00    -0.082 Cl
ENDBRANCH  26  28
ENDBRANCH  23  24
ENDBRANCH  22  23
ENDBRANCH   5  22
TORSDOF 8
