REMARK  Name = ZINC20073482
REMARK  7 active torsions:
REMARK  status: ('A' for Active; 'I' for Inactive)
REMARK    1  A    between atoms: C_4  and  C_7
REMARK    2  A    between atoms: C_9  and  C_27
REMARK    3  A    between atoms: C_10  and  C_21
REMARK    4  A    between atoms: C_12  and  C_13
REMARK    5  A    between atoms: N_29  and  N_30
REMARK    6  A    between atoms: C_31  and  C_32
REMARK    7  A    between atoms: C_37  and  O_38
REMARK                            x       y       z     vdW  Elec       q    Type
REMARK                         _______ _______ _______ _____ _____    ______ ____
ROOT
ATOM      1  C   UNL     1       9.327   3.361  -0.594  0.00  0.00    +0.044 C 
ATOM      2  C   UNL     1       8.062   3.424   0.278  0.00  0.00    +0.093 C 
ATOM      3  C   UNL     1       7.400   4.202  -0.871  0.00  0.00    +0.044 C 
ATOM      4  C   UNL     1       8.818   4.636  -1.286  0.00  0.00    +0.091 C 
ENDROOT
BRANCH   4   5
ATOM      5  C   UNL     1       9.276   5.909  -0.621  0.00  0.00    +0.220 C 
ATOM      6  O   UNL     1       9.483   5.928   0.574  0.00  0.00    -0.275 OA
ATOM      7  N   UNL     1       9.457   7.025  -1.354  0.00  0.00    -0.297 N 
ATOM      8  C   UNL     1       9.218   7.025  -2.806  0.00  0.00    +0.136 C 
ATOM      9  C   UNL     1       8.300   8.211  -3.141  0.00  0.00    +0.179 C 
ATOM     10  O   UNL     1       8.858   9.406  -2.590  0.00  0.00    -0.377 OA
ATOM     11  C   UNL     1       8.958   9.403  -1.164  0.00  0.00    +0.179 C 
ATOM     12  C   UNL     1       9.904   8.279  -0.727  0.00  0.00    +0.136 C 
ENDBRANCH   4   5
BRANCH   1  16
ATOM     13  C   UNL     1      12.948   3.933   1.599  0.00  0.00    +0.000 A 
ATOM     14  C   UNL     1      11.821   3.452   2.239  0.00  0.00    +0.000 A 
ATOM     15  C   UNL     1      10.649   3.267   1.529  0.00  0.00    +0.004 A 
ATOM     16  C   UNL     1      10.604   3.563   0.180  0.00  0.00    -0.043 A 
ATOM     17  C   UNL     1      11.732   4.039  -0.461  0.00  0.00    +0.004 A 
ATOM     18  C   UNL     1      12.903   4.229   0.250  0.00  0.00    +0.000 A 
ENDBRANCH   1  16
BRANCH   3  19
ATOM     19  C   UNL     1       6.719   3.319  -1.885  0.00  0.00    -0.043 A 
ATOM     20  C   UNL     1       5.340   3.222  -1.901  0.00  0.00    +0.004 A 
ATOM     21  C   UNL     1       4.714   2.415  -2.833  0.00  0.00    +0.000 A 
ATOM     22  C   UNL     1       5.468   1.698  -3.743  0.00  0.00    +0.000 A 
ATOM     23  C   UNL     1       6.847   1.791  -3.724  0.00  0.00    +0.000 A 
ATOM     24  C   UNL     1       7.473   2.602  -2.794  0.00  0.00    +0.004 A 
ENDBRANCH   3  19
BRANCH   2  25
ATOM     25  C   UNL     1       7.437   2.077   0.533  0.00  0.00    +0.236 C 
ATOM     26  O   UNL     1       7.954   1.074   0.087  0.00  0.00    -0.274 OA
ATOM     27  N   UNL     1       6.304   1.986   1.258  0.00  0.00    -0.207 N 
ATOM     28  H   UNL     1       5.835   2.895   1.663  0.00  0.00    +0.177 HD
BRANCH  27  29
ATOM     29  N   UNL     1       5.723   0.733   1.495  0.00  0.00    -0.188 NA
ATOM     30  C   UNL     1       4.632   0.645   2.192  0.00  0.00    +0.142 C 
BRANCH  30  31
ATOM     31  C   UNL     1       4.021  -0.672   2.442  0.00  0.00    +0.036 A 
ATOM     32  C   UNL     1       2.846  -0.771   3.192  0.00  0.00    +0.013 A 
ATOM     33  C   UNL     1       2.279  -2.007   3.421  0.00  0.00    +0.001 A 
ATOM     34  C   UNL     1       2.866  -3.151   2.907  0.00  0.00    +0.004 A 
ATOM     35  C   UNL     1       4.031  -3.067   2.168  0.00  0.00    +0.046 A 
ATOM     36  C   UNL     1       4.614  -1.833   1.928  0.00  0.00    +0.125 A 
BRANCH  36  37
ATOM     37  O   UNL     1       5.756  -1.749   1.197  0.00  0.00    -0.506 OA
ATOM     38  H   UNL     1       6.220  -2.662   0.795  0.00  0.00    +0.292 HD
ENDBRANCH  36  37
ENDBRANCH  30  31
ENDBRANCH  27  29
ENDBRANCH   2  25
TORSDOF 7
