REMARK  Name = ZINC20321563
REMARK  5 active torsions:
REMARK  status: ('A' for Active; 'I' for Inactive)
REMARK    1  A    between atoms: C_4  and  C_7
REMARK    2  A    between atoms: C_8  and  C_13
REMARK    3  A    between atoms: C_13  and  N_14
REMARK    4  A    between atoms: C_27  and  C_29
REMARK    5  A    between atoms: C_33  and  O_35
REMARK                            x       y       z     vdW  Elec       q    Type
REMARK                         _______ _______ _______ _____ _____    ______ ____
ROOT
ATOM      1  N   UNL     1       2.798  -1.612   0.008  0.00  0.00    -0.286 NA
ATOM      2  C   UNL     1       3.804  -0.760  -0.641  0.00  0.00    +0.090 C 
ATOM      3  C   UNL     1       3.413   0.715  -0.466  0.00  0.00    +0.053 C 
ATOM      4  C   UNL     1       1.964   0.859  -0.854  0.00  0.00    -0.016 A 
ATOM      5  C   UNL     1       1.216   2.072  -1.157  0.00  0.00    +0.003 A 
ATOM      6  C   UNL     1       1.532   3.432  -1.198  0.00  0.00    +0.010 A 
ATOM      7  C   UNL     1       0.572   4.344  -1.531  0.00  0.00    +0.001 A 
ATOM      8  C   UNL     1      -0.719   3.932  -1.830  0.00  0.00    +0.002 A 
ATOM      9  C   UNL     1      -1.054   2.596  -1.800  0.00  0.00    +0.026 A 
ATOM     10  C   UNL     1      -0.093   1.649  -1.459  0.00  0.00    +0.047 A 
ATOM     11  N   UNL     1      -0.118   0.276  -1.341  0.00  0.00    -0.356 N 
ATOM     12  H   UNL     1      -1.050  -0.276  -1.534  0.00  0.00    +0.166 HD
ATOM     13  C   UNL     1       1.115  -0.182  -0.980  0.00  0.00    +0.042 A 
ATOM     14  C   UNL     1       1.530  -1.615  -0.739  0.00  0.00    +0.135 C 
ENDROOT
BRANCH  14  15
ATOM     15  C   UNL     1       0.469  -2.323   0.064  0.00  0.00    -0.021 A 
ATOM     16  C   UNL     1       0.409  -2.149   1.434  0.00  0.00    +0.006 A 
ATOM     17  C   UNL     1      -0.563  -2.797   2.173  0.00  0.00    +0.004 A 
ATOM     18  C   UNL     1      -1.477  -3.619   1.544  0.00  0.00    +0.045 A 
ATOM     19  C   UNL     1      -1.420  -3.795   0.169  0.00  0.00    +0.117 A 
ATOM     20  C   UNL     1      -0.446  -3.140  -0.571  0.00  0.00    +0.051 A 
BRANCH  19  21
ATOM     21  O   UNL     1      -2.319  -4.603  -0.452  0.00  0.00    -0.507 OA
ATOM     22  H   UNL     1      -2.272  -4.741  -1.542  0.00  0.00    +0.292 HD
ENDBRANCH  19  21
ENDBRANCH  14  15
BRANCH   1  23
ATOM     23  C   UNL     1       3.305  -2.979   0.190  0.00  0.00    +0.124 C 
BRANCH  23  25
ATOM     24  C   UNL     1       2.653  -4.937  -1.391  0.00  0.00    +0.097 A 
ATOM     25  C   UNL     1       3.282  -3.703  -1.132  0.00  0.00    +0.012 A 
ATOM     26  C   UNL     1       3.865  -3.288  -2.277  0.00  0.00    +0.110 A 
ATOM     27  N   UNL     1       3.616  -4.211  -3.231  0.00  0.00    -0.284 N 
ATOM     28  H   UNL     1       4.005  -4.068  -4.250  0.00  0.00    +0.188 HD
ATOM     29  N   UNL     1       2.852  -5.235  -2.657  0.00  0.00    -0.174 NA
BRANCH  24  33
ATOM     30  C   UNL     1       0.485  -7.279   1.420  0.00  0.00    +0.000 A 
ATOM     31  C   UNL     1       0.003  -7.126   0.133  0.00  0.00    +0.001 A 
ATOM     32  C   UNL     1       0.702  -6.367  -0.783  0.00  0.00    +0.010 A 
ATOM     33  C   UNL     1       1.896  -5.754  -0.409  0.00  0.00    +0.002 A 
ATOM     34  C   UNL     1       2.380  -5.915   0.887  0.00  0.00    +0.010 A 
ATOM     35  C   UNL     1       1.670  -6.672   1.797  0.00  0.00    +0.001 A 
ENDBRANCH  24  33
ENDBRANCH  23  25
ENDBRANCH   1  23
TORSDOF 5
