REMARK  Name = ZINC59421652
REMARK  11 active torsions:
REMARK  status: ('A' for Active; 'I' for Inactive)
REMARK    1  A    between atoms: C_1  and  C_2
REMARK    2  A    between atoms: C_2  and  O_3
REMARK    3  A    between atoms: O_3  and  C_4
REMARK    4  A    between atoms: C_4  and  C_6
REMARK    5  A    between atoms: C_7  and  C_35
REMARK    6  A    between atoms: C_8  and  C_32
REMARK    7  A    between atoms: C_10  and  N_11
REMARK    8  A    between atoms: C_12  and  C_14
REMARK    9  A    between atoms: C_20  and  C_27
REMARK   10  A    between atoms: C_22  and  C_23
REMARK   11  A    between atoms: C_32  and  C_34
REMARK                            x       y       z     vdW  Elec       q    Type
REMARK                         _______ _______ _______ _____ _____    ______ ____
ROOT
ATOM      1  N   UNL     1      -3.034  -2.522   2.502  0.00  0.00    -0.275 N 
ATOM      2  C   UNL     1      -3.805  -2.864   3.553  0.00  0.00    +0.254 C 
ATOM      3  O   UNL     1      -4.911  -3.338   3.369  0.00  0.00    -0.270 OA
ATOM      4  H   UNL     1      -2.152  -2.145   2.649  0.00  0.00    +0.156 HD
ENDROOT
BRANCH   2   5
ATOM      5  C   UNL     1      -3.312  -2.665   4.918  0.00  0.00    +0.101 A 
ATOM      6  C   UNL     1      -2.066  -2.126   5.289  0.00  0.00    +0.150 A 
ATOM      7  N   UNL     1      -1.987  -2.108   6.592  0.00  0.00    -0.172 NA
ATOM      8  N   UNL     1      -3.165  -2.628   7.141  0.00  0.00    -0.209 N 
ATOM      9  C   UNL     1      -3.997  -2.971   6.111  0.00  0.00    +0.169 A 
ATOM     10  N   UNL     1      -5.199  -3.491   6.347  0.00  0.00    -0.224 NA
ATOM     11  C   UNL     1      -5.623  -3.685   7.590  0.00  0.00    +0.110 A 
ATOM     12  C   UNL     1      -4.790  -3.337   8.678  0.00  0.00    +0.064 A 
ATOM     13  C   UNL     1      -3.566  -2.818   8.434  0.00  0.00    +0.149 A 
BRANCH  11  14
ATOM     14  C   UNL     1      -6.956  -4.260   7.834  0.00  0.00    +0.153 A 
ATOM     15  C   UNL     1      -7.851  -4.641   6.879  0.00  0.00    +0.051 A 
ATOM     16  C   UNL     1      -8.982  -5.131   7.556  0.00  0.00    +0.042 A 
ATOM     17  C   UNL     1      -8.728  -5.027   8.878  0.00  0.00    +0.196 A 
ATOM     18  O   UNL     1      -7.502  -4.507   9.041  0.00  0.00    -0.461 OA
ENDBRANCH  11  14
BRANCH  13  19
ATOM     19  C   UNL     1      -2.659  -2.436   9.575  0.00  0.00    +0.434 C 
ATOM     20  F   UNL     1      -3.290  -2.726  10.789  0.00  0.00    -0.164 F 
ATOM     21  F   UNL     1      -1.466  -3.162   9.485  0.00  0.00    -0.164 F 
ATOM     22  F   UNL     1      -2.378  -1.067   9.510  0.00  0.00    -0.164 F 
ENDBRANCH  13  19
ENDBRANCH   2   5
BRANCH   1  27
ATOM     23  C   UNL     1      -2.845  -2.417   0.016  0.00  0.00    +0.091 A 
ATOM     24  C   UNL     1      -3.513  -2.698  -1.165  0.00  0.00    -0.017 A 
ATOM     25  C   UNL     1      -4.778  -3.243  -1.032  0.00  0.00    +0.060 A 
ATOM     26  S   UNL     1      -4.979  -3.338   0.736  0.00  0.00    -0.069 S 
ATOM     27  C   UNL     1      -3.498  -2.709   1.218  0.00  0.00    +0.087 A 
ATOM     28  C   UNL     1      -2.898  -2.427  -2.514  0.00  0.00    +0.046 C 
BRANCH  25  29
ATOM     29  C   UNL     1      -5.683  -3.627  -2.043  0.00  0.00    +0.167 C 
ATOM     30  O   UNL     1      -5.381  -3.491  -3.212  0.00  0.00    -0.292 OA
ATOM     31  C   UNL     1      -7.024  -4.206  -1.674  0.00  0.00    +0.092 C 
ENDBRANCH  25  29
BRANCH  23  32
ATOM     32  C   UNL     1      -1.497  -1.838   0.006  0.00  0.00    +0.342 C 
ATOM     33  O   UNL     1      -0.523  -2.565  -0.007  0.00  0.00    -0.245 OA
BRANCH  32  34
ATOM     34  O   UNL     1      -1.339  -0.499   0.012  0.00  0.00    -0.461 OA
BRANCH  34  36
ATOM     35  C   UNL     1      -0.019   1.526   0.010  0.00  0.00    +0.048 C 
ATOM     36  C   UNL     1       0.002  -0.004   0.002  0.00  0.00    +0.229 C 
ENDBRANCH  34  36
ENDBRANCH  32  34
ENDBRANCH  23  32
ENDBRANCH   1  27
TORSDOF 8
