REMARK  Name = ZINC09415269
REMARK  8 active torsions:
REMARK  status: ('A' for Active; 'I' for Inactive)
REMARK    1  A    between atoms: C_1  and  N_45
REMARK    2  A    between atoms: C_2  and  C_3
REMARK    3  A    between atoms: C_2  and  N_45
REMARK    4  A    between atoms: C_8  and  O_9
REMARK    5  A    between atoms: O_9  and  C_10
REMARK    6  A    between atoms: C_12  and  C_13
REMARK    7  A    between atoms: C_12  and  N_45
REMARK    8  A    between atoms: N_15  and  C_16
REMARK                            x       y       z     vdW  Elec       q    Type
REMARK                         _______ _______ _______ _____ _____    ______ ____
ROOT
ATOM      1  C   UNL     1       4.896   4.502  -2.812  0.00  0.00    +0.201 C 
ATOM      2  O   UNL     1       4.211   4.120  -3.738  0.00  0.00    -0.278 OA
ATOM      3  N   UNL     1       6.202   4.769  -3.005  0.00  0.00    -0.287 N 
ATOM      4  H   UNL     1       6.732   5.146  -2.285  0.00  0.00    +0.155 HD
ENDROOT
BRANCH   3   5
ATOM      5  C   UNL     1       6.796   4.502  -4.245  0.00  0.00    +0.035 A 
ATOM      6  C   UNL     1       7.812   5.324  -4.720  0.00  0.00    +0.025 A 
ATOM      7  C   UNL     1       8.405   5.063  -5.938  0.00  0.00    +0.029 A 
ATOM      8  C   UNL     1       7.979   3.983  -6.698  0.00  0.00    +0.067 A 
ATOM      9  C   UNL     1       6.956   3.159  -6.227  0.00  0.00    +0.069 A 
ATOM     10  C   UNL     1       6.366   3.420  -5.000  0.00  0.00    +0.051 A 
ATOM     11  N   UNL     1       6.753   2.176  -7.193  0.00  0.00    -0.306 N 
ATOM     12  H   UNL     1       6.102   1.458  -7.145  0.00  0.00    +0.170 HD
ATOM     13  C   UNL     1       7.613   2.393  -8.206  0.00  0.00    +0.325 A 
ATOM     14  O   UNL     1       7.696   1.713  -9.212  0.00  0.00    -0.247 OA
ATOM     15  N   UNL     1       8.366   3.476  -7.938  0.00  0.00    -0.306 N 
ATOM     16  H   UNL     1       9.060   3.841  -8.509  0.00  0.00    +0.170 HD
ENDBRANCH   3   5
BRANCH   1  17
ATOM     17  C   UNL     1       4.284   4.676  -1.446  0.00  0.00    +0.019 C 
BRANCH  17  19
ATOM     18  C   UNL     1       2.113   5.269  -2.338  0.00  0.00    -0.095 C 
ATOM     19  N   UNL     1       2.857   4.297  -1.510  0.00  0.00    +0.386 N 
ATOM     20  H   UNL     1       2.778   3.367  -1.936  0.00  0.00    -0.081 HD
BRANCH  19  21
ATOM     21  C   UNL     1       2.285   4.252  -0.147  0.00  0.00    -0.039 C 
BRANCH  21  22
ATOM     22  C   UNL     1       0.903   3.654  -0.220  0.00  0.00    -0.021 A 
ATOM     23  C   UNL     1      -0.207   4.475  -0.186  0.00  0.00    +0.020 A 
ATOM     24  C   UNL     1      -1.476   3.927  -0.254  0.00  0.00    +0.018 A 
ATOM     25  C   UNL     1      -1.634   2.557  -0.361  0.00  0.00    +0.019 A 
ATOM     26  C   UNL     1      -0.526   1.732  -0.389  0.00  0.00    +0.047 A 
ATOM     27  C   UNL     1       0.747   2.280  -0.322  0.00  0.00    +0.121 A 
ATOM     28 BR   UNL     1      -2.994   5.053  -0.208  0.00  0.00    -0.050 Br
BRANCH  27  29
ATOM     29  O   UNL     1       1.838   1.471  -0.356  0.00  0.00    -0.495 OA
ATOM     30  C   UNL     1       1.601   0.066  -0.462  0.00  0.00    +0.277 C 
ENDBRANCH  27  29
ENDBRANCH  21  22
ENDBRANCH  19  21
ENDBRANCH  17  19
ENDBRANCH   1  17
TORSDOF 6
