REMARK  Name = ZINC10244170
REMARK  7 active torsions:
REMARK  status: ('A' for Active; 'I' for Inactive)
REMARK    1  A    between atoms: C_1  and  C_2
REMARK    2  A    between atoms: C_7  and  N_8
REMARK    3  A    between atoms: C_12  and  S_13
REMARK    4  A    between atoms: S_13  and  C_14
REMARK    5  A    between atoms: C_14  and  C_15
REMARK    6  A    between atoms: N_17  and  C_18
REMARK    7  A    between atoms: C_19  and  C_27
REMARK                            x       y       z     vdW  Elec       q    Type
REMARK                         _______ _______ _______ _____ _____    ______ ____
ROOT
ATOM      1  C   UNL     1       1.984   3.586   0.002  0.00  0.00    +0.228 C 
ATOM      2  O   UNL     1       1.037   4.344   0.015  0.00  0.00    -0.275 OA
ATOM      3  N   UNL     1       3.240   4.076  -0.007  0.00  0.00    -0.278 N 
ATOM      4  H   UNL     1       3.997   3.469  -0.018  0.00  0.00    +0.155 HD
ENDROOT
BRANCH   3   5
ATOM      5  C   UNL     1       3.449   5.448  -0.002  0.00  0.00    +0.090 A 
ATOM      6  C   UNL     1       4.654   6.135  -0.004  0.00  0.00    +0.084 A 
ATOM      7  C   UNL     1       4.599   7.587  -0.001  0.00  0.00    -0.018 A 
ATOM      8  C   UNL     1       3.356   8.116   0.015  0.00  0.00    -0.004 A 
ATOM      9  S   UNL     1       2.270   6.717   0.017  0.00  0.00    -0.077 S 
ATOM     10  C   UNL     1       2.992   9.568   0.027  0.00  0.00    +0.043 C 
ATOM     11  C   UNL     1       4.244  10.377   0.398  0.00  0.00    +0.005 C 
ATOM     12  C   UNL     1       5.418   9.886  -0.453  0.00  0.00    +0.005 C 
ATOM     13  C   UNL     1       5.832   8.482  -0.008  0.00  0.00    +0.037 C 
BRANCH   6  14
ATOM     14  C   UNL     1       5.905   5.440  -0.013  0.00  0.00    +0.102 C 
ATOM     15  N   UNL     1       6.898   4.888  -0.020  0.00  0.00    -0.191 NA
ENDBRANCH   6  14
ENDBRANCH   3   5
BRANCH   1  16
ATOM     16  C   UNL     1       1.756   2.096  -0.004  0.00  0.00    +0.173 C 
BRANCH  16  17
ATOM     17  S   UNL     1      -0.022   1.758   0.012  0.00  0.00    -0.076 S 
BRANCH  17  22
ATOM     18  N   UNL     1      -1.086  -0.833   0.008  0.00  0.00    -0.277 N 
ATOM     19  C   UNL     1      -0.581  -2.106  -0.004  0.00  0.00    +0.230 A 
ATOM     20  N   UNL     1       0.718  -2.007  -0.016  0.00  0.00    -0.137 NA
ATOM     21  N   UNL     1       1.068  -0.771  -0.018  0.00  0.00    -0.122 NA
ATOM     22  C   UNL     1       0.002  -0.004   0.002  0.00  0.00    +0.196 A 
BRANCH  18  29
ATOM     23  C   UNL     1      -2.120   0.561  -2.248  0.00  0.00    +0.046 C 
ATOM     24  C   UNL     1      -2.981   0.224  -1.058  0.00  0.00    -0.027 A 
ATOM     25  C   UNL     1      -4.313   0.592  -1.042  0.00  0.00    +0.005 A 
ATOM     26  C   UNL     1      -5.103   0.283   0.050  0.00  0.00    +0.000 A 
ATOM     27  C   UNL     1      -4.564  -0.395   1.128  0.00  0.00    +0.002 A 
ATOM     28  C   UNL     1      -3.235  -0.770   1.115  0.00  0.00    +0.026 A 
ATOM     29  C   UNL     1      -2.438  -0.457   0.022  0.00  0.00    +0.053 A 
ENDBRANCH  18  29
ENDBRANCH  17  22
ENDBRANCH  16  17
ENDBRANCH   1  16
TORSDOF 6
