REMARK  Name = ZINC25702774
REMARK  8 active torsions:
REMARK  status: ('A' for Active; 'I' for Inactive)
REMARK    1  A    between atoms: C_4  and  N_10
REMARK    2  A    between atoms: C_5  and  C_7
REMARK    3  A    between atoms: N_10  and  S_11
REMARK    4  A    between atoms: S_11  and  C_14
REMARK    5  A    between atoms: C_18  and  N_20
REMARK    6  A    between atoms: N_20  and  S_21
REMARK    7  A    between atoms: S_21  and  C_24
REMARK    8  A    between atoms: C_29  and  N_30
REMARK                            x       y       z     vdW  Elec       q    Type
REMARK                         _______ _______ _______ _____ _____    ______ ____
ROOT
ATOM      1  C   UNL     1       5.020   0.366   2.625  0.00  0.00    +0.110 A 
ATOM      2  C   UNL     1       4.298   1.364   3.255  0.00  0.00    +0.029 A 
ATOM      3  C   UNL     1       3.976   1.248   4.594  0.00  0.00    +0.004 A 
ATOM      4  C   UNL     1       4.373   0.135   5.308  0.00  0.00    +0.027 A 
ATOM      5  C   UNL     1       5.097  -0.870   4.679  0.00  0.00    +0.076 A 
ATOM      6  C   UNL     1       5.415  -0.752   3.332  0.00  0.00    +0.055 A 
ENDROOT
BRANCH   1   7
ATOM      7  S   UNL     1       5.429   0.519   0.918  0.00  0.00    +0.072 S 
ATOM      8  O   UNL     1       6.572  -0.296   0.700  0.00  0.00    -0.150 OA
ATOM      9  O   UNL     1       5.416   1.908   0.620  0.00  0.00    -0.150 OA
BRANCH   7  10
ATOM     10  N   UNL     1       4.191  -0.162   0.055  0.00  0.00    -0.215 N 
ATOM     11  H   UNL     1       4.362  -0.925  -0.519  0.00  0.00    +0.174 HD
BRANCH  10  15
ATOM     12  C   UNL     1       0.341   1.404   0.348  0.00  0.00    +0.001 A 
ATOM     13  C   UNL     1       1.444   2.243   0.396  0.00  0.00    +0.002 A 
ATOM     14  C   UNL     1       2.720   1.728   0.299  0.00  0.00    +0.025 A 
ATOM     15  C   UNL     1       2.909   0.359   0.153  0.00  0.00    +0.062 A 
ATOM     16  C   UNL     1       1.794  -0.495   0.104  0.00  0.00    +0.085 A 
ATOM     17  C   UNL     1       0.507   0.045   0.204  0.00  0.00    +0.017 A 
BRANCH  16  18
ATOM     18  C   UNL     1       1.978  -1.946  -0.050  0.00  0.00    +0.388 C 
ATOM     19  O   UNL     1       1.004  -2.685  -0.092  0.00  0.00    -0.241 OA
ATOM     20  O   UNL     1       3.106  -2.413  -0.137  0.00  0.00    -0.241 OA
ENDBRANCH  16  18
ENDBRANCH  10  15
ENDBRANCH   7  10
ENDBRANCH   1   7
BRANCH   5  21
ATOM     21  N   UNL     1       5.500  -1.997   5.398  0.00  0.00    -0.098 NA
BRANCH  21  22
ATOM     22  S   UNL     1       5.115  -2.138   7.002  0.00  0.00    +0.094 S 
ATOM     23  O   UNL     1       5.824  -1.111   7.682  0.00  0.00    -0.148 OA
ATOM     24  O   UNL     1       3.701  -2.260   7.071  0.00  0.00    -0.148 OA
BRANCH  22  25
ATOM     25  C   UNL     1       5.781  -3.668   7.566  0.00  0.00    +0.140 A 
ATOM     26  C   UNL     1       4.936  -4.662   8.026  0.00  0.00    +0.031 A 
ATOM     27  C   UNL     1       5.459  -5.863   8.468  0.00  0.00    +0.002 A 
ATOM     28  C   UNL     1       6.825  -6.070   8.450  0.00  0.00    +0.002 A 
ATOM     29  C   UNL     1       7.669  -5.077   7.990  0.00  0.00    +0.035 A 
ATOM     30  C   UNL     1       7.147  -3.878   7.543  0.00  0.00    +0.153 A 
BRANCH  30  31
ATOM     31  N   UNL     1       8.050  -2.816   7.045  0.00  0.00    +0.058 N 
ATOM     32  O   UNL     1       9.248  -2.949   7.138  0.00  0.00    -0.126 OA
ATOM     33  O   UNL     1       7.590  -1.816   6.546  0.00  0.00    -0.126 OA
ENDBRANCH  30  31
ENDBRANCH  22  25
ENDBRANCH  21  22
ENDBRANCH   5  21
TORSDOF 8
