REMARK  Name = ZINC03503559
REMARK  10 active torsions:
REMARK  status: ('A' for Active; 'I' for Inactive)
REMARK    1  A    between atoms: C_1  and  S_2
REMARK    2  A    between atoms: S_2  and  C_5
REMARK    3  A    between atoms: C_8  and  C_14
REMARK    4  A    between atoms: C_10  and  N_11
REMARK    5  A    between atoms: C_14  and  O_16
REMARK    6  A    between atoms: O_16  and  C_17
REMARK    7  A    between atoms: C_17  and  C_18
REMARK    8  A    between atoms: N_20  and  C_21
REMARK    9  A    between atoms: C_26  and  S_27
REMARK   10  A    between atoms: S_27  and  C_28
REMARK                            x       y       z     vdW  Elec       q    Type
REMARK                         _______ _______ _______ _____ _____    ______ ____
ROOT
ATOM      1  C   UNL     1       2.486   0.349  -0.283  0.00  0.00    +0.328 C 
ENDROOT
BRANCH   1   2
ATOM      2  C   UNL     1       3.745   1.176  -0.225  0.00  0.00    +0.255 C 
ATOM      3  O   UNL     1       3.708   2.357  -0.499  0.00  0.00    -0.272 OA
ATOM      4  N   UNL     1       4.912   0.604   0.132  0.00  0.00    -0.282 N 
ATOM      5  H   UNL     1       4.935  -0.332   0.388  0.00  0.00    +0.155 HD
BRANCH   4   6
ATOM      6  C   UNL     1       6.092   1.359   0.132  0.00  0.00    +0.047 A 
ATOM      7  C   UNL     1       6.035   2.738  -0.003  0.00  0.00    +0.024 A 
ATOM      8  C   UNL     1       7.200   3.482  -0.001  0.00  0.00    +0.002 A 
ATOM      9  C   UNL     1       8.425   2.855   0.135  0.00  0.00    +0.001 A 
ATOM     10  C   UNL     1       8.492   1.482   0.270  0.00  0.00    +0.017 A 
ATOM     11  C   UNL     1       7.327   0.727   0.275  0.00  0.00    +0.034 A 
BRANCH  11  12
ATOM     12  S   UNL     1       7.409  -1.024   0.455  0.00  0.00    -0.088 S 
BRANCH  12  13
ATOM     13  C   UNL     1       6.973  -1.300   2.139  0.00  0.00    +0.013 A 
ATOM     14  C   UNL     1       6.791  -0.222   2.998  0.00  0.00    +0.015 A 
ATOM     15  C   UNL     1       6.443  -0.442   4.316  0.00  0.00    +0.001 A 
ATOM     16  C   UNL     1       6.287  -1.733   4.785  0.00  0.00    +0.000 A 
ATOM     17  C   UNL     1       6.473  -2.809   3.936  0.00  0.00    +0.001 A 
ATOM     18  C   UNL     1       6.815  -2.596   2.615  0.00  0.00    +0.015 A 
ENDBRANCH  12  13
ENDBRANCH  11  12
ENDBRANCH   4   6
ENDBRANCH   1   2
BRANCH   1  19
ATOM     19  O   UNL     1       1.374   1.189  -0.689  0.00  0.00    -0.452 OA
BRANCH  19  20
ATOM     20  C   UNL     1       0.167   0.599  -0.790  0.00  0.00    +0.340 C 
ATOM     21  O   UNL     1       0.048  -0.585  -0.546  0.00  0.00    -0.245 OA
BRANCH  20  25
ATOM     22  C   UNL     1      -3.216   2.873  -1.981  0.00  0.00    +0.118 A 
ATOM     23  C   UNL     1      -1.979   3.484  -1.873  0.00  0.00    +0.030 A 
ATOM     24  C   UNL     1      -0.877   2.752  -1.481  0.00  0.00    +0.017 A 
ATOM     25  C   UNL     1      -1.010   1.390  -1.205  0.00  0.00    +0.061 A 
ATOM     26  C   UNL     1      -2.260   0.780  -1.316  0.00  0.00    +0.049 A 
ATOM     27  C   UNL     1      -3.355   1.525  -1.703  0.00  0.00    +0.152 A 
BRANCH  22  29
ATOM     28  C   UNL     1      -5.079   3.152  -4.100  0.00  0.00    +0.200 C 
ATOM     29  S   UNL     1      -4.619   3.817  -2.476  0.00  0.00    -0.004 S 
ATOM     30  O   UNL     1      -5.621   3.505  -1.518  0.00  0.00    -0.170 OA
ATOM     31  O   UNL     1      -4.134   5.145  -2.610  0.00  0.00    -0.170 OA
ENDBRANCH  22  29
BRANCH  27  32
ATOM     32  N   UNL     1      -4.682   0.880  -1.822  0.00  0.00    +0.058 N 
ATOM     33  O   UNL     1      -4.826  -0.283  -1.492  0.00  0.00    -0.126 OA
ATOM     34  O   UNL     1      -5.631   1.513  -2.250  0.00  0.00    -0.126 OA
ENDBRANCH  27  32
ENDBRANCH  20  25
ENDBRANCH  19  20
ENDBRANCH   1  19
TORSDOF 9
