REMARK  Name = ZINC63709774
REMARK  4 active torsions:
REMARK  status: ('A' for Active; 'I' for Inactive)
REMARK    1  A    between atoms: C_17  and  C_21
REMARK    2  A    between atoms: N_23  and  C_24
REMARK    3  A    between atoms: C_24  and  C_25
REMARK    4  A    between atoms: C_25  and  C_26
REMARK                            x       y       z     vdW  Elec       q    Type
REMARK                         _______ _______ _______ _____ _____    ______ ____
ROOT
ATOM      1  C   UNL     1      -0.043   1.335  -0.041  0.00  0.00    +0.001 A 
ATOM      2  C   UNL     1       1.140   2.073  -0.046  0.00  0.00    +0.001 A 
ATOM      3  C   UNL     1       2.352   1.456  -0.049  0.00  0.00    +0.008 A 
ATOM      4  C   UNL     1       2.419   0.051  -0.046  0.00  0.00    -0.016 A 
ATOM      5  C   UNL     1       3.655  -0.614  -0.033  0.00  0.00    +0.032 A 
ATOM      6  C   UNL     1       3.698  -1.980  -0.034  0.00  0.00    +0.042 A 
ATOM      7  C   UNL     1       2.506  -2.738  -0.066  0.00  0.00    +0.059 A 
ATOM      8  C   UNL     1       1.274  -2.101  -0.065  0.00  0.00    +0.023 A 
ATOM      9  C   UNL     1       1.216  -0.701  -0.051  0.00  0.00    -0.017 A 
ATOM     10  C   UNL     1      -0.019  -0.025  -0.043  0.00  0.00    +0.008 A 
ATOM     11  C   UNL     1       2.557  -4.212  -0.117  0.00  0.00    +0.254 C 
ATOM     12  O   UNL     1       1.524  -4.853  -0.135  0.00  0.00    -0.270 OA
ATOM     13  N   UNL     1       3.741  -4.849  -0.143  0.00  0.00    -0.251 N 
ATOM     14  C   UNL     1       3.808  -6.204  -0.362  0.00  0.00    +0.080 C 
ATOM     15  C   UNL     1       4.862  -6.696  -1.055  0.00  0.00    +0.016 C 
ATOM     16  C   UNL     1       5.874  -5.823  -1.500  0.00  0.00    +0.013 C 
ATOM     17  C   UNL     1       5.950  -4.553  -1.021  0.00  0.00    +0.053 C 
ATOM     18  C   UNL     1       4.981  -4.086   0.030  0.00  0.00    +0.202 C 
ATOM     19  N   UNL     1       4.935  -2.623  -0.002  0.00  0.00    -0.321 N 
ATOM     20  H   UNL     1       5.756  -2.107  -0.001  0.00  0.00    +0.148 HD
ENDROOT
BRANCH  17  21
ATOM     21  C   UNL     1       6.940  -3.672  -1.510  0.00  0.00    +0.243 C 
ATOM     22  O   UNL     1       7.916  -3.414  -0.829  0.00  0.00    -0.270 OA
ATOM     23  N   UNL     1       6.804  -3.117  -2.731  0.00  0.00    -0.311 N 
ATOM     24  H   UNL     1       5.992  -3.263  -3.242  0.00  0.00    +0.149 HD
BRANCH  23  25
ATOM     25  C   UNL     1       7.881  -2.293  -3.285  0.00  0.00    +0.109 C 
BRANCH  25  26
ATOM     26  C   UNL     1       7.475  -1.788  -4.671  0.00  0.00    +0.052 C 
BRANCH  26  27
ATOM     27  C   UNL     1       8.583  -0.941  -5.241  0.00  0.00    -0.040 C 
ATOM     28  C   UNL     1       9.567  -1.343  -6.078  0.00  0.00    -0.001 A 
ATOM     29  C   UNL     1       9.887  -2.641  -6.684  0.00  0.00    +0.010 A 
ATOM     30  C   UNL     1      10.962  -2.736  -7.499  0.00  0.00    +0.001 A 
ATOM     31  C   UNL     1      11.776  -1.630  -7.779  0.00  0.00    +0.002 A 
ATOM     32  C   UNL     1      11.545  -0.405  -7.260  0.00  0.00    +0.026 A 
ATOM     33  C   UNL     1      10.441  -0.190  -6.390  0.00  0.00    +0.043 A 
ATOM     34  N   UNL     1      10.015   0.884  -5.769  0.00  0.00    -0.380 N 
ATOM     35  C   UNL     1       8.817   0.534  -4.998  0.00  0.00    +0.144 C 
ATOM     36  H   UNL     1      10.421   1.763  -5.816  0.00  0.00    +0.160 HD
ENDBRANCH  26  27
ENDBRANCH  25  26
ENDBRANCH  23  25
ENDBRANCH  17  21
TORSDOF 4
