REMARK  Name = ZINC35973784
REMARK  13 active torsions:
REMARK  status: ('A' for Active; 'I' for Inactive)
REMARK    1  A    between atoms: C_1  and  C_2
REMARK    2  A    between atoms: C_2  and  C_3
REMARK    3  A    between atoms: C_3  and  C_5
REMARK    4  A    between atoms: C_3  and  O_6
REMARK    5  A    between atoms: O_6  and  C_7
REMARK    6  A    between atoms: C_7  and  C_9
REMARK    7  A    between atoms: C_10  and  C_39
REMARK    8  A    between atoms: C_14  and  C_16
REMARK    9  A    between atoms: C_19  and  O_25
REMARK   10  A    between atoms: C_20  and  O_22
REMARK   11  A    between atoms: O_22  and  C_23
REMARK   12  A    between atoms: C_23  and  C_24
REMARK   13  A    between atoms: C_29  and  C_32
REMARK                            x       y       z     vdW  Elec       q    Type
REMARK                         _______ _______ _______ _____ _____    ______ ____
ROOT
ATOM      1  C   UNL     1       4.024   0.687  -2.434  0.00  0.00    +0.065 C 
ATOM      2  C   UNL     1       4.686   0.647  -3.603  0.00  0.00    +0.016 C 
ATOM      3  N   UNL     1       6.037   0.851  -3.641  0.00  0.00    -0.321 N 
ATOM      4  C   UNL     1       6.797   0.705  -2.512  0.00  0.00    +0.016 C 
ATOM      5  C   UNL     1       6.224   0.743  -1.291  0.00  0.00    +0.024 C 
ATOM      6  C   UNL     1       4.738   0.967  -1.144  0.00  0.00    +0.092 C 
ATOM      7  C   UNL     1       6.991   0.579  -0.124  0.00  0.00    +0.162 C 
ATOM      8  O   UNL     1       6.444   0.626   0.961  0.00  0.00    -0.292 OA
ATOM      9  C   UNL     1       8.475   0.345  -0.193  0.00  0.00    +0.088 C 
ATOM     10  C   UNL     1       8.809  -0.355  -1.514  0.00  0.00    +0.032 C 
ATOM     11  C   UNL     1       8.285   0.506  -2.666  0.00  0.00    +0.059 C 
ATOM     12  C   UNL     1       3.933   0.376  -4.880  0.00  0.00    +0.061 C 
ATOM     13  H   UNL     1       6.462   1.100  -4.477  0.00  0.00    +0.152 HD
ENDROOT
BRANCH  10  14
ATOM     14  C   UNL     1      10.303  -0.517  -1.638  0.00  0.00    -0.043 A 
ATOM     15  C   UNL     1      11.122   0.596  -1.631  0.00  0.00    +0.005 A 
ATOM     16  C   UNL     1      12.491   0.448  -1.744  0.00  0.00    +0.020 A 
ATOM     17  C   UNL     1      13.042  -0.815  -1.865  0.00  0.00    +0.041 A 
ATOM     18  C   UNL     1      12.222  -1.929  -1.872  0.00  0.00    +0.020 A 
ATOM     19  C   UNL     1      10.853  -1.780  -1.753  0.00  0.00    +0.005 A 
ATOM     20 CL   UNL     1      14.762  -1.002  -2.007  0.00  0.00    -0.084 Cl
ENDBRANCH  10  14
BRANCH   6  21
ATOM     21  C   UNL     1       4.486   2.397  -0.739  0.00  0.00    -0.032 A 
ATOM     22  C   UNL     1       4.869   3.429  -1.576  0.00  0.00    +0.008 A 
ATOM     23  C   UNL     1       4.640   4.742  -1.209  0.00  0.00    +0.049 A 
ATOM     24  C   UNL     1       4.024   5.026  -0.001  0.00  0.00    +0.158 A 
ATOM     25  C   UNL     1       3.638   3.987   0.841  0.00  0.00    +0.162 A 
ATOM     26  C   UNL     1       3.866   2.674   0.465  0.00  0.00    +0.054 A 
BRANCH  24  27
ATOM     27  O   UNL     1       3.798   6.317   0.362  0.00  0.00    -0.503 OA
ATOM     28  H   UNL     1       2.944   6.663   0.071  0.00  0.00    +0.292 HD
ENDBRANCH  24  27
BRANCH  25  29
ATOM     29  O   UNL     1       3.034   4.261   2.028  0.00  0.00    -0.489 OA
BRANCH  29  30
ATOM     30  C   UNL     1       2.665   3.146   2.841  0.00  0.00    +0.226 C 
ATOM     31  C   UNL     1       2.003   3.647   4.126  0.00  0.00    +0.048 C 
ENDBRANCH  29  30
ENDBRANCH  25  29
ENDBRANCH   6  21
BRANCH   1  32
ATOM     32  C   UNL     1       2.627   0.467  -2.419  0.00  0.00    +0.338 C 
ATOM     33  O   UNL     1       2.182  -0.590  -2.011  0.00  0.00    -0.245 OA
BRANCH  32  34
ATOM     34  O   UNL     1       1.788   1.427  -2.859  0.00  0.00    -0.458 OA
BRANCH  34  35
ATOM     35  C   UNL     1       0.389   1.137  -2.816  0.00  0.00    +0.173 C 
ATOM     36  C   UNL     1      -0.182   1.579  -1.467  0.00  0.00    +0.052 C 
BRANCH  35  38
ATOM     37  C   UNL     1       0.160   1.357  -5.294  0.00  0.00    +0.007 C 
ATOM     38  C   UNL     1      -0.323   1.888  -3.943  0.00  0.00    +0.041 C 
ENDBRANCH  35  38
ENDBRANCH  34  35
ENDBRANCH  32  34
ENDBRANCH   1  32
TORSDOF 9
