REMARK  Name = ZINC12402236
REMARK  5 active torsions:
REMARK  status: ('A' for Active; 'I' for Inactive)
REMARK    1  A    between atoms: C_1  and  C_2
REMARK    2  A    between atoms: C_2  and  C_32
REMARK    3  A    between atoms: C_20  and  C_30
REMARK    4  A    between atoms: C_21  and  N_29
REMARK    5  A    between atoms: N_22  and  C_23
REMARK                            x       y       z     vdW  Elec       q    Type
REMARK                         _______ _______ _______ _____ _____    ______ ____
ROOT
ATOM      1  C   UNL     1       1.509   7.932   1.589  0.00  0.00    +0.011 C 
ATOM      2  C   UNL     1       0.838   7.190   2.747  0.00  0.00    -0.023 C 
ATOM      3  C   UNL     1      -0.371   6.410   2.226  0.00  0.00    +0.058 C 
ATOM      4  C   UNL     1       0.083   5.387   1.214  0.00  0.00    +0.026 C 
ATOM      5  C   UNL     1       1.301   4.812   1.305  0.00  0.00    +0.037 C 
ATOM      6  C   UNL     1       2.194   5.165   2.332  0.00  0.00    +0.163 C 
ATOM      7  O   UNL     1       3.281   4.625   2.389  0.00  0.00    -0.292 OA
ATOM      8  C   UNL     1       1.828   6.197   3.364  0.00  0.00    +0.086 C 
ATOM      9  C   UNL     1       1.741   3.776   0.304  0.00  0.00    +0.141 C 
ATOM     10  C   UNL     1       1.717   2.410   0.919  0.00  0.00    +0.001 A 
ATOM     11  C   UNL     1       0.681   1.663   1.436  0.00  0.00    +0.045 A 
ATOM     12  C   UNL     1       1.002   0.407   1.946  0.00  0.00    +0.124 A 
ATOM     13  C   UNL     1       2.301  -0.063   1.931  0.00  0.00    +0.040 A 
ATOM     14  C   UNL     1       3.346   0.685   1.413  0.00  0.00    +0.026 A 
ATOM     15  C   UNL     1       3.037   1.945   0.899  0.00  0.00    +0.038 A 
ATOM     16  N   UNL     1       3.871   2.892   0.329  0.00  0.00    -0.284 N 
ATOM     17  C   UNL     1       3.198   3.998  -0.049  0.00  0.00    +0.238 C 
ATOM     18  O   UNL     1       3.670   4.984  -0.573  0.00  0.00    -0.274 OA
ATOM     19  F   UNL     1       0.023  -0.367   2.464  0.00  0.00    -0.205 F 
ATOM     20  C   UNL     1       0.902   3.817  -0.938  0.00  0.00    +0.089 C 
ATOM     21  C   UNL     1      -0.307   4.440  -0.942  0.00  0.00    +0.108 C 
ATOM     22  N   UNL     1      -0.774   5.049   0.200  0.00  0.00    -0.259 N 
ATOM     23  C   UNL     1       0.384   8.195   3.807  0.00  0.00    +0.011 C 
ATOM     24  H   UNL     1       4.827   2.773   0.215  0.00  0.00    +0.155 HD
ENDROOT
BRANCH  22  25
ATOM     25  C   UNL     1      -2.141   5.326   0.327  0.00  0.00    +0.058 A 
ATOM     26  C   UNL     1      -2.668   6.519  -0.162  0.00  0.00    +0.027 A 
ATOM     27  C   UNL     1      -4.027   6.745  -0.018  0.00  0.00    +0.021 A 
ATOM     28  C   UNL     1      -4.807   5.793   0.612  0.00  0.00    +0.111 A 
ATOM     29  N   UNL     1      -4.276   4.676   1.069  0.00  0.00    -0.261 NA
ATOM     30  C   UNL     1      -2.989   4.419   0.947  0.00  0.00    +0.134 A 
ENDBRANCH  22  25
BRANCH  21  31
ATOM     31  N   UNL     1      -1.063   4.461  -2.090  0.00  0.00    -0.345 N 
ATOM     32  H   UNL     1      -0.779   3.955  -2.867  0.00  0.00    +0.144 HD
ATOM     33  H   UNL     1      -1.880   4.983  -2.123  0.00  0.00    +0.144 HD
ENDBRANCH  21  31
BRANCH  20  34
ATOM     34  C   UNL     1       1.379   3.193  -2.135  0.00  0.00    +0.100 C 
ATOM     35  N   UNL     1       1.758   2.698  -3.084  0.00  0.00    -0.191 NA
ENDBRANCH  20  34
TORSDOF 3
