REMARK  Name = ZINC12767978
REMARK  8 active torsions:
REMARK  status: ('A' for Active; 'I' for Inactive)
REMARK    1  A    between atoms: C_1  and  C_2
REMARK    2  A    between atoms: C_5  and  N_9
REMARK    3  A    between atoms: C_10  and  C_12
REMARK    4  A    between atoms: C_12  and  C_14
REMARK    5  A    between atoms: C_12  and  N_55
REMARK    6  A    between atoms: C_17  and  C_20
REMARK    7  A    between atoms: N_22  and  C_23
REMARK    8  A    between atoms: C_28  and  O_29
REMARK                            x       y       z     vdW  Elec       q    Type
REMARK                         _______ _______ _______ _____ _____    ______ ____
ROOT
ATOM      1  C   UNL     1      -4.953   1.298   0.024  0.00  0.00    -0.077 C 
ATOM      2  C   UNL     1      -3.599   2.009  -0.028  0.00  0.00    -0.006 C 
ATOM      3  C   UNL     1      -2.479   0.964  -0.026  0.00  0.00    +0.072 C 
ATOM      4  C   UNL     1      -2.668   0.021  -1.218  0.00  0.00    -0.006 C 
ATOM      5  C   UNL     1      -4.050  -0.631  -1.132  0.00  0.00    -0.077 C 
ATOM      6  N   UNL     1      -5.083   0.425  -1.163  0.00  0.00    +0.387 N 
ATOM      7  H   UNL     1      -4.955   0.993  -2.009  0.00  0.00    -0.081 HD
ENDROOT
BRANCH   3   8
ATOM      8  C   UNL     1      -1.145   1.656  -0.138  0.00  0.00    +0.220 C 
ATOM      9  O   UNL     1      -1.094   2.866  -0.210  0.00  0.00    -0.275 OA
ATOM     10  N   UNL     1      -0.009   0.931  -0.159  0.00  0.00    -0.282 N 
ATOM     11  H   UNL     1      -0.053  -0.038  -0.183  0.00  0.00    +0.155 HD
BRANCH  10  12
ATOM     12  C   UNL     1       1.234   1.576  -0.150  0.00  0.00    +0.075 A 
ATOM     13  C   UNL     1       1.352   2.853   0.380  0.00  0.00    +0.027 A 
ATOM     14  C   UNL     1       2.579   3.487   0.387  0.00  0.00    +0.002 A 
ATOM     15  C   UNL     1       3.693   2.853  -0.133  0.00  0.00    +0.004 A 
ATOM     16  C   UNL     1       3.583   1.580  -0.663  0.00  0.00    +0.047 A 
ATOM     17  C   UNL     1       2.357   0.935  -0.669  0.00  0.00    +0.138 A 
BRANCH  17  18
ATOM     18  O   UNL     1       2.249  -0.318  -1.185  0.00  0.00    -0.505 OA
ATOM     19  H   UNL     1       2.045  -0.339  -2.130  0.00  0.00    +0.292 HD
ENDBRANCH  17  18
ENDBRANCH  10  12
ENDBRANCH   3   8
BRANCH   6  20
ATOM     20  C   UNL     1      -6.428  -0.185  -1.195  0.00  0.00    +0.016 C 
ATOM     21  C   UNL     1      -6.634  -1.098   0.015  0.00  0.00    -0.004 C 
BRANCH  20  23
ATOM     22  N   UNL     1      -7.723  -1.631  -2.729  0.00  0.00    -0.286 N 
ATOM     23  C   UNL     1      -6.567  -0.991  -2.461  0.00  0.00    +0.203 C 
ATOM     24  O   UNL     1      -5.640  -1.062  -3.239  0.00  0.00    -0.277 OA
ATOM     25  H   UNL     1      -8.491  -1.509  -2.149  0.00  0.00    +0.155 HD
BRANCH  22  30
ATOM     26  C   UNL     1      -8.092  -5.044  -7.247  0.00  0.00    +0.044 C 
ATOM     27  C   UNL     1      -7.995  -4.137  -6.047  0.00  0.00    -0.049 A 
ATOM     28  C   UNL     1      -6.764  -3.892  -5.466  0.00  0.00    +0.005 A 
ATOM     29  C   UNL     1      -6.670  -3.062  -4.366  0.00  0.00    +0.024 A 
ATOM     30  C   UNL     1      -7.814  -2.473  -3.843  0.00  0.00    +0.047 A 
ATOM     31  C   UNL     1      -9.050  -2.726  -4.425  0.00  0.00    +0.039 A 
ATOM     32  C   UNL     1      -9.136  -3.554  -5.529  0.00  0.00    +0.020 A 
ATOM     33 BR   UNL     1     -10.612  -1.934  -3.712  0.00  0.00    -0.048 Br
ENDBRANCH  22  30
ENDBRANCH  20  23
ENDBRANCH   6  20
TORSDOF 6
