REMARK  Name = ZINC36642826
REMARK  13 active torsions:
REMARK  status: ('A' for Active; 'I' for Inactive)
REMARK    1  A    between atoms: C_1  and  C_2
REMARK    2  A    between atoms: C_2  and  N_3
REMARK    3  A    between atoms: N_3  and  C_4
REMARK    4  A    between atoms: N_3  and  C_6
REMARK    5  A    between atoms: C_4  and  C_5
REMARK    6  A    between atoms: C_6  and  C_7
REMARK    7  A    between atoms: C_7  and  N_8
REMARK    8  A    between atoms: C_12  and  O_20
REMARK    9  A    between atoms: C_15  and  O_18
REMARK   10  A    between atoms: O_18  and  C_19
REMARK   11  A    between atoms: O_20  and  C_21
REMARK   12  A    between atoms: C_22  and  C_24
REMARK   13  A    between atoms: C_26  and  C_36
REMARK                            x       y       z     vdW  Elec       q    Type
REMARK                         _______ _______ _______ _____ _____    ______ ____
ROOT
ATOM      1  N   UNL     1       0.523  -3.155   2.963  0.00  0.00    -0.249 N 
ATOM      2  C   UNL     1       1.524  -3.479   2.060  0.00  0.00    +0.168 A 
ATOM      3  N   UNL     1       2.493  -2.724   1.598  0.00  0.00    -0.221 NA
ATOM      4  C   UNL     1       3.408  -3.178   0.713  0.00  0.00    +0.125 A 
ATOM      5  C   UNL     1       4.496  -2.470   0.140  0.00  0.00    +0.147 A 
ATOM      6  C   UNL     1       5.340  -3.085  -0.753  0.00  0.00    +0.051 A 
ATOM      7  C   UNL     1       5.162  -4.410  -1.126  0.00  0.00    +0.050 A 
ATOM      8  C   UNL     1       4.108  -5.131  -0.585  0.00  0.00    +0.136 A 
ATOM      9  C   UNL     1       3.257  -4.522   0.312  0.00  0.00    +0.086 A 
ATOM     10  S   UNL     1       1.828  -5.035   1.234  0.00  0.00    -0.048 S 
ATOM     11  C   UNL     1      -0.287  -4.117   3.446  0.00  0.00    +0.266 C 
ATOM     12  O   UNL     1      -1.239  -3.819   4.135  0.00  0.00    -0.271 OA
ENDROOT
BRANCH  11  13
ATOM     13  C   UNL     1      -0.009  -5.564   3.130  0.00  0.00    +0.299 C 
ATOM     14  C   UNL     1       1.053  -6.110   4.093  0.00  0.00    +0.220 C 
ATOM     15  O   UNL     1       1.282  -7.487   3.775  0.00  0.00    -0.481 OA
ATOM     16  C   UNL     1       0.180  -8.262   3.585  0.00  0.00    +0.163 A 
ATOM     17  C   UNL     1       0.301  -9.643   3.635  0.00  0.00    +0.049 A 
ATOM     18  C   UNL     1      -0.808 -10.443   3.440  0.00  0.00    +0.004 A 
ATOM     19  C   UNL     1      -2.042  -9.870   3.194  0.00  0.00    +0.004 A 
ATOM     20  C   UNL     1      -2.171  -8.495   3.145  0.00  0.00    +0.049 A 
ATOM     21  C   UNL     1      -1.062  -7.686   3.342  0.00  0.00    +0.163 A 
ATOM     22  O   UNL     1      -1.205  -6.333   3.297  0.00  0.00    -0.472 OA
ATOM     23  C   UNL     1       2.353  -5.319   3.931  0.00  0.00    +0.056 C 
ENDBRANCH  11  13
BRANCH   8  24
ATOM     24  O   UNL     1       3.916  -6.431  -0.936  0.00  0.00    -0.494 OA
ATOM     25  C   UNL     1       4.839  -6.993  -1.871  0.00  0.00    +0.277 C 
ENDBRANCH   8  24
BRANCH   5  26
ATOM     26  O   UNL     1       4.706  -1.170   0.477  0.00  0.00    -0.493 OA
ATOM     27  C   UNL     1       5.818  -0.512  -0.134  0.00  0.00    +0.277 C 
ENDBRANCH   5  26
BRANCH   1  28
ATOM     28  C   UNL     1       0.347  -1.765   3.392  0.00  0.00    +0.097 C 
BRANCH  28  29
ATOM     29  C   UNL     1      -0.708  -1.090   2.514  0.00  0.00    -0.059 C 
BRANCH  29  30
ATOM     30  N   UNL     1      -0.980   0.260   3.024  0.00  0.00    +0.380 N 
ATOM     31  H   UNL     1      -1.234   0.206   3.999  0.00  0.00    -0.082 HD
BRANCH  30  33
ATOM     32  C   UNL     1      -0.019   2.457   3.522  0.00  0.00    -0.017 C 
ATOM     33  C   UNL     1       0.223   1.091   2.878  0.00  0.00    -0.082 C 
ENDBRANCH  30  33
BRANCH  30  34
ATOM     34  C   UNL     1      -2.084   0.859   2.263  0.00  0.00    -0.082 C 
ATOM     35  C   UNL     1      -3.379   0.099   2.559  0.00  0.00    -0.017 C 
ENDBRANCH  30  34
ENDBRANCH  29  30
ENDBRANCH  28  29
ENDBRANCH   1  28
TORSDOF 8
