REMARK  Name = ZINC24717412
REMARK  7 active torsions:
REMARK  status: ('A' for Active; 'I' for Inactive)
REMARK    1  A    between atoms: C_1  and  C_2
REMARK    2  A    between atoms: N_15  and  C_16
REMARK    3  A    between atoms: C_16  and  C_18
REMARK    4  A    between atoms: C_16  and  C_26
REMARK    5  A    between atoms: C_23  and  O_24
REMARK    6  A    between atoms: O_24  and  C_25
REMARK    7  A    between atoms: N_30  and  C_31
REMARK                            x       y       z     vdW  Elec       q    Type
REMARK                         _______ _______ _______ _____ _____    ______ ____
ROOT
ATOM      1  C   UNL     1      -7.697  -3.289  -3.399  0.00  0.00    +0.069 C 
ATOM      2  C   UNL     1      -6.262  -3.330  -2.940  0.00  0.00    +0.081 A 
ATOM      3  C   UNL     1      -5.614  -2.332  -2.221  0.00  0.00    +0.108 A 
ATOM      4  C   UNL     1      -4.310  -2.753  -1.996  0.00  0.00    +0.177 A 
ATOM      5  N   UNL     1      -3.287  -2.163  -1.351  0.00  0.00    -0.211 NA
ATOM      6  C   UNL     1      -2.106  -2.733  -1.248  0.00  0.00    +0.131 A 
ATOM      7  C   UNL     1      -1.902  -4.060  -1.847  0.00  0.00    +0.040 A 
ATOM      8  C   UNL     1      -0.675  -4.719  -1.769  0.00  0.00    +0.013 A 
ATOM      9  C   UNL     1      -0.533  -5.953  -2.342  0.00  0.00    +0.001 A 
ATOM     10  C   UNL     1      -1.597  -6.553  -3.001  0.00  0.00    +0.002 A 
ATOM     11  C   UNL     1      -2.818  -5.917  -3.089  0.00  0.00    +0.028 A 
ATOM     12  C   UNL     1      -2.982  -4.665  -2.514  0.00  0.00    +0.078 A 
ATOM     13  N   UNL     1      -4.187  -3.986  -2.576  0.00  0.00    -0.212 N 
ATOM     14  N   UNL     1      -5.421  -4.314  -3.153  0.00  0.00    -0.168 NA
ATOM     15  N   UNL     1      -1.076  -2.098  -0.583  0.00  0.00    -0.315 N 
ATOM     16 CL   UNL     1      -6.311  -0.831  -1.698  0.00  0.00    -0.078 Cl
ATOM     17  H   UNL     1      -0.093  -2.585  -0.498  0.00  0.00    +0.148 HD
ENDROOT
BRANCH  15  18
ATOM     18  C   UNL     1      -1.292  -0.776   0.010  0.00  0.00    +0.170 C 
BRANCH  18  19
ATOM     19  C   UNL     1      -1.843  -0.934   1.403  0.00  0.00    +0.112 A 
ATOM     20  N   UNL     1      -1.407  -1.773   2.303  0.00  0.00    -0.348 N 
ATOM     21  C   UNL     1      -2.131  -1.636   3.424  0.00  0.00    +0.102 A 
ATOM     22  C   UNL     1      -3.056  -0.681   3.208  0.00  0.00    +0.104 A 
ATOM     23  N   UNL     1      -2.874  -0.236   1.926  0.00  0.00    -0.337 N 
ATOM     24  C   UNL     1      -3.652   0.804   1.249  0.00  0.00    +0.150 C 
ATOM     25  H   UNL     1      -0.567  -2.443   2.068  0.00  0.00    +0.167 HD
ENDBRANCH  18  19
BRANCH  18  26
ATOM     26  C   UNL     1       0.017  -0.032   0.069  0.00  0.00    +0.022 A 
ATOM     27  C   UNL     1       1.205  -0.729   0.173  0.00  0.00    +0.009 A 
ATOM     28  C   UNL     1       2.406  -0.047   0.227  0.00  0.00    +0.001 A 
ATOM     29  C   UNL     1       2.422   1.335   0.176  0.00  0.00    +0.004 A 
ATOM     30  C   UNL     1       1.237   2.037   0.072  0.00  0.00    +0.046 A 
ATOM     31  C   UNL     1       0.030   1.355   0.018  0.00  0.00    +0.125 A 
BRANCH  31  32
ATOM     32  O   UNL     1      -1.137   2.043  -0.090  0.00  0.00    -0.495 OA
ATOM     33  C   UNL     1      -1.047   3.468  -0.137  0.00  0.00    +0.277 C 
ENDBRANCH  31  32
ENDBRANCH  18  26
ENDBRANCH  15  18
TORSDOF 4
