REMARK  Name = ZINC39545567
REMARK  6 active torsions:
REMARK  status: ('A' for Active; 'I' for Inactive)
REMARK    1  A    between atoms: C_4  and  O_7
REMARK    2  A    between atoms: O_7  and  S_8
REMARK    3  A    between atoms: S_8  and  C_11
REMARK    4  A    between atoms: C_13  and  C_25
REMARK    5  A    between atoms: N_27  and  C_28
REMARK    6  A    between atoms: C_33  and  O_34
REMARK                            x       y       z     vdW  Elec       q    Type
REMARK                         _______ _______ _______ _____ _____    ______ ____
ROOT
ATOM      1  C   UNL     1       2.808  -2.144   1.775  0.00  0.00    +0.142 C 
ATOM      2  C   UNL     1       1.330  -2.367   2.001  0.00  0.00    +0.092 C 
ATOM      3  C   UNL     1       1.246  -3.807   2.542  0.00  0.00    +0.152 C 
ATOM      4  N   UNL     1       2.643  -4.271   2.544  0.00  0.00    -0.368 NA
ATOM      5  C   UNL     1       3.466  -3.228   2.097  0.00  0.00    +0.100 C 
ATOM      6  N   UNL     1       4.862  -3.393   2.050  0.00  0.00    -0.302 N 
ATOM      7  C   UNL     1       5.400  -4.178   3.085  0.00  0.00    +0.037 A 
ATOM      8  C   UNL     1       6.775  -4.317   3.203  0.00  0.00    +0.023 A 
ATOM      9  C   UNL     1       7.303  -5.096   4.215  0.00  0.00    +0.002 A 
ATOM     10  C   UNL     1       6.457  -5.733   5.105  0.00  0.00    +0.000 A 
ATOM     11  C   UNL     1       5.088  -5.591   4.989  0.00  0.00    +0.007 A 
ATOM     12  C   UNL     1       4.549  -4.809   3.981  0.00  0.00    -0.010 A 
ATOM     13  C   UNL     1       3.048  -4.651   3.902  0.00  0.00    +0.124 C 
ATOM     14  H   UNL     1       5.412  -2.996   1.357  0.00  0.00    +0.153 HD
ATOM     15  H   UNL     1       2.739  -5.061   1.925  0.00  0.00    +0.129 HD
ENDROOT
BRANCH   3  16
ATOM     16  C   UNL     1       0.682  -3.814   3.939  0.00  0.00    +0.253 C 
ATOM     17  O   UNL     1       1.087  -3.019   4.761  0.00  0.00    -0.272 OA
ATOM     18  N   UNL     1      -0.273  -4.704   4.277  0.00  0.00    -0.177 N 
ATOM     19 CL   UNL     1      -0.844  -5.825   3.119  0.00  0.00    +0.009 Cl
BRANCH  18  20
ATOM     20  C   UNL     1      -0.797  -4.710   5.576  0.00  0.00    +0.094 A 
ATOM     21  C   UNL     1      -1.842  -3.860   5.909  0.00  0.00    +0.028 A 
ATOM     22  C   UNL     1      -2.358  -3.869   7.191  0.00  0.00    +0.002 A 
ATOM     23  C   UNL     1      -1.835  -4.722   8.144  0.00  0.00    +0.004 A 
ATOM     24  C   UNL     1      -0.794  -5.572   7.820  0.00  0.00    +0.047 A 
ATOM     25  C   UNL     1      -0.275  -5.574   6.536  0.00  0.00    +0.139 A 
BRANCH  25  26
ATOM     26  O   UNL     1       0.746  -6.413   6.214  0.00  0.00    -0.505 OA
ATOM     27  H   UNL     1       1.625  -6.037   6.360  0.00  0.00    +0.292 HD
ENDBRANCH  25  26
ENDBRANCH  18  20
ENDBRANCH   3  16
BRANCH   1  28
ATOM     28  S   UNL     1       3.532  -0.658   1.165  0.00  0.00    +0.150 S 
ATOM     29  O   UNL     1       4.939  -0.808   1.297  0.00  0.00    -0.132 OA
ATOM     30  O   UNL     1       2.821   0.416   1.766  0.00  0.00    -0.132 OA
BRANCH  28  31
ATOM     31  O   UNL     1       3.239  -0.594  -0.327  0.00  0.00    -0.342 OA
BRANCH  31  35
ATOM     32  C   UNL     1       5.538  -3.156  -2.601  0.00  0.00    +0.000 A 
ATOM     33  C   UNL     1       4.331  -3.587  -2.083  0.00  0.00    +0.004 A 
ATOM     34  C   UNL     1       3.559  -2.731  -1.321  0.00  0.00    +0.048 A 
ATOM     35  C   UNL     1       3.997  -1.438  -1.075  0.00  0.00    +0.157 A 
ATOM     36  C   UNL     1       5.208  -1.007  -1.596  0.00  0.00    +0.048 A 
ATOM     37  C   UNL     1       5.976  -1.867  -2.358  0.00  0.00    +0.004 A 
ENDBRANCH  31  35
ENDBRANCH  28  31
ENDBRANCH   1  28
TORSDOF 6
