REMARK  Name = ZINC32707965
REMARK  12 active torsions:
REMARK  status: ('A' for Active; 'I' for Inactive)
REMARK    1  A    between atoms: C_1  and  C_2
REMARK    2  A    between atoms: C_2  and  N_3
REMARK    3  A    between atoms: C_7  and  C_30
REMARK    4  A    between atoms: C_12  and  S_13
REMARK    5  A    between atoms: S_13  and  C_14
REMARK    6  A    between atoms: C_14  and  C_15
REMARK    7  A    between atoms: N_17  and  C_18
REMARK    8  A    between atoms: C_18  and  C_19
REMARK    9  A    between atoms: C_19  and  C_21
REMARK   10  A    between atoms: C_19  and  N_27
REMARK   11  A    between atoms: N_27  and  C_28
REMARK   12  A    between atoms: N_27  and  C_29
REMARK                            x       y       z     vdW  Elec       q    Type
REMARK                         _______ _______ _______ _____ _____    ______ ____
ROOT
ATOM      1  S   UNL     1      -1.303   3.206   1.422  0.00  0.00    -0.078 S 
ENDROOT
BRANCH   1  11
ATOM      2  N   UNL     1       0.709   4.926   2.001  0.00  0.00    -0.288 N 
ATOM      3  C   UNL     1       1.256   6.122   2.283  0.00  0.00    +0.264 A 
ATOM      4  O   UNL     1       2.456   6.224   2.469  0.00  0.00    -0.267 OA
ATOM      5  C   UNL     1       0.412   7.272   2.363  0.00  0.00    +0.080 A 
ATOM      6  C   UNL     1       0.768   8.659   2.652  0.00  0.00    +0.010 A 
ATOM      7  C   UNL     1      -0.214   9.592   2.675  0.00  0.00    +0.057 A 
ATOM      8  S   UNL     1      -1.685   8.655   2.307  0.00  0.00    -0.076 S 
ATOM      9  C   UNL     1      -0.956   7.046   2.132  0.00  0.00    +0.117 A 
ATOM     10  N   UNL     1      -1.433   5.838   1.857  0.00  0.00    -0.216 NA
ATOM     11  C   UNL     1      -0.633   4.793   1.790  0.00  0.00    +0.173 A 
BRANCH   6  12
ATOM     12  C   UNL     1       2.173   9.037   2.914  0.00  0.00    +0.021 A 
ATOM     13  C   UNL     1       2.915  10.042   2.353  0.00  0.00    +0.016 A 
ATOM     14  C   UNL     1       4.221  10.209   2.763  0.00  0.00    +0.008 A 
ATOM     15  C   UNL     1       4.733   9.369   3.697  0.00  0.00    +0.046 A 
ATOM     16  S   UNL     1       3.346   8.297   4.038  0.00  0.00    -0.097 S 
ENDBRANCH   6  12
BRANCH   2  18
ATOM     17  C   UNL     1       2.068   3.574   0.481  0.00  0.00    +0.027 C 
ATOM     18  C   UNL     1       1.570   3.743   1.918  0.00  0.00    +0.124 C 
ENDBRANCH   2  18
ENDBRANCH   1  11
BRANCH   1  19
ATOM     19  C   UNL     1      -3.053   3.635   1.251  0.00  0.00    +0.173 C 
BRANCH  19  20
ATOM     20  C   UNL     1      -3.845   2.395   0.927  0.00  0.00    +0.223 C 
ATOM     21  O   UNL     1      -3.282   1.326   0.821  0.00  0.00    -0.275 OA
ATOM     22  N   UNL     1      -5.179   2.474   0.753  0.00  0.00    -0.316 N 
ATOM     23  H   UNL     1      -5.690   3.443   0.849  0.00  0.00    +0.149 HD
BRANCH  22  24
ATOM     24  C   UNL     1      -5.950   1.268   0.438  0.00  0.00    +0.093 C 
BRANCH  24  25
ATOM     25  C   UNL     1      -7.441   1.609   0.410  0.00  0.00    -0.021 C 
BRANCH  25  26
ATOM     26  C   UNL     1      -8.226   0.393  -0.009  0.00  0.00    -0.059 A 
ATOM     27  C   UNL     1      -7.832  -0.338  -1.115  0.00  0.00    +0.002 A 
ATOM     28  C   UNL     1      -8.549  -1.456  -1.497  0.00  0.00    +0.000 A 
ATOM     29  C   UNL     1      -9.667  -1.838  -0.779  0.00  0.00    +0.000 A 
ATOM     30  C   UNL     1     -10.064  -1.105   0.324  0.00  0.00    +0.000 A 
ATOM     31  C   UNL     1      -9.344   0.010   0.709  0.00  0.00    +0.002 A 
ENDBRANCH  25  26
BRANCH  25  32
ATOM     32  N   UNL     1      -7.677   2.698  -0.547  0.00  0.00    +0.382 N 
ATOM     33  C   UNL     1      -7.431   2.250  -1.925  0.00  0.00    -0.096 C 
ATOM     34  C   UNL     1      -9.035   3.239  -0.404  0.00  0.00    -0.096 C 
ATOM     35  H   UNL     1      -6.965   3.506  -0.322  0.00  0.00    -0.082 HD
ENDBRANCH  25  32
ENDBRANCH  24  25
ENDBRANCH  22  24
ENDBRANCH  19  20
ENDBRANCH   1  19
TORSDOF 9
