REMARK  Name = ZINC13026147
REMARK  10 active torsions:
REMARK  status: ('A' for Active; 'I' for Inactive)
REMARK    1  A    between atoms: C_1  and  C_2
REMARK    2  A    between atoms: C_2  and  C_15
REMARK    3  A    between atoms: N_3  and  N_4
REMARK    4  A    between atoms: C_5  and  C_7
REMARK    5  A    between atoms: C_7  and  N_8
REMARK    6  A    between atoms: C_18  and  S_21
REMARK    7  A    between atoms: S_21  and  N_24
REMARK    8  A    between atoms: N_24  and  C_25
REMARK    9  A    between atoms: C_25  and  C_26
REMARK   10  A    between atoms: C_29  and  C_32
REMARK                            x       y       z     vdW  Elec       q    Type
REMARK                         _______ _______ _______ _____ _____    ______ ____
ROOT
ATOM      1  C   UNL     1       4.768   1.159  -0.037  0.00  0.00    -0.002 A 
ATOM      2  C   UNL     1       5.970   1.870  -0.051  0.00  0.00    +0.011 A 
ATOM      3  C   UNL     1       7.170   1.190  -0.061  0.00  0.00    +0.029 A 
ATOM      4  C   UNL     1       7.185  -0.193  -0.068  0.00  0.00    +0.105 A 
ATOM      5  C   UNL     1       5.998  -0.905  -0.061  0.00  0.00    +0.029 A 
ATOM      6  C   UNL     1       4.791  -0.238  -0.045  0.00  0.00    +0.011 A 
ENDROOT
BRANCH   1   8
ATOM      7  C   UNL     1       3.461   3.385  -0.013  0.00  0.00    +0.068 C 
ATOM      8  C   UNL     1       3.481   1.879  -0.021  0.00  0.00    +0.063 C 
ATOM      9  N   UNL     1       2.366   1.215  -0.014  0.00  0.00    -0.185 NA
BRANCH   9  10
ATOM     10  N   UNL     1       1.143   1.899   0.001  0.00  0.00    -0.205 N 
ATOM     11  C   UNL     1      -0.014   1.209   0.009  0.00  0.00    +0.252 C 
ATOM     12  O   UNL     1       0.002  -0.004   0.002  0.00  0.00    -0.272 OA
ATOM     13  H   UNL     1       1.130   2.869   0.007  0.00  0.00    +0.177 HD
BRANCH  11  14
ATOM     14  C   UNL     1      -1.330   1.944   0.019  0.00  0.00    +0.222 C 
BRANCH  14  15
ATOM     15  N   UNL     1      -2.430   0.978   0.019  0.00  0.00    -0.306 N 
ATOM     16  C   UNL     1      -2.943   0.545  -1.161  0.00  0.00    +0.089 A 
ATOM     17  C   UNL     1      -3.957  -0.351  -1.187  0.00  0.00    +0.018 A 
ATOM     18  C   UNL     1      -4.494  -0.835   0.015  0.00  0.00    +0.007 A 
ATOM     19  C   UNL     1      -3.980  -0.396   1.199  0.00  0.00    +0.070 A 
ATOM     20  C   UNL     1      -2.925   0.532   1.189  0.00  0.00    +0.252 A 
ATOM     21  O   UNL     1      -2.456   0.934   2.242  0.00  0.00    -0.268 OA
ENDBRANCH  14  15
ENDBRANCH  11  14
ENDBRANCH   9  10
ENDBRANCH   1   8
BRANCH   4  22
ATOM     22  S   UNL     1       8.723  -1.053  -0.087  0.00  0.00    +0.059 S 
ATOM     23  O   UNL     1       9.690  -0.168   0.459  0.00  0.00    -0.153 OA
ATOM     24  O   UNL     1       8.474  -2.341   0.459  0.00  0.00    -0.153 OA
BRANCH  22  25
ATOM     25  N   UNL     1       9.135  -1.284  -1.675  0.00  0.00    -0.186 NA
ATOM     26  H   UNL     1       9.181  -2.182  -2.038  0.00  0.00    +0.148 HD
BRANCH  25  27
ATOM     27  C   UNL     1       9.430  -0.132  -2.530  0.00  0.00    +0.141 C 
BRANCH  27  28
ATOM     28  C   UNL     1      10.121  -0.601  -3.784  0.00  0.00    -0.032 A 
ATOM     29  C   UNL     1      11.501  -0.682  -3.821  0.00  0.00    +0.006 A 
ATOM     30  C   UNL     1      12.140  -1.116  -4.964  0.00  0.00    +0.015 A 
ATOM     31  C   UNL     1      11.390  -1.462  -6.090  0.00  0.00    +0.063 A 
ATOM     32  C   UNL     1       9.997  -1.371  -6.048  0.00  0.00    +0.015 A 
ATOM     33  C   UNL     1       9.371  -0.942  -4.896  0.00  0.00    +0.006 A 
BRANCH  31  34
ATOM     34  C   UNL     1      12.067  -1.921  -7.320  0.00  0.00    +0.387 C 
ATOM     35  O   UNL     1      11.412  -2.222  -8.298  0.00  0.00    -0.241 OA
ATOM     36  O   UNL     1      13.411  -2.007  -7.357  0.00  0.00    -0.241 OA
ENDBRANCH  31  34
ENDBRANCH  27  28
ENDBRANCH  25  27
ENDBRANCH  22  25
ENDBRANCH   4  22
TORSDOF 9
