REMARK  Name = ZINC13422014
REMARK  7 active torsions:
REMARK  status: ('A' for Active; 'I' for Inactive)
REMARK    1  A    between atoms: C_3  and  O_11
REMARK    2  A    between atoms: C_4  and  C_9
REMARK    3  A    between atoms: C_6  and  C_7
REMARK    4  A    between atoms: O_11  and  C_12
REMARK    5  A    between atoms: C_12  and  C_13
REMARK    6  A    between atoms: N_15  and  C_16
REMARK    7  A    between atoms: C_17  and  C_21
REMARK                            x       y       z     vdW  Elec       q    Type
REMARK                         _______ _______ _______ _____ _____    ______ ____
ROOT
ATOM      1  C   UNL     1       2.305  -0.307  -0.022  0.00  0.00    +0.324 C 
ENDROOT
BRANCH   1   2
ATOM      2  C   UNL     1       3.704  -0.867  -0.038  0.00  0.00    +0.255 C 
ATOM      3  O   UNL     1       4.657  -0.118  -0.043  0.00  0.00    -0.272 OA
ATOM      4  N   UNL     1       3.896  -2.201  -0.047  0.00  0.00    -0.277 N 
ATOM      5  H   UNL     1       3.133  -2.801  -0.043  0.00  0.00    +0.155 HD
BRANCH   4   6
ATOM      6  C   UNL     1       5.183  -2.717  -0.062  0.00  0.00    +0.084 A 
ATOM      7  C   UNL     1       5.580  -4.049  -0.067  0.00  0.00    +0.065 A 
ATOM      8  C   UNL     1       7.000  -4.303  -0.087  0.00  0.00    +0.022 A 
ATOM      9  C   UNL     1       7.816  -3.233  -0.089  0.00  0.00    +0.048 A 
ATOM     10  S   UNL     1       6.686  -1.857  -0.071  0.00  0.00    -0.081 S 
BRANCH   7  11
ATOM     11  C   UNL     1       4.603  -5.142  -0.057  0.00  0.00    +0.244 C 
ATOM     12  O   UNL     1       3.412  -4.894  -0.043  0.00  0.00    -0.270 OA
ATOM     13  N   UNL     1       5.024  -6.422  -0.062  0.00  0.00    -0.325 N 
ATOM     14  H   UNL     1       5.974  -6.620  -0.073  0.00  0.00    +0.145 HD
ATOM     15  H   UNL     1       4.378  -7.146  -0.055  0.00  0.00    +0.145 HD
ENDBRANCH   7  11
ENDBRANCH   4   6
ENDBRANCH   1   2
BRANCH   1  16
ATOM     16  O   UNL     1       2.363   1.120  -0.015  0.00  0.00    -0.482 OA
BRANCH  16  19
ATOM     17  C   UNL     1      -1.215   1.745   0.017  0.00  0.00    +0.019 A 
ATOM     18  C   UNL     1      -0.013   1.076   0.008  0.00  0.00    +0.047 A 
ATOM     19  C   UNL     1       1.183   1.784   0.000  0.00  0.00    +0.135 A 
ATOM     20  C   UNL     1       1.166   3.189   0.008  0.00  0.00    +0.105 A 
ATOM     21  C   UNL     1      -0.051   3.866   0.022  0.00  0.00    +0.034 A 
ATOM     22  C   UNL     1      -1.243   3.145   0.030  0.00  0.00    +0.064 A 
BRANCH  22  23
ATOM     23  C   UNL     1      -2.535   3.856   0.046  0.00  0.00    +0.387 C 
ATOM     24  O   UNL     1      -2.560   5.071   0.053  0.00  0.00    -0.241 OA
ATOM     25  O   UNL     1      -3.688   3.159   0.053  0.00  0.00    -0.241 OA
ENDBRANCH  22  23
BRANCH  20  26
ATOM     26  C   UNL     1       2.433   3.943   0.000  0.00  0.00    +0.390 C 
ATOM     27  O   UNL     1       3.493   3.350  -0.013  0.00  0.00    -0.240 OA
ATOM     28  O   UNL     1       2.415   5.290   0.007  0.00  0.00    -0.240 OA
ENDBRANCH  20  26
ENDBRANCH  16  19
ENDBRANCH   1  16
TORSDOF 7
