REMARK  Name = ZINC65227878
REMARK  5 active torsions:
REMARK  status: ('A' for Active; 'I' for Inactive)
REMARK    1  A    between atoms: C_4  and  C_7
REMARK    2  A    between atoms: C_7  and  N_8
REMARK    3  A    between atoms: C_9  and  C_11
REMARK    4  A    between atoms: C_19  and  C_24
REMARK    5  A    between atoms: C_26  and  C_29
REMARK                            x       y       z     vdW  Elec       q    Type
REMARK                         _______ _______ _______ _____ _____    ______ ____
ROOT
ATOM      1  C   UNL     1       5.750  -1.875   3.004  0.00  0.00    +0.092 C 
ATOM      2  C   UNL     1       4.707  -2.712   3.748  0.00  0.00    +0.016 C 
ATOM      3  C   UNL     1       5.159  -2.926   5.194  0.00  0.00    +0.020 C 
ATOM      4  C   UNL     1       6.487  -3.689   5.203  0.00  0.00    +0.106 C 
ATOM      5  N   UNL     1       7.455  -2.964   4.369  0.00  0.00    -0.315 N 
ATOM      6  C   UNL     1       7.086  -2.626   2.987  0.00  0.00    +0.119 C 
ATOM      7  C   UNL     1       8.695  -2.603   4.876  0.00  0.00    +0.110 A 
ATOM      8  C   UNL     1       9.761  -3.513   4.823  0.00  0.00    +0.060 A 
ATOM      9  C   UNL     1      10.999  -3.130   5.339  0.00  0.00    +0.016 A 
ATOM     10  C   UNL     1      11.122  -1.862   5.884  0.00  0.00    +0.018 A 
ATOM     11  C   UNL     1      10.026  -1.020   5.901  0.00  0.00    +0.084 A 
ATOM     12  N   UNL     1       8.865  -1.401   5.403  0.00  0.00    -0.349 N 
ATOM     13  H   UNL     1       8.116  -0.785   5.426  0.00  0.00    +0.167 HD
ENDROOT
BRANCH   8  14
ATOM     14  C   UNL     1       9.575  -4.858   4.228  0.00  0.00    +0.205 A 
ATOM     15  N   UNL     1      10.488  -5.847   4.223  0.00  0.00    -0.191 NA
ATOM     16  C   UNL     1      10.005  -6.896   3.621  0.00  0.00    +0.231 A 
ATOM     17  O   UNL     1       8.759  -6.618   3.216  0.00  0.00    -0.337 OA
ATOM     18  N   UNL     1       8.492  -5.285   3.625  0.00  0.00    -0.056 NA
BRANCH  16  19
ATOM     19  C   UNL     1      10.727  -8.203   3.415  0.00  0.00    +0.078 C 
ATOM     20  C   UNL     1      10.433  -8.861   2.057  0.00  0.00    +0.013 C 
ATOM     21  C   UNL     1      10.399 -10.205   2.804  0.00  0.00    +0.001 C 
ATOM     22  C   UNL     1      10.020  -9.406   4.063  0.00  0.00    +0.013 C 
ENDBRANCH  16  19
ENDBRANCH   8  14
BRANCH   1  24
ATOM     23  N   UNL     1       4.130  -0.992   1.357  0.00  0.00    -0.311 N 
ATOM     24  C   UNL     1       5.289  -1.639   1.589  0.00  0.00    +0.218 C 
ATOM     25  O   UNL     1       5.962  -2.030   0.658  0.00  0.00    -0.275 OA
ATOM     26  H   UNL     1       3.592  -0.679   2.102  0.00  0.00    +0.149 HD
BRANCH  23  27
ATOM     27  C   UNL     1       3.681  -0.762  -0.018  0.00  0.00    +0.139 C 
BRANCH  27  31
ATOM     28  C   UNL     1      -0.044   1.328   0.027  0.00  0.00    +0.000 A 
ATOM     29  C   UNL     1       1.144   2.034   0.005  0.00  0.00    +0.000 A 
ATOM     30  C   UNL     1       2.350   1.358  -0.010  0.00  0.00    +0.005 A 
ATOM     31  C   UNL     1       2.367  -0.024  -0.001  0.00  0.00    -0.030 A 
ATOM     32  C   UNL     1       1.179  -0.730   0.022  0.00  0.00    +0.005 A 
ATOM     33  C   UNL     1      -0.027  -0.054   0.035  0.00  0.00    +0.000 A 
ENDBRANCH  27  31
ENDBRANCH  23  27
ENDBRANCH   1  24
TORSDOF 5
