REMARK  Name = ZINC40702129
REMARK  7 active torsions:
REMARK  status: ('A' for Active; 'I' for Inactive)
REMARK    1  A    between atoms: C_1  and  C_2
REMARK    2  A    between atoms: C_2  and  N_3
REMARK    3  A    between atoms: N_3  and  C_4
REMARK    4  A    between atoms: C_15  and  N_34
REMARK    5  A    between atoms: C_16  and  N_20
REMARK    6  A    between atoms: N_20  and  C_21
REMARK    7  A    between atoms: C_21  and  C_22
REMARK                            x       y       z     vdW  Elec       q    Type
REMARK                         _______ _______ _______ _____ _____    ______ ____
ROOT
ATOM      1  N   UNL     1      -0.392   0.235   0.089  0.00  0.00    -0.285 N 
ATOM      2  C   UNL     1      -1.133  -0.247   1.161  0.00  0.00    +0.129 A 
ATOM      3  C   UNL     1      -0.733   0.012   2.474  0.00  0.00    +0.104 A 
ATOM      4  C   UNL     1      -1.513  -0.496   3.514  0.00  0.00    +0.153 A 
ATOM      5  N   UNL     1      -2.601  -1.203   3.217  0.00  0.00    -0.220 NA
ATOM      6  C   UNL     1      -2.944  -1.425   1.964  0.00  0.00    +0.200 A 
ATOM      7  N   UNL     1      -2.238  -0.960   0.954  0.00  0.00    -0.332 N 
ATOM      8  H   UNL     1      -2.526  -1.141   0.045  0.00  0.00    +0.168 HD
ENDROOT
BRANCH   1   9
ATOM      9  C   UNL     1       0.546  -0.585  -0.536  0.00  0.00    +0.043 A 
ATOM     10  C   UNL     1       1.851  -0.612  -0.092  0.00  0.00    +0.024 A 
ATOM     11  C   UNL     1       2.795  -1.427  -0.708  0.00  0.00    +0.002 A 
ATOM     12  C   UNL     1       2.459  -2.218  -1.765  0.00  0.00    +0.008 A 
ATOM     13  C   UNL     1       1.139  -2.219  -2.248  0.00  0.00    -0.016 A 
ATOM     14  C   UNL     1       0.167  -1.399  -1.625  0.00  0.00    +0.003 A 
ATOM     15  C   UNL     1      -1.151  -1.405  -2.106  0.00  0.00    +0.010 A 
ATOM     16  C   UNL     1      -1.481  -2.203  -3.159  0.00  0.00    +0.001 A 
ATOM     17  C   UNL     1      -0.527  -3.015  -3.769  0.00  0.00    +0.001 A 
ATOM     18  C   UNL     1       0.764  -3.025  -3.338  0.00  0.00    +0.008 A 
ENDBRANCH   1   9
BRANCH   4  19
ATOM     19  N   UNL     1      -1.159  -0.268   4.840  0.00  0.00    -0.264 N 
ATOM     20  C   UNL     1      -0.440  -1.229   5.543  0.00  0.00    +0.127 A 
ATOM     21  C   UNL     1      -0.199  -2.471   4.964  0.00  0.00    +0.044 A 
ATOM     22  C   UNL     1       0.517  -3.417   5.675  0.00  0.00    +0.005 A 
ATOM     23  C   UNL     1       0.971  -3.088   6.946  0.00  0.00    +0.020 A 
ATOM     24  C   UNL     1       0.696  -1.836   7.458  0.00  0.00    +0.113 A 
ATOM     25  N   UNL     1       0.015  -0.951   6.755  0.00  0.00    -0.240 NA
BRANCH  19  26
ATOM     26  C   UNL     1      -1.543   0.985   5.495  0.00  0.00    +0.149 C 
BRANCH  26  27
ATOM     27  C   UNL     1      -2.891   0.817   6.147  0.00  0.00    -0.030 A 
ATOM     28  C   UNL     1      -4.043   1.099   5.436  0.00  0.00    +0.005 A 
ATOM     29  C   UNL     1      -5.280   0.945   6.035  0.00  0.00    +0.000 A 
ATOM     30  C   UNL     1      -5.364   0.510   7.344  0.00  0.00    +0.000 A 
ATOM     31  C   UNL     1      -4.213   0.227   8.055  0.00  0.00    +0.000 A 
ATOM     32  C   UNL     1      -2.976   0.377   7.455  0.00  0.00    +0.005 A 
ENDBRANCH  26  27
ENDBRANCH  19  26
ENDBRANCH   4  19
BRANCH   3  33
ATOM     33  N   UNL     1       0.423   0.762   2.740  0.00  0.00    -0.353 N 
ATOM     34  H   UNL     1       0.899   1.195   2.014  0.00  0.00    +0.143 HD
ATOM     35  H   UNL     1       0.746   0.849   3.651  0.00  0.00    +0.143 HD
ENDBRANCH   3  33
BRANCH   1  37
ATOM     36  C   UNL     1      -1.676   1.615  -1.471  0.00  0.00    +0.025 C 
ATOM     37  C   UNL     1      -0.598   1.606  -0.385  0.00  0.00    +0.109 C 
ENDBRANCH   1  37
TORSDOF 6
