REMARK  Name = ZINC39627811
REMARK  9 active torsions:
REMARK  status: ('A' for Active; 'I' for Inactive)
REMARK    1  A    between atoms: C_1  and  C_2
REMARK    2  A    between atoms: C_2  and  C_3
REMARK    3  A    between atoms: C_3  and  C_4
REMARK    4  A    between atoms: C_4  and  C_6
REMARK    5  A    between atoms: C_4  and  C_7
REMARK    6  A    between atoms: C_11  and  C_20
REMARK    7  A    between atoms: N_22  and  C_23
REMARK    8  A    between atoms: C_23  and  C_24
REMARK    9  A    between atoms: C_24  and  N_25
REMARK                            x       y       z     vdW  Elec       q    Type
REMARK                         _______ _______ _______ _____ _____    ______ ____
ROOT
ATOM      1  C   UNL     1      -2.739  -2.510  -0.421  0.00  0.00    +0.218 C 
ATOM      2  O   UNL     1      -3.692  -1.803  -0.669  0.00  0.00    -0.275 OA
ATOM      3  N   UNL     1      -2.911  -3.835  -0.241  0.00  0.00    -0.300 N 
ATOM      4  C   UNL     1      -1.900  -4.834   0.177  0.00  0.00    +0.121 C 
ATOM      5  C   UNL     1      -2.657  -5.778   1.137  0.00  0.00    +0.100 C 
ATOM      6  C   UNL     1      -4.137  -5.636   0.741  0.00  0.00    -0.004 C 
ATOM      7  C   UNL     1      -4.157  -4.620  -0.410  0.00  0.00    +0.115 C 
ATOM      8  C   UNL     1      -4.950  -5.106   1.918  0.00  0.00    -0.010 C 
ATOM      9  C   UNL     1      -6.426  -5.026   1.519  0.00  0.00    -0.082 C 
ATOM     10  N   UNL     1      -6.902  -6.360   1.130  0.00  0.00    +0.379 N 
ATOM     11  C   UNL     1      -6.177  -6.823  -0.060  0.00  0.00    -0.082 C 
ATOM     12  C   UNL     1      -4.691  -6.978   0.274  0.00  0.00    -0.010 C 
ATOM     13  H   UNL     1      -6.746  -7.005   1.890  0.00  0.00    -0.086 HD
ATOM     14  H   UNL     1      -7.889  -6.317   0.926  0.00  0.00    -0.086 HD
ENDROOT
BRANCH   5  15
ATOM     15  C   UNL     1      -2.451  -5.349   2.567  0.00  0.00    +0.218 C 
ATOM     16  O   UNL     1      -2.191  -4.192   2.821  0.00  0.00    -0.275 OA
ATOM     17  N   UNL     1      -2.554  -6.252   3.563  0.00  0.00    -0.317 N 
ATOM     18  H   UNL     1      -2.762  -7.177   3.359  0.00  0.00    +0.149 HD
BRANCH  17  19
ATOM     19  C   UNL     1      -2.353  -5.835   4.953  0.00  0.00    +0.085 C 
BRANCH  19  20
ATOM     20  C   UNL     1      -2.526  -7.041   5.877  0.00  0.00    -0.060 C 
BRANCH  20  21
ATOM     21  N   UNL     1      -2.324  -6.623   7.271  0.00  0.00    +0.381 N 
ATOM     22  C   UNL     1      -0.936  -6.180   7.452  0.00  0.00    -0.079 C 
ATOM     23  C   UNL     1      -0.742  -5.668   8.880  0.00  0.00    -0.019 C 
ATOM     24  C   UNL     1      -1.052  -6.796   9.868  0.00  0.00    -0.004 C 
ATOM     25  C   UNL     1      -2.477  -7.301   9.621  0.00  0.00    -0.019 C 
ATOM     26  C   UNL     1      -2.607  -7.753   8.165  0.00  0.00    -0.079 C 
ATOM     27  H   UNL     1      -2.949  -5.861   7.486  0.00  0.00    -0.082 HD
ENDBRANCH  20  21
ENDBRANCH  19  20
ENDBRANCH  17  19
ENDBRANCH   5  15
BRANCH   1  28
ATOM     28  C   UNL     1      -1.361  -1.909  -0.315  0.00  0.00    +0.072 C 
ATOM     29  C   UNL     1      -1.462  -0.506   0.289  0.00  0.00    +0.017 C 
BRANCH  28  30
ATOM     30  C   UNL     1      -0.734  -1.820  -1.708  0.00  0.00    +0.012 C 
BRANCH  30  32
ATOM     31  C   UNL     1       1.335  -1.238  -2.980  0.00  0.00    +0.004 C 
ATOM     32  C   UNL     1       0.709  -1.326  -1.587  0.00  0.00    -0.003 C 
ENDBRANCH  30  32
ENDBRANCH  28  30
ENDBRANCH   1  28
TORSDOF 7
