REMARK  Name = ZINC13214141
REMARK  12 active torsions:
REMARK  status: ('A' for Active; 'I' for Inactive)
REMARK    1  A    between atoms: C_1  and  C_2
REMARK    2  A    between atoms: C_2  and  C_3
REMARK    3  A    between atoms: C_2  and  C_4
REMARK    4  A    between atoms: C_4  and  O_5
REMARK    5  A    between atoms: O_5  and  C_6
REMARK    6  A    between atoms: C_8  and  C_14
REMARK    7  A    between atoms: C_11  and  O_12
REMARK    8  A    between atoms: O_12  and  C_13
REMARK    9  A    between atoms: C_16  and  C_31
REMARK   10  A    between atoms: N_20  and  C_21
REMARK   11  A    between atoms: C_25  and  C_27
REMARK   12  A    between atoms: C_31  and  C_33
REMARK                            x       y       z     vdW  Elec       q    Type
REMARK                         _______ _______ _______ _____ _____    ______ ____
ROOT
ATOM      1  C   UNL     1       2.857  -1.802  -5.397  0.00  0.00    +0.150 C 
ATOM      2  C   UNL     1       2.601  -1.162  -6.741  0.00  0.00    +0.080 C 
ATOM      3  C   UNL     1       3.368  -1.822  -7.640  0.00  0.00    +0.250 C 
ATOM      4  C   UNL     1       4.128  -2.880  -6.946  0.00  0.00    +0.292 C 
ATOM      5  O   UNL     1       4.905  -3.645  -7.482  0.00  0.00    -0.266 OA
ATOM      6  N   UNL     1       3.832  -2.874  -5.632  0.00  0.00    -0.253 N 
ATOM      7  O   UNL     1       3.428  -1.554  -8.966  0.00  0.00    -0.282 OA
ENDROOT
BRANCH   1  10
ATOM      8  C   UNL     1       5.172   0.732  -3.819  0.00  0.00    +0.162 A 
ATOM      9  C   UNL     1       4.649  -0.202  -4.699  0.00  0.00    +0.055 A 
ATOM     10  C   UNL     1       3.424  -0.787  -4.439  0.00  0.00    -0.018 A 
ATOM     11  C   UNL     1       2.718  -0.442  -3.301  0.00  0.00    +0.009 A 
ATOM     12  C   UNL     1       3.234   0.489  -2.419  0.00  0.00    +0.050 A 
ATOM     13  C   UNL     1       4.464   1.075  -2.671  0.00  0.00    +0.162 A 
BRANCH  13  14
ATOM     14  O   UNL     1       4.976   1.987  -1.802  0.00  0.00    -0.491 OA
ATOM     15  C   UNL     1       4.194   2.290  -0.645  0.00  0.00    +0.277 C 
ENDBRANCH  13  14
BRANCH   8  16
ATOM     16  O   UNL     1       6.377   1.308  -4.074  0.00  0.00    -0.488 OA
BRANCH  16  17
ATOM     17  C   UNL     1       6.994   0.996  -5.325  0.00  0.00    +0.232 C 
BRANCH  17  19
ATOM     18  C   UNL     1       9.287   1.386  -4.411  0.00  0.00    +0.010 C 
ATOM     19  C   UNL     1       8.278   1.815  -5.479  0.00  0.00    +0.020 C 
ATOM     20  C   UNL     1       8.872   1.575  -6.868  0.00  0.00    +0.010 C 
ENDBRANCH  17  19
ENDBRANCH  16  17
ENDBRANCH   8  16
ENDBRANCH   1  10
BRANCH   6  21
ATOM     21  C   UNL     1       4.359  -3.734  -4.665  0.00  0.00    +0.038 A 
ATOM     22  C   UNL     1       3.959  -3.617  -3.338  0.00  0.00    +0.023 A 
ATOM     23  C   UNL     1       4.477  -4.464  -2.377  0.00  0.00    +0.003 A 
ATOM     24  C   UNL     1       5.396  -5.433  -2.727  0.00  0.00    +0.015 A 
ATOM     25  C   UNL     1       5.805  -5.559  -4.057  0.00  0.00    +0.065 A 
ATOM     26  C   UNL     1       5.277  -4.707  -5.028  0.00  0.00    +0.038 A 
BRANCH  25  27
ATOM     27  C   UNL     1       6.788  -6.593  -4.434  0.00  0.00    +0.387 C 
ATOM     28  O   UNL     1       7.245  -7.342  -3.582  0.00  0.00    -0.241 OA
ATOM     29  O   UNL     1       7.144  -6.702  -5.599  0.00  0.00    -0.241 OA
ENDBRANCH  25  27
ENDBRANCH   6  21
BRANCH   2  30
ATOM     30  C   UNL     1       1.695  -0.042  -7.019  0.00  0.00    +0.230 C 
ATOM     31  O   UNL     1       1.672   0.463  -8.128  0.00  0.00    -0.283 OA
BRANCH  30  32
ATOM     32  C   UNL     1       0.818   0.471  -5.962  0.00  0.00    +0.175 A 
ATOM     33  C   UNL     1       0.016   1.589  -6.044  0.00  0.00    +0.053 A 
ATOM     34  C   UNL     1      -0.641   1.700  -4.810  0.00  0.00    +0.042 A 
ATOM     35  C   UNL     1      -0.225   0.668  -4.041  0.00  0.00    +0.196 A 
ATOM     36  O   UNL     1       0.648  -0.071  -4.738  0.00  0.00    -0.460 OA
ENDBRANCH  30  32
ENDBRANCH   2  30
TORSDOF 9
