REMARK  Name = ZINC39512081
REMARK  6 active torsions:
REMARK  status: ('A' for Active; 'I' for Inactive)
REMARK    1  A    between atoms: C_4  and  O_7
REMARK    2  A    between atoms: O_7  and  S_8
REMARK    3  A    between atoms: S_8  and  N_11
REMARK    4  A    between atoms: C_15  and  C_24
REMARK    5  A    between atoms: C_20  and  O_23
REMARK    6  A    between atoms: C_29  and  O_30
REMARK                            x       y       z     vdW  Elec       q    Type
REMARK                         _______ _______ _______ _____ _____    ______ ____
ROOT
ATOM      1  N   UNL     1       3.497  -2.161   1.979  0.00  0.00    -0.140 NA
ATOM      2  C   UNL     1       2.205  -2.017   2.669  0.00  0.00    +0.113 C 
ATOM      3  C   UNL     1       2.300  -2.708   4.033  0.00  0.00    +0.018 C 
ATOM      4  C   UNL     1       2.737  -4.162   3.840  0.00  0.00    +0.011 C 
ATOM      5  C   UNL     1       4.128  -4.196   3.198  0.00  0.00    +0.045 C 
ATOM      6  C   UNL     1       4.075  -3.494   1.843  0.00  0.00    +0.055 C 
ATOM      7  C   UNL     1       3.273  -4.330   0.827  0.00  0.00    +0.027 C 
ATOM      8  C   UNL     1       3.811  -3.873  -0.546  0.00  0.00    +0.033 C 
ATOM      9  C   UNL     1       5.214  -3.290  -0.298  0.00  0.00    +0.116 C 
ATOM     10  C   UNL     1       5.481  -3.413   1.218  0.00  0.00    +0.056 C 
ENDROOT
BRANCH   5  11
ATOM     11  C   UNL     1       4.557  -5.627   3.005  0.00  0.00    -0.001 A 
ATOM     12  C   UNL     1       5.028  -6.048   1.776  0.00  0.00    +0.007 A 
ATOM     13  C   UNL     1       5.422  -7.361   1.599  0.00  0.00    +0.001 A 
ATOM     14  C   UNL     1       5.347  -8.257   2.650  0.00  0.00    +0.004 A 
ATOM     15  C   UNL     1       4.877  -7.841   3.881  0.00  0.00    +0.046 A 
ATOM     16  C   UNL     1       4.486  -6.522   4.063  0.00  0.00    +0.120 A 
BRANCH  16  17
ATOM     17  O   UNL     1       4.029  -6.109   5.274  0.00  0.00    -0.506 OA
ATOM     18  H   UNL     1       3.088  -6.281   5.419  0.00  0.00    +0.292 HD
ENDBRANCH  16  17
ENDBRANCH   5  11
BRANCH   1  19
ATOM     19  S   UNL     1       4.276  -0.836   1.362  0.00  0.00    +0.195 S 
ATOM     20  O   UNL     1       5.488  -1.307   0.791  0.00  0.00    -0.119 OA
ATOM     21  O   UNL     1       4.248   0.160   2.376  0.00  0.00    -0.119 OA
BRANCH  19  22
ATOM     22  O   UNL     1       3.428  -0.310   0.212  0.00  0.00    -0.333 OA
BRANCH  22  26
ATOM     23  C   UNL     1       0.057   1.742   1.413  0.00  0.00    +0.000 A 
ATOM     24  C   UNL     1       1.274   2.394   1.345  0.00  0.00    +0.004 A 
ATOM     25  C   UNL     1       2.404   1.709   0.944  0.00  0.00    +0.048 A 
ATOM     26  C   UNL     1       2.318   0.366   0.608  0.00  0.00    +0.158 A 
ATOM     27  C   UNL     1       1.095  -0.287   0.677  0.00  0.00    +0.048 A 
ATOM     28  C   UNL     1      -0.033   0.403   1.079  0.00  0.00    +0.004 A 
ENDBRANCH  22  26
ENDBRANCH  19  22
ENDBRANCH   1  19
BRANCH   9  29
ATOM     29  O   UNL     1       6.190  -4.035  -1.029  0.00  0.00    -0.392 OA
ATOM     30  H   UNL     1       6.064  -4.014  -1.988  0.00  0.00    +0.210 HD
ENDBRANCH   9  29
TORSDOF 6
