REMARK  Name = ZINC38565034
REMARK  8 active torsions:
REMARK  status: ('A' for Active; 'I' for Inactive)
REMARK    1  A    between atoms: C_1  and  C_2
REMARK    2  A    between atoms: C_2  and  C_3
REMARK    3  A    between atoms: C_3  and  C_4
REMARK    4  A    between atoms: C_4  and  C_5
REMARK    5  A    between atoms: C_5  and  C_6
REMARK    6  A    between atoms: C_6  and  N_7
REMARK    7  A    between atoms: C_8  and  C_10
REMARK    8  A    between atoms: C_22  and  C_24
REMARK                            x       y       z     vdW  Elec       q    Type
REMARK                         _______ _______ _______ _____ _____    ______ ____
ROOT
ATOM      1  C   UNL     1       2.869  -6.409  -5.308  0.00  0.00    +0.126 C 
ATOM      2  C   UNL     1       3.172  -7.765  -5.449  0.00  0.00    +0.039 C 
ATOM      3  C   UNL     1       4.151  -8.076  -6.380  0.00  0.00    -0.008 C 
ATOM      4  C   UNL     1       4.513  -9.218  -7.045  0.00  0.00    +0.004 A 
ATOM      5  C   UNL     1       4.187 -10.578  -6.841  0.00  0.00    +0.010 A 
ATOM      6  C   UNL     1       4.689 -11.474  -7.738  0.00  0.00    +0.001 A 
ATOM      7  C   UNL     1       5.491 -11.111  -8.819  0.00  0.00    +0.002 A 
ATOM      8  C   UNL     1       5.871  -9.828  -9.075  0.00  0.00    +0.026 A 
ATOM      9  C   UNL     1       5.406  -8.830  -8.173  0.00  0.00    +0.044 A 
ATOM     10  N   UNL     1       5.662  -7.544  -8.141  0.00  0.00    -0.372 N 
ATOM     11  C   UNL     1       5.076  -7.004  -6.934  0.00  0.00    +0.160 C 
ATOM     12  C   UNL     1       4.334  -5.717  -7.008  0.00  0.00    +0.076 C 
ATOM     13  N   UNL     1       3.349  -5.495  -6.164  0.00  0.00    -0.244 NA
ATOM     14  H   UNL     1       6.156  -7.043  -8.809  0.00  0.00    +0.161 HD
ENDROOT
BRANCH  12  15
ATOM     15  C   UNL     1       4.691  -4.710  -8.011  0.00  0.00    +0.002 A 
ATOM     16  C   UNL     1       3.733  -3.787  -8.454  0.00  0.00    +0.013 A 
ATOM     17  C   UNL     1       4.073  -2.843  -9.396  0.00  0.00    +0.050 A 
ATOM     18  C   UNL     1       5.363  -2.800  -9.912  0.00  0.00    +0.166 A 
ATOM     19  C   UNL     1       6.323  -3.716  -9.476  0.00  0.00    +0.167 A 
ATOM     20  C   UNL     1       5.994  -4.663  -8.528  0.00  0.00    +0.059 A 
ATOM     21  O   UNL     1       7.494  -3.462 -10.130  0.00  0.00    -0.453 OA
ATOM     22  C   UNL     1       7.133  -2.651 -11.263  0.00  0.00    +0.466 C 
ATOM     23  O   UNL     1       5.936  -1.976 -10.835  0.00  0.00    -0.453 OA
ENDBRANCH  12  15
BRANCH   1  25
ATOM     24  N   UNL     1       1.690  -4.668  -4.051  0.00  0.00    -0.310 N 
ATOM     25  C   UNL     1       1.995  -5.972  -4.196  0.00  0.00    +0.262 C 
ATOM     26  O   UNL     1       1.553  -6.790  -3.413  0.00  0.00    -0.269 OA
ATOM     27  H   UNL     1       2.042  -4.015  -4.676  0.00  0.00    +0.149 HD
BRANCH  24  28
ATOM     28  C   UNL     1       0.825  -4.236  -2.950  0.00  0.00    +0.104 C 
BRANCH  28  29
ATOM     29  C   UNL     1       0.638  -2.718  -3.013  0.00  0.00    +0.019 C 
BRANCH  29  30
ATOM     30  C   UNL     1      -0.265  -2.267  -1.864  0.00  0.00    +0.002 C 
BRANCH  30  31
ATOM     31  C   UNL     1      -0.452  -0.750  -1.927  0.00  0.00    -0.000 C 
BRANCH  31  33
ATOM     32  C   UNL     1      -1.542   1.218  -0.841  0.00  0.00    +0.004 C 
ATOM     33  C   UNL     1      -1.355  -0.299  -0.777  0.00  0.00    -0.003 C 
ENDBRANCH  31  33
ENDBRANCH  30  31
ENDBRANCH  29  30
ENDBRANCH  28  29
ENDBRANCH  24  28
ENDBRANCH   1  25
TORSDOF 7
