REMARK  Name = ZINC40826714
REMARK  7 active torsions:
REMARK  status: ('A' for Active; 'I' for Inactive)
REMARK    1  A    between atoms: C_1  and  C_2
REMARK    2  A    between atoms: C_6  and  C_12
REMARK    3  A    between atoms: C_10  and  C_11
REMARK    4  A    between atoms: C_12  and  C_13
REMARK    5  A    between atoms: N_15  and  N_16
REMARK    6  A    between atoms: C_23  and  C_38
REMARK    7  A    between atoms: C_24  and  C_26
REMARK                            x       y       z     vdW  Elec       q    Type
REMARK                         _______ _______ _______ _____ _____    ______ ____
ROOT
ATOM      1  N   UNL     1       3.052  -6.944  -2.338  0.00  0.00    -0.184 NA
ATOM      2  C   UNL     1       3.294  -7.864  -3.220  0.00  0.00    +0.070 C 
ATOM      3  C   UNL     1       2.188  -8.684  -3.869  0.00  0.00    +0.058 C 
ATOM      4  C   UNL     1       2.648 -10.144  -3.935  0.00  0.00    +0.014 C 
ATOM      5  C   UNL     1       3.866 -10.286  -4.852  0.00  0.00    +0.075 C 
ATOM      6  C   UNL     1       4.933  -9.311  -4.423  0.00  0.00    +0.115 A 
ATOM      7  C   UNL     1       4.665  -8.190  -3.671  0.00  0.00    +0.042 A 
ATOM      8  C   UNL     1       5.878  -7.522  -3.463  0.00  0.00    +0.009 A 
ATOM      9  C   UNL     1       6.835  -8.258  -4.104  0.00  0.00    +0.193 A 
ATOM     10  O   UNL     1       6.240  -9.337  -4.670  0.00  0.00    -0.454 OA
ATOM     11  C   UNL     1       6.086  -6.245  -2.689  0.00  0.00    +0.048 C 
ENDROOT
BRANCH   9  12
ATOM     12  C   UNL     1       8.266  -7.941  -4.159  0.00  0.00    +0.282 C 
ATOM     13  O   UNL     1       8.672  -6.882  -3.717  0.00  0.00    -0.267 OA
ATOM     14  N   UNL     1       9.131  -8.822  -4.700  0.00  0.00    -0.290 N 
ATOM     15  C   UNL     1      10.581  -8.565  -4.705  0.00  0.00    +0.113 C 
ATOM     16  C   UNL     1      11.251  -9.636  -3.845  0.00  0.00    +0.054 C 
ATOM     17  C   UNL     1      10.740 -11.007  -4.202  0.00  0.00    -0.041 A 
ATOM     18  C   UNL     1      11.521 -12.099  -3.841  0.00  0.00    +0.004 A 
ATOM     19  C   UNL     1      11.107 -13.383  -4.130  0.00  0.00    +0.000 A 
ATOM     20  C   UNL     1       9.905 -13.588  -4.782  0.00  0.00    +0.000 A 
ATOM     21  C   UNL     1       9.130 -12.505  -5.144  0.00  0.00    +0.005 A 
ATOM     22  C   UNL     1       9.548 -11.213  -4.859  0.00  0.00    -0.027 A 
ATOM     23  C   UNL     1       8.667 -10.076  -5.301  0.00  0.00    +0.143 C 
ENDBRANCH   9  12
BRANCH   1  26
ATOM     24  C   UNL     1       1.481  -5.721  -1.032  0.00  0.00    +0.237 C 
ATOM     25  O   UNL     1       2.397  -5.090  -0.546  0.00  0.00    -0.274 OA
ATOM     26  N   UNL     1       1.733  -6.677  -1.948  0.00  0.00    -0.206 N 
ATOM     27  H   UNL     1       1.001  -7.181  -2.336  0.00  0.00    +0.177 HD
BRANCH  24  28
ATOM     28  C   UNL     1       0.063  -5.434  -0.612  0.00  0.00    +0.136 C 
BRANCH  28  34
ATOM     29  C   UNL     1       0.068   1.371   0.453  0.00  0.00    +0.044 C 
ATOM     30  C   UNL     1       0.066  -0.132   0.355  0.00  0.00    -0.044 A 
ATOM     31  C   UNL     1       0.076  -0.739  -0.892  0.00  0.00    +0.004 A 
ATOM     32  C   UNL     1       0.073  -2.103  -0.999  0.00  0.00    +0.012 A 
ATOM     33  C   UNL     1       0.061  -2.886   0.154  0.00  0.00    +0.024 A 
ATOM     34  C   UNL     1       0.056  -4.331   0.414  0.00  0.00    +0.007 A 
ATOM     35  C   UNL     1       0.043  -4.471   1.746  0.00  0.00    +0.200 A 
ATOM     36  O   UNL     1       0.041  -3.264   2.339  0.00  0.00    -0.462 OA
ATOM     37  C   UNL     1       0.051  -2.277   1.421  0.00  0.00    +0.138 A 
ATOM     38  C   UNL     1       0.059  -0.890   1.506  0.00  0.00    -0.005 A 
ATOM     39  C   UNL     1       0.054  -0.217   2.855  0.00  0.00    +0.048 C 
ENDBRANCH  28  34
ENDBRANCH  24  28
ENDBRANCH   1  26
TORSDOF 4
