REMARK  Name = ZINC59167316
REMARK  10 active torsions:
REMARK  status: ('A' for Active; 'I' for Inactive)
REMARK    1  A    between atoms: C_1  and  C_2
REMARK    2  A    between atoms: C_2  and  C_3
REMARK    3  A    between atoms: C_2  and  C_4
REMARK    4  A    between atoms: C_4  and  C_5
REMARK    5  A    between atoms: C_5  and  C_7
REMARK    6  A    between atoms: C_5  and  N_30
REMARK    7  A    between atoms: N_9  and  N_10
REMARK    8  A    between atoms: N_18  and  C_21
REMARK    9  A    between atoms: C_21  and  C_22
REMARK   10  A    between atoms: C_22  and  C_23
REMARK                            x       y       z     vdW  Elec       q    Type
REMARK                         _______ _______ _______ _____ _____    ______ ____
ROOT
ATOM      1  N   UNL     1      -4.675  -3.232   1.358  0.00  0.00    -0.175 NA
ATOM      2  C   UNL     1      -5.211  -3.376   2.545  0.00  0.00    +0.153 C 
ATOM      3  C   UNL     1      -6.564  -3.885   2.869  0.00  0.00    +0.029 A 
ATOM      4  C   UNL     1      -7.622  -4.340   2.089  0.00  0.00    +0.027 A 
ATOM      5  C   UNL     1      -8.789  -4.761   2.696  0.00  0.00    +0.019 A 
ATOM      6  C   UNL     1      -8.903  -4.730   4.076  0.00  0.00    +0.017 A 
ATOM      7  C   UNL     1      -7.859  -4.279   4.858  0.00  0.00    +0.025 A 
ATOM      8  C   UNL     1      -6.676  -3.852   4.265  0.00  0.00    +0.046 A 
ATOM      9  N   UNL     1      -5.494  -3.361   4.809  0.00  0.00    -0.265 N 
ATOM     10  C   UNL     1      -4.596  -3.071   3.853  0.00  0.00    +0.271 C 
ATOM     11  O   UNL     1      -3.475  -2.631   4.032  0.00  0.00    -0.268 OA
ATOM     12 BR   UNL     1     -10.232  -5.381   1.642  0.00  0.00    -0.050 Br
ENDROOT
BRANCH   1  15
ATOM     13  C   UNL     1      -2.819  -2.590   0.013  0.00  0.00    +0.218 C 
ATOM     14  O   UNL     1      -3.452  -2.886  -0.978  0.00  0.00    -0.276 OA
ATOM     15  N   UNL     1      -3.370  -2.737   1.234  0.00  0.00    -0.208 N 
ATOM     16  H   UNL     1      -2.864  -2.501   2.026  0.00  0.00    +0.177 HD
BRANCH  13  17
ATOM     17  C   UNL     1      -1.416  -2.058  -0.121  0.00  0.00    +0.015 C 
BRANCH  17  18
ATOM     18  N   UNL     1      -0.875  -2.427  -1.436  0.00  0.00    +0.386 N 
ATOM     19  H   UNL     1      -0.863  -3.432  -1.524  0.00  0.00    -0.089 HD
ATOM     20  H   UNL     1      -1.455  -2.033  -2.161  0.00  0.00    -0.089 HD
ATOM     21  H   UNL     1       0.065  -2.071  -1.526  0.00  0.00    -0.089 HD
ENDBRANCH  17  18
BRANCH  17  22
ATOM     22  C   UNL     1      -1.433  -0.534   0.013  0.00  0.00    -0.004 C 
BRANCH  22  24
ATOM     23  C   UNL     1      -0.019   1.526   0.010  0.00  0.00    +0.007 C 
ATOM     24  C   UNL     1       0.002  -0.004   0.002  0.00  0.00    -0.018 C 
ATOM     25  C   UNL     1       0.742  -0.511   1.242  0.00  0.00    +0.007 C 
ENDBRANCH  22  24
ENDBRANCH  17  22
ENDBRANCH  13  17
ENDBRANCH   1  15
BRANCH   9  26
ATOM     26  C   UNL     1      -5.256  -3.189   6.245  0.00  0.00    +0.118 C 
BRANCH  26  27
ATOM     27  C   UNL     1      -4.651  -4.471   6.819  0.00  0.00    +0.054 C 
BRANCH  27  28
ATOM     28  C   UNL     1      -4.406  -4.294   8.295  0.00  0.00    -0.046 A 
ATOM     29  C   UNL     1      -3.197  -3.792   8.740  0.00  0.00    +0.004 A 
ATOM     30  C   UNL     1      -2.973  -3.630  10.094  0.00  0.00    +0.000 A 
ATOM     31  C   UNL     1      -3.957  -3.968  11.004  0.00  0.00    +0.000 A 
ATOM     32  C   UNL     1      -5.166  -4.469  10.559  0.00  0.00    +0.000 A 
ATOM     33  C   UNL     1      -5.393  -4.628   9.204  0.00  0.00    +0.004 A 
ENDBRANCH  27  28
ENDBRANCH  26  27
ENDBRANCH   9  26
TORSDOF 8
