REMARK  Name = ZINC07281304
REMARK  12 active torsions:
REMARK  status: ('A' for Active; 'I' for Inactive)
REMARK    1  A    between atoms: C_1  and  C_2
REMARK    2  A    between atoms: C_2  and  C_3
REMARK    3  A    between atoms: C_3  and  C_4
REMARK    4  A    between atoms: C_4  and  C_5
REMARK    5  A    between atoms: C_5  and  C_6
REMARK    6  A    between atoms: C_6  and  C_8
REMARK    7  A    between atoms: C_6  and  N_9
REMARK    8  A    between atoms: C_10  and  C_12
REMARK    9  A    between atoms: C_12  and  S_13
REMARK   10  A    between atoms: S_13  and  C_14
REMARK   11  A    between atoms: C_17  and  C_20
REMARK   12  A    between atoms: N_18  and  N_19
REMARK                            x       y       z     vdW  Elec       q    Type
REMARK                         _______ _______ _______ _____ _____    ______ ____
ROOT
ATOM      1  C   UNL     1      -2.515   7.651  -5.486  0.00  0.00    +0.209 A 
ATOM      2  N   UNL     1      -1.511   8.223  -4.861  0.00  0.00    -0.121 NA
ATOM      3  N   UNL     1      -1.683   9.496  -4.822  0.00  0.00    -0.127 NA
ATOM      4  C   UNL     1      -2.812   9.814  -5.413  0.00  0.00    +0.183 A 
ATOM      5  N   UNL     1      -3.379   8.642  -5.856  0.00  0.00    -0.224 N 
ENDROOT
BRANCH   4   6
ATOM      6  C   UNL     1      -3.368  11.174  -5.572  0.00  0.00    +0.039 A 
ATOM      7  C   UNL     1      -4.710  11.422  -5.278  0.00  0.00    +0.014 A 
ATOM      8  C   UNL     1      -5.222  12.694  -5.424  0.00  0.00    +0.021 A 
ATOM      9  C   UNL     1      -4.410  13.724  -5.870  0.00  0.00    +0.042 A 
ATOM     10  C   UNL     1      -3.080  13.485  -6.169  0.00  0.00    +0.040 A 
ATOM     11  C   UNL     1      -2.554  12.216  -6.022  0.00  0.00    +0.053 A 
ATOM     12 CL   UNL     1      -0.886  11.917  -6.398  0.00  0.00    -0.083 Cl
ATOM     13 CL   UNL     1      -5.064  15.321  -6.057  0.00  0.00    -0.083 Cl
ENDBRANCH   4   6
BRANCH   5  14
ATOM     14  N   UNL     1      -4.561   8.498  -6.527  0.00  0.00    -0.295 N 
ATOM     15  H   UNL     1      -5.338   8.455  -5.885  0.00  0.00    +0.163 HD
ATOM     16  H   UNL     1      -4.688   9.240  -7.199  0.00  0.00    +0.163 HD
ENDBRANCH   5  14
BRANCH   1  17
ATOM     17  S   UNL     1      -2.713   5.926  -5.785  0.00  0.00    -0.075 S 
BRANCH  17  18
ATOM     18  C   UNL     1      -1.200   5.298  -5.016  0.00  0.00    +0.173 C 
BRANCH  18  20
ATOM     19  N   UNL     1      -0.108   3.108  -4.651  0.00  0.00    -0.312 N 
ATOM     20  C   UNL     1      -1.151   3.798  -5.153  0.00  0.00    +0.224 C 
ATOM     21  O   UNL     1      -2.052   3.211  -5.716  0.00  0.00    -0.275 OA
ATOM     22  H   UNL     1       0.612   3.578  -4.201  0.00  0.00    +0.149 HD
BRANCH  19  23
ATOM     23  C   UNL     1      -0.061   1.650  -4.784  0.00  0.00    +0.070 C 
ATOM     24  C   UNL     1       0.538   1.282  -6.143  0.00  0.00    +0.028 C 
BRANCH  23  25
ATOM     25  C   UNL     1       0.806   1.063  -3.669  0.00  0.00    +0.022 C 
BRANCH  25  26
ATOM     26  C   UNL     1       0.141   1.325  -2.315  0.00  0.00    +0.002 C 
BRANCH  26  27
ATOM     27  C   UNL     1       1.008   0.738  -1.200  0.00  0.00    -0.000 C 
BRANCH  27  29
ATOM     28  C   UNL     1       1.211   0.413   1.269  0.00  0.00    +0.004 C 
ATOM     29  C   UNL     1       0.344   1.000   0.153  0.00  0.00    -0.003 C 
ENDBRANCH  27  29
ENDBRANCH  26  27
ENDBRANCH  25  26
ENDBRANCH  23  25
ENDBRANCH  19  23
ENDBRANCH  18  20
ENDBRANCH  17  18
ENDBRANCH   1  17
TORSDOF 10
