REMARK  Name = ZINC36068448
REMARK  10 active torsions:
REMARK  status: ('A' for Active; 'I' for Inactive)
REMARK    1  A    between atoms: C_4  and  C_34
REMARK    2  A    between atoms: C_5  and  C_7
REMARK    3  A    between atoms: C_7  and  N_8
REMARK    4  A    between atoms: N_8  and  C_9
REMARK    5  A    between atoms: N_8  and  C_19
REMARK    6  A    between atoms: C_9  and  C_10
REMARK    7  A    between atoms: C_19  and  C_20
REMARK    8  A    between atoms: C_22  and  C_25
REMARK    9  A    between atoms: N_27  and  C_28
REMARK   10  A    between atoms: C_28  and  C_29
REMARK                            x       y       z     vdW  Elec       q    Type
REMARK                         _______ _______ _______ _____ _____    ______ ____
ROOT
ATOM      1  N   UNL     1       1.433  -2.548   1.389  0.00  0.00    +0.391 N 
ATOM      2  H   UNL     1       2.151  -2.064   1.906  0.00  0.00    -0.080 HD
ENDROOT
BRANCH   1   3
ATOM      3  C   UNL     1       1.223  -1.879   0.099  0.00  0.00    -0.041 C 
BRANCH   3   8
ATOM      4  C   UNL     1      -0.652   1.365   0.559  0.00  0.00    +0.000 A 
ATOM      5  C   UNL     1       0.386   2.258   0.757  0.00  0.00    +0.001 A 
ATOM      6  C   UNL     1       1.694   1.811   0.741  0.00  0.00    +0.012 A 
ATOM      7  C   UNL     1       1.964   0.472   0.528  0.00  0.00    +0.056 A 
ATOM      8  C   UNL     1       0.927  -0.420   0.332  0.00  0.00    -0.052 A 
ATOM      9  C   UNL     1      -0.381   0.027   0.346  0.00  0.00    +0.002 A 
BRANCH   7  10
ATOM     10  C   UNL     1       3.391  -0.014   0.509  0.00  0.00    +0.418 C 
ATOM     11  F   UNL     1       4.258   1.079   0.609  0.00  0.00    -0.166 F 
ATOM     12  F   UNL     1       3.603  -0.877   1.590  0.00  0.00    -0.166 F 
ATOM     13  F   UNL     1       3.635  -0.696  -0.687  0.00  0.00    -0.166 F 
ENDBRANCH   7  10
ENDBRANCH   3   8
ENDBRANCH   1   3
BRANCH   1  14
ATOM     14  C   UNL     1       0.181  -2.533   2.158  0.00  0.00    -0.042 C 
BRANCH  14  15
ATOM     15  C   UNL     1       0.432  -3.091   3.536  0.00  0.00    -0.060 A 
ATOM     16  C   UNL     1       0.176  -4.424   3.797  0.00  0.00    +0.005 A 
ATOM     17  C   UNL     1       0.404  -4.940   5.059  0.00  0.00    +0.050 A 
ATOM     18  C   UNL     1       0.890  -4.122   6.066  0.00  0.00    +0.166 A 
ATOM     19  C   UNL     1       1.147  -2.778   5.803  0.00  0.00    +0.166 A 
ATOM     20  C   UNL     1       0.921  -2.269   4.534  0.00  0.00    +0.051 A 
ATOM     21  O   UNL     1       1.613  -2.192   6.944  0.00  0.00    -0.453 OA
ATOM     22  C   UNL     1       1.252  -3.088   8.011  0.00  0.00    +0.466 C 
ATOM     23  O   UNL     1       1.194  -4.376   7.372  0.00  0.00    -0.453 OA
ENDBRANCH  14  15
ENDBRANCH   1  14
BRANCH   1  24
ATOM     24  C   UNL     1       1.849  -3.938   1.159  0.00  0.00    +0.020 C 
BRANCH  24  25
ATOM     25  C   UNL     1       3.194  -3.953   0.478  0.00  0.00    +0.179 A 
ATOM     26  N   UNL     1       4.343  -3.980   1.083  0.00  0.00    -0.210 NA
ATOM     27  C   UNL     1       5.326  -3.987   0.142  0.00  0.00    +0.163 A 
ATOM     28  C   UNL     1       4.716  -3.963  -1.074  0.00  0.00    +0.230 A 
ATOM     29  O   UNL     1       3.393  -3.947  -0.848  0.00  0.00    -0.449 OA
BRANCH  27  30
ATOM     30  C   UNL     1       6.779  -4.014   0.393  0.00  0.00    +0.266 C 
ATOM     31  O   UNL     1       7.557  -4.018  -0.541  0.00  0.00    -0.268 OA
ATOM     32  N   UNL     1       7.244  -4.036   1.658  0.00  0.00    -0.303 N 
ATOM     33  H   UNL     1       6.623  -4.033   2.403  0.00  0.00    +0.150 HD
BRANCH  32  34
ATOM     34  C   UNL     1       8.687  -4.063   1.907  0.00  0.00    +0.179 C 
BRANCH  34  35
ATOM     35  C   UNL     1       8.940  -4.083   3.393  0.00  0.00    +0.122 A 
ATOM     36  C   UNL     1       9.058  -5.185   4.156  0.00  0.00    +0.046 A 
ATOM     37  C   UNL     1       9.289  -4.744   5.479  0.00  0.00    +0.041 A 
ATOM     38  C   UNL     1       9.297  -3.399   5.446  0.00  0.00    +0.195 A 
ATOM     39  O   UNL     1       9.091  -3.005   4.178  0.00  0.00    -0.466 OA
ENDBRANCH  34  35
ENDBRANCH  32  34
ENDBRANCH  27  30
ENDBRANCH  24  25
ENDBRANCH   1  24
TORSDOF 10
