REMARK  Name = ZINC23858623
REMARK  11 active torsions:
REMARK  status: ('A' for Active; 'I' for Inactive)
REMARK    1  A    between atoms: C_1  and  N_2
REMARK    2  A    between atoms: C_10  and  C_12
REMARK    3  A    between atoms: C_12  and  C_14
REMARK    4  A    between atoms: C_12  and  N_31
REMARK    5  A    between atoms: C_14  and  N_15
REMARK    6  A    between atoms: C_16  and  C_18
REMARK    7  A    between atoms: C_20  and  O_29
REMARK    8  A    between atoms: C_21  and  O_27
REMARK    9  A    between atoms: C_23  and  N_24
REMARK   10  A    between atoms: O_27  and  C_28
REMARK   11  A    between atoms: O_29  and  C_30
REMARK                            x       y       z     vdW  Elec       q    Type
REMARK                         _______ _______ _______ _____ _____    ______ ____
ROOT
ATOM      1  C   UNL     1      -0.661   0.907   2.191  0.00  0.00    -0.020 C 
ENDROOT
BRANCH   1  11
ATOM      2  C   UNL     1       5.589   0.029   2.467  0.00  0.00    +0.129 C 
ATOM      3  N   UNL     1       4.660  -1.066   2.156  0.00  0.00    -0.333 N 
ATOM      4  C   UNL     1       4.903  -2.221   3.023  0.00  0.00    +0.105 C 
ATOM      5  C   UNL     1       3.890  -3.318   2.672  0.00  0.00    +0.024 C 
ATOM      6  C   UNL     1       2.503  -2.833   3.099  0.00  0.00    +0.038 C 
ATOM      7  C   UNL     1       2.289  -1.420   2.618  0.00  0.00    -0.026 A 
ATOM      8  C   UNL     1       3.338  -0.624   2.190  0.00  0.00    +0.033 A 
ATOM      9  C   UNL     1       3.080   0.680   1.765  0.00  0.00    +0.023 A 
ATOM     10  C   UNL     1       1.791   1.170   1.761  0.00  0.00    +0.004 A 
ATOM     11  C   UNL     1       0.748   0.372   2.191  0.00  0.00    -0.059 A 
ATOM     12  C   UNL     1       0.998  -0.918   2.615  0.00  0.00    +0.007 A 
ENDBRANCH   1  11
BRANCH   1  13
ATOM     13  N   UNL     1      -0.675   2.250   2.786  0.00  0.00    +0.385 N 
ATOM     14  C   UNL     1      -2.063   2.766   2.902  0.00  0.00    -0.078 C 
ATOM     15  C   UNL     1      -1.940   3.875   3.978  0.00  0.00    -0.020 C 
ATOM     16  C   UNL     1      -0.915   3.280   4.971  0.00  0.00    -0.020 C 
ATOM     17  C   UNL     1      -0.137   2.225   4.163  0.00  0.00    -0.078 C 
ATOM     18  H   UNL     1      -0.060   2.877   2.123  0.00  0.00    -0.081 HD
ENDBRANCH   1  13
BRANCH   1  19
ATOM     19  C   UNL     1      -1.179   0.980   0.753  0.00  0.00    +0.094 C 
BRANCH  19  20
ATOM     20  N   UNL     1      -2.590   1.375   0.761  0.00  0.00    -0.313 N 
ATOM     21  C   UNL     1      -3.223   1.636  -0.399  0.00  0.00    +0.246 C 
ATOM     22  O   UNL     1      -2.624   1.543  -1.453  0.00  0.00    -0.270 OA
ATOM     23  H   UNL     1      -3.132   1.459   1.715  0.00  0.00    +0.149 HD
BRANCH  21  24
ATOM     24  C   UNL     1      -4.645   2.034  -0.391  0.00  0.00    +0.070 A 
ATOM     25  C   UNL     1      -5.298   2.271   0.822  0.00  0.00    +0.064 A 
ATOM     26  C   UNL     1      -6.627   2.650   0.824  0.00  0.00    +0.162 A 
ATOM     27  C   UNL     1      -7.316   2.782  -0.381  0.00  0.00    +0.164 A 
ATOM     28  C   UNL     1      -6.668   2.541  -1.585  0.00  0.00    +0.082 A 
ATOM     29  C   UNL     1      -5.341   2.168  -1.594  0.00  0.00    +0.142 A 
BRANCH  29  30
ATOM     30  N   UNL     1      -4.653   1.912  -2.880  0.00  0.00    +0.057 N 
ATOM     31  O   UNL     1      -4.717   2.732  -3.778  0.00  0.00    -0.126 OA
ATOM     32  O   UNL     1      -4.024   0.881  -3.039  0.00  0.00    -0.126 OA
ENDBRANCH  29  30
BRANCH  27  33
ATOM     33  O   UNL     1      -8.623   3.149  -0.377  0.00  0.00    -0.491 OA
ATOM     34  C   UNL     1      -9.268   3.266  -1.647  0.00  0.00    +0.277 C 
ENDBRANCH  27  33
BRANCH  26  35
ATOM     35  O   UNL     1      -7.264   2.888   2.001  0.00  0.00    -0.491 OA
ATOM     36  C   UNL     1      -6.497   2.733   3.197  0.00  0.00    +0.277 C 
ENDBRANCH  26  35
ENDBRANCH  21  24
ENDBRANCH  19  20
ENDBRANCH   1  19
TORSDOF 8
