REMARK  Name = ZINC15733052
REMARK  6 active torsions:
REMARK  status: ('A' for Active; 'I' for Inactive)
REMARK    1  A    between atoms: C_1  and  C_2
REMARK    2  A    between atoms: C_3  and  C_26
REMARK    3  A    between atoms: C_12  and  C_15
REMARK    4  A    between atoms: N_17  and  C_18
REMARK    5  A    between atoms: C_18  and  C_19
REMARK    6  A    between atoms: C_19  and  C_20
REMARK                            x       y       z     vdW  Elec       q    Type
REMARK                         _______ _______ _______ _____ _____    ______ ____
ROOT
ATOM      1  C   UNL     1      -3.761   3.502   4.556  0.00  0.00    +0.049 C 
ATOM      2  C   UNL     1      -4.885   3.094   3.639  0.00  0.00    +0.018 C 
ATOM      3  C   UNL     1      -6.115   3.653   3.700  0.00  0.00    +0.126 C 
ATOM      4  S   UNL     1      -6.982   2.780   2.411  0.00  0.00    +0.101 S 
ATOM      5  O   UNL     1      -7.268   3.710   1.375  0.00  0.00    -0.146 OA
ATOM      6  O   UNL     1      -7.968   1.964   3.027  0.00  0.00    -0.146 OA
ATOM      7  N   UNL     1      -5.755   1.778   1.872  0.00  0.00    -0.113 NA
ATOM      8  C   UNL     1      -4.729   2.075   2.620  0.00  0.00    +0.148 C 
ATOM      9  N   UNL     1      -3.521   1.428   2.449  0.00  0.00    -0.314 N 
ATOM     10  C   UNL     1      -3.479   0.017   2.043  0.00  0.00    +0.107 C 
ATOM     11  C   UNL     1      -2.618  -0.759   3.046  0.00  0.00    +0.031 C 
ATOM     12  C   UNL     1      -1.243  -0.094   3.153  0.00  0.00    +0.078 C 
ATOM     13  C   UNL     1      -1.407   1.339   3.664  0.00  0.00    +0.031 C 
ATOM     14  C   UNL     1      -2.254   2.139   2.668  0.00  0.00    +0.107 C 
ENDROOT
BRANCH   3  15
ATOM     15  C   UNL     1      -6.612   4.705   4.601  0.00  0.00    +0.002 A 
ATOM     16  C   UNL     1      -5.792   5.787   4.936  0.00  0.00    +0.012 A 
ATOM     17  C   UNL     1      -6.264   6.772   5.777  0.00  0.00    +0.039 A 
ATOM     18  C   UNL     1      -7.545   6.686   6.299  0.00  0.00    +0.123 A 
ATOM     19  C   UNL     1      -8.362   5.613   5.975  0.00  0.00    +0.039 A 
ATOM     20  C   UNL     1      -7.903   4.625   5.131  0.00  0.00    +0.012 A 
ATOM     21  F   UNL     1      -8.001   7.652   7.127  0.00  0.00    -0.205 F 
ENDBRANCH   3  15
BRANCH  12  22
ATOM     22  C   UNL     1      -0.382  -0.874   4.113  0.00  0.00    +0.216 C 
ATOM     23  O   UNL     1      -0.824  -1.863   4.658  0.00  0.00    -0.276 OA
ATOM     24  N   UNL     1       0.881  -0.475   4.361  0.00  0.00    -0.315 N 
ATOM     25  H   UNL     1       1.234   0.317   3.925  0.00  0.00    +0.149 HD
BRANCH  24  26
ATOM     26  C   UNL     1       1.720  -1.236   5.290  0.00  0.00    +0.108 C 
BRANCH  26  27
ATOM     27  C   UNL     1       3.097  -0.576   5.392  0.00  0.00    +0.049 C 
BRANCH  27  28
ATOM     28  C   UNL     1       3.960  -1.359   6.347  0.00  0.00    -0.072 C 
ATOM     29  C   UNL     1       4.755  -2.252   5.853  0.00  0.00    -0.028 C 
ATOM     30  C   UNL     1       5.666  -3.115   6.676  0.00  0.00    +0.027 C 
ATOM     31  C   UNL     1       5.836  -2.518   8.075  0.00  0.00    +0.004 C 
ATOM     32  C   UNL     1       4.446  -2.194   8.637  0.00  0.00    +0.005 C 
ATOM     33  C   UNL     1       3.849  -1.050   7.812  0.00  0.00    +0.030 C 
ENDBRANCH  27  28
ENDBRANCH  26  27
ENDBRANCH  24  26
ENDBRANCH  12  22
TORSDOF 5
