REMARK  Name = ZINC39673519
REMARK  7 active torsions:
REMARK  status: ('A' for Active; 'I' for Inactive)
REMARK    1  A    between atoms: C_1  and  C_2
REMARK    2  A    between atoms: C_2  and  C_3
REMARK    3  A    between atoms: C_3  and  C_4
REMARK    4  A    between atoms: C_4  and  C_6
REMARK    5  A    between atoms: C_4  and  N_7
REMARK    6  A    between atoms: C_8  and  C_10
REMARK    7  A    between atoms: C_21  and  C_23
REMARK                            x       y       z     vdW  Elec       q    Type
REMARK                         _______ _______ _______ _____ _____    ______ ____
ROOT
ATOM      1  C   UNL     1      -2.237  -4.146  -0.785  0.00  0.00    +0.100 C 
ATOM      2  C   UNL     1      -3.267  -3.401   0.095  0.00  0.00    +0.121 C 
ATOM      3  N   UNL     1      -4.227  -4.449   0.515  0.00  0.00    -0.296 N 
ATOM      4  C   UNL     1      -3.382  -5.637   0.784  0.00  0.00    +0.115 C 
ATOM      5  C   UNL     1      -2.316  -5.613  -0.329  0.00  0.00    -0.004 C 
ATOM      6  C   UNL     1      -2.744  -6.505  -1.490  0.00  0.00    -0.010 C 
ATOM      7  C   UNL     1      -2.760  -7.964  -1.028  0.00  0.00    -0.082 C 
ATOM      8  N   UNL     1      -1.422  -8.345  -0.559  0.00  0.00    +0.379 N 
ATOM      9  C   UNL     1      -1.056  -7.545   0.616  0.00  0.00    -0.082 C 
ATOM     10  C   UNL     1      -0.968  -6.068   0.222  0.00  0.00    -0.010 C 
ATOM     11  C   UNL     1      -5.566  -4.345   0.628  0.00  0.00    +0.247 C 
ATOM     12  O   UNL     1      -6.213  -5.273   1.073  0.00  0.00    -0.270 OA
ATOM     13  H   UNL     1      -1.420  -9.324  -0.312  0.00  0.00    -0.086 HD
ATOM     14  H   UNL     1      -0.751  -8.186  -1.296  0.00  0.00    -0.086 HD
ENDROOT
BRANCH  11  15
ATOM     15  C   UNL     1      -6.248  -3.102   0.210  0.00  0.00    +0.045 A 
ATOM     16  C   UNL     1      -5.790  -1.861   0.668  0.00  0.00    +0.014 A 
ATOM     17  C   UNL     1      -6.423  -0.701   0.280  0.00  0.00    +0.001 A 
ATOM     18  C   UNL     1      -7.521  -0.749  -0.566  0.00  0.00    +0.012 A 
ATOM     19  C   UNL     1      -7.992  -1.971  -1.031  0.00  0.00    +0.031 A 
ATOM     20  C   UNL     1      -7.352  -3.161  -0.649  0.00  0.00    +0.006 A 
ATOM     21  C   UNL     1      -8.050  -4.304  -1.290  0.00  0.00    -0.006 A 
ATOM     22  C   UNL     1      -7.827  -5.673  -1.237  0.00  0.00    +0.009 A 
ATOM     23  C   UNL     1      -8.646  -6.537  -1.947  0.00  0.00    +0.001 A 
ATOM     24  C   UNL     1      -9.687  -6.046  -2.710  0.00  0.00    +0.001 A 
ATOM     25  C   UNL     1      -9.923  -4.682  -2.773  0.00  0.00    +0.012 A 
ATOM     26  C   UNL     1      -9.110  -3.805  -2.066  0.00  0.00    +0.030 A 
ATOM     27  C   UNL     1      -9.119  -2.329  -1.925  0.00  0.00    +0.194 C 
ATOM     28  O   UNL     1      -9.894  -1.558  -2.454  0.00  0.00    -0.287 OA
ENDBRANCH  11  15
BRANCH   1  30
ATOM     29  N   UNL     1       0.103  -3.759  -1.487  0.00  0.00    -0.312 N 
ATOM     30  C   UNL     1      -0.853  -3.597  -0.551  0.00  0.00    +0.218 C 
ATOM     31  O   UNL     1      -0.600  -3.010   0.479  0.00  0.00    -0.275 OA
ATOM     32  H   UNL     1      -0.100  -4.229  -2.311  0.00  0.00    +0.149 HD
BRANCH  29  33
ATOM     33  C   UNL     1       1.448  -3.226  -1.260  0.00  0.00    +0.070 C 
ATOM     34  C   UNL     1       2.269  -4.237  -0.458  0.00  0.00    +0.028 C 
BRANCH  33  35
ATOM     35  C   UNL     1       2.129  -2.970  -2.606  0.00  0.00    +0.022 C 
BRANCH  35  37
ATOM     36  C   UNL     1       2.059  -1.612  -4.702  0.00  0.00    +0.004 C 
ATOM     37  C   UNL     1       1.378  -1.868  -3.356  0.00  0.00    -0.002 C 
ENDBRANCH  35  37
ENDBRANCH  33  35
ENDBRANCH  29  33
ENDBRANCH   1  30
TORSDOF 5
