REMARK  Name = ZINC08843150
REMARK  8 active torsions:
REMARK  status: ('A' for Active; 'I' for Inactive)
REMARK    1  A    between atoms: C_1  and  S_2
REMARK    2  A    between atoms: S_2  and  N_5
REMARK    3  A    between atoms: N_5  and  C_6
REMARK    4  A    between atoms: N_5  and  C_21
REMARK    5  A    between atoms: C_6  and  C_7
REMARK    6  A    between atoms: N_9  and  N_10
REMARK    7  A    between atoms: C_11  and  C_12
REMARK    8  A    between atoms: C_17  and  N_18
REMARK                            x       y       z     vdW  Elec       q    Type
REMARK                         _______ _______ _______ _____ _____    ______ ____
ROOT
ATOM      1  C   UNL     1       0.158   0.771   0.245  0.00  0.00    +0.228 C 
ENDROOT
BRANCH   1   2
ATOM      2  C   UNL     1      -0.597   1.109  -1.015  0.00  0.00    +0.251 C 
ATOM      3  O   UNL     1      -1.704   1.600  -0.945  0.00  0.00    -0.272 OA
ATOM      4  N   UNL     1      -0.043   0.866  -2.219  0.00  0.00    -0.206 N 
ATOM      5  H   UNL     1       0.842   0.473  -2.275  0.00  0.00    +0.177 HD
BRANCH   4   6
ATOM      6  N   UNL     1      -0.745   1.180  -3.390  0.00  0.00    -0.188 NA
ATOM      7  C   UNL     1      -0.211   0.946  -4.549  0.00  0.00    +0.140 C 
BRANCH   7   8
ATOM      8  C   UNL     1      -0.951   1.277  -5.782  0.00  0.00    +0.025 A 
ATOM      9  C   UNL     1      -2.169   1.957  -5.708  0.00  0.00    +0.012 A 
ATOM     10  C   UNL     1      -2.852   2.268  -6.865  0.00  0.00    +0.001 A 
ATOM     11  C   UNL     1      -2.338   1.899  -8.096  0.00  0.00    +0.002 A 
ATOM     12  C   UNL     1      -1.135   1.220  -8.176  0.00  0.00    +0.033 A 
ATOM     13  C   UNL     1      -0.439   0.907  -7.027  0.00  0.00    +0.135 A 
BRANCH  13  14
ATOM     14  N   UNL     1       0.849   0.182  -7.115  0.00  0.00    +0.057 N 
ATOM     15  O   UNL     1       1.238  -0.240  -8.189  0.00  0.00    -0.126 OA
ATOM     16  O   UNL     1       1.519   0.007  -6.113  0.00  0.00    -0.126 OA
ENDBRANCH  13  14
ENDBRANCH   7   8
ENDBRANCH   4   6
ENDBRANCH   1   2
BRANCH   1  17
ATOM     17  N   UNL     1      -0.603   1.230   1.409  0.00  0.00    -0.198 N 
BRANCH  17  18
ATOM     18  C   UNL     1      -1.587   0.415   1.964  0.00  0.00    +0.059 A 
ATOM     19  C   UNL     1      -2.871   0.434   1.461  0.00  0.00    +0.025 A 
ATOM     20  C   UNL     1      -3.861  -0.376   2.009  0.00  0.00    +0.002 A 
ATOM     21  C   UNL     1      -3.592  -1.208   3.053  0.00  0.00    +0.008 A 
ATOM     22  C   UNL     1      -2.296  -1.257   3.595  0.00  0.00    -0.016 A 
ATOM     23  C   UNL     1      -1.278  -0.441   3.042  0.00  0.00    +0.005 A 
ATOM     24  C   UNL     1       0.014  -0.487   3.588  0.00  0.00    +0.010 A 
ATOM     25  C   UNL     1       0.276  -1.321   4.633  0.00  0.00    +0.001 A 
ATOM     26  C   UNL     1      -0.724  -2.127   5.173  0.00  0.00    +0.001 A 
ATOM     27  C   UNL     1      -1.989  -2.105   4.673  0.00  0.00    +0.008 A 
ENDBRANCH  17  18
BRANCH  17  29
ATOM     28  C   UNL     1      -1.484   3.835   1.272  0.00  0.00    +0.218 C 
ATOM     29  S   UNL     1      -0.294   2.719   2.065  0.00  0.00    +0.043 S 
ATOM     30  O   UNL     1      -0.600   2.578   3.446  0.00  0.00    -0.155 OA
ATOM     31  O   UNL     1       1.027   3.033   1.645  0.00  0.00    -0.155 OA
ENDBRANCH  17  29
ENDBRANCH   1  17
TORSDOF 7
