REMARK  Name = ZINC08827501
REMARK  8 active torsions:
REMARK  status: ('A' for Active; 'I' for Inactive)
REMARK    1  A    between atoms: C_1  and  C_2
REMARK    2  A    between atoms: C_2  and  N_65
REMARK    3  A    between atoms: N_5  and  C_8
REMARK    4  A    between atoms: C_9  and  C_20
REMARK    5  A    between atoms: C_14  and  C_19
REMARK    6  A    between atoms: N_24  and  C_28
REMARK    7  A    between atoms: C_28  and  C_30
REMARK    8  A    between atoms: C_28  and  C_31
REMARK                            x       y       z     vdW  Elec       q    Type
REMARK                         _______ _______ _______ _____ _____    ______ ____
ROOT
ATOM      1  C   UNL     1      -2.410   8.504   0.513  0.00  0.00    +0.136 A 
ATOM      2  C   UNL     1      -2.298   7.095   0.444  0.00  0.00    +0.081 A 
ATOM      3  C   UNL     1      -3.448   6.316   0.717  0.00  0.00    +0.267 A 
ATOM      4  O   UNL     1      -3.397   5.099   0.673  0.00  0.00    -0.267 OA
ATOM      5  N   UNL     1      -4.603   6.944   1.026  0.00  0.00    -0.267 N 
ATOM      6  C   UNL     1      -5.715   6.201   1.290  0.00  0.00    +0.099 A 
ATOM      7  C   UNL     1      -6.887   6.798   1.603  0.00  0.00    -0.034 A 
ATOM      8  C   UNL     1      -6.972   8.196   1.659  0.00  0.00    +0.008 A 
ATOM      9  C   UNL     1      -5.865   8.947   1.396  0.00  0.00    +0.047 A 
ATOM     10  C   UNL     1      -4.654   8.309   1.073  0.00  0.00    +0.142 A 
ATOM     11  N   UNL     1      -3.576   9.052   0.819  0.00  0.00    -0.214 NA
ATOM     12  C   UNL     1      -8.105   5.959   1.892  0.00  0.00    +0.045 C 
ENDROOT
BRANCH   2  13
ATOM     13  C   UNL     1      -1.067   6.481   0.115  0.00  0.00    +0.037 C 
ATOM     14  C   UNL     1      -0.434   6.801  -1.051  0.00  0.00    +0.077 C 
ATOM     15  C   UNL     1       0.846   6.398  -1.527  0.00  0.00    +0.259 C 
ATOM     16  O   UNL     1       1.556   5.659  -0.867  0.00  0.00    -0.269 OA
ATOM     17  N   UNL     1       1.243   6.848  -2.704  0.00  0.00    -0.248 N 
ATOM     18  C   UNL     1       0.455   7.668  -3.436  0.00  0.00    +0.121 C 
ATOM     19  S   UNL     1       0.762   8.364  -4.970  0.00  0.00    -0.027 S 
ATOM     20  S   UNL     1      -0.984   7.846  -2.393  0.00  0.00    -0.061 S 
BRANCH  17  21
ATOM     21  C   UNL     1       2.554   6.453  -3.224  0.00  0.00    +0.110 C 
ATOM     22  C   UNL     1       3.331   5.709  -2.136  0.00  0.00    +0.033 C 
BRANCH  21  23
ATOM     23  C   UNL     1       2.371   5.551  -4.417  0.00  0.00    -0.027 A 
ATOM     24  C   UNL     1       1.351   4.619  -4.428  0.00  0.00    +0.005 A 
ATOM     25  C   UNL     1       1.180   3.794  -5.525  0.00  0.00    +0.000 A 
ATOM     26  C   UNL     1       2.036   3.895  -6.605  0.00  0.00    +0.000 A 
ATOM     27  C   UNL     1       3.060   4.824  -6.591  0.00  0.00    +0.000 A 
ATOM     28  C   UNL     1       3.228   5.652  -5.497  0.00  0.00    +0.005 A 
ENDBRANCH  21  23
ENDBRANCH  17  21
ENDBRANCH   2  13
BRANCH   1  31
ATOM     29  C   UNL     1      -0.469  11.557  -0.168  0.00  0.00    -0.060 C 
ATOM     30  C   UNL     1      -1.697  10.717   0.192  0.00  0.00    +0.088 C 
ATOM     31  N   UNL     1      -1.314   9.300   0.261  0.00  0.00    -0.318 N 
ATOM     32  C   UNL     1      -0.266   9.088   1.269  0.00  0.00    +0.088 C 
ATOM     33  C   UNL     1       0.961   9.929   0.910  0.00  0.00    -0.060 C 
ATOM     34  N   UNL     1       0.568  11.353   0.866  0.00  0.00    +0.382 N 
ATOM     35  H   UNL     1       0.185  11.622   1.780  0.00  0.00    -0.082 HD
BRANCH  34  37
ATOM     36  C   UNL     1       2.704  12.137   1.764  0.00  0.00    -0.017 C 
ATOM     37  C   UNL     1       1.747  12.195   0.572  0.00  0.00    -0.082 C 
ENDBRANCH  34  37
ENDBRANCH   1  31
TORSDOF 5
