REMARK  Name = ZINC40035970
REMARK  12 active torsions:
REMARK  status: ('A' for Active; 'I' for Inactive)
REMARK    1  A    between atoms: C_1  and  C_2
REMARK    2  A    between atoms: C_2  and  C_3
REMARK    3  A    between atoms: C_3  and  C_4
REMARK    4  A    between atoms: C_4  and  C_39
REMARK    5  A    between atoms: N_16  and  C_30
REMARK    6  A    between atoms: N_19  and  N_20
REMARK    7  A    between atoms: C_21  and  C_22
REMARK    8  A    between atoms: C_27  and  O_28
REMARK    9  A    between atoms: O_28  and  C_29
REMARK   10  A    between atoms: C_33  and  O_36
REMARK   11  A    between atoms: O_36  and  C_37
REMARK   12  A    between atoms: C_37  and  C_38
REMARK                            x       y       z     vdW  Elec       q    Type
REMARK                         _______ _______ _______ _____ _____    ______ ____
ROOT
ATOM      1  C   UNL     1      -1.209  -1.154  -0.803  0.00  0.00    +0.004 C 
ATOM      2  C   UNL     1      -2.699  -1.163  -0.474  0.00  0.00    +0.047 C 
ATOM      3  C   UNL     1      -3.514  -1.408  -1.716  0.00  0.00    -0.037 A 
ATOM      4  C   UNL     1      -4.735  -0.788  -1.884  0.00  0.00    +0.004 A 
ATOM      5  C   UNL     1      -5.479  -1.021  -3.027  0.00  0.00    +0.000 A 
ATOM      6  C   UNL     1      -5.007  -1.876  -4.008  0.00  0.00    +0.001 A 
ATOM      7  C   UNL     1      -3.786  -2.501  -3.852  0.00  0.00    +0.010 A 
ATOM      8  C   UNL     1      -3.034  -2.267  -2.705  0.00  0.00    +0.004 A 
ATOM      9  C   UNL     1      -1.716  -2.915  -2.514  0.00  0.00    +0.084 A 
ATOM     10  C   UNL     1      -0.833  -2.379  -1.589  0.00  0.00    +0.050 A 
ATOM     11  C   UNL     1       0.410  -2.998  -1.403  0.00  0.00    +0.264 A 
ATOM     12  O   UNL     1       1.212  -2.556  -0.597  0.00  0.00    -0.267 OA
ATOM     13  N   UNL     1       0.702  -4.094  -2.136  0.00  0.00    -0.248 N 
ATOM     14  C   UNL     1      -0.201  -4.578  -3.037  0.00  0.00    +0.223 A 
ATOM     15  N   UNL     1      -1.372  -4.001  -3.215  0.00  0.00    -0.214 NA
ATOM     16  N   UNL     1       0.117  -5.690  -3.773  0.00  0.00    -0.206 N 
ATOM     17  C   UNL     1      -0.406  -1.124   0.499  0.00  0.00    +0.017 C 
ATOM     18  H   UNL     1       1.004  -6.078  -3.707  0.00  0.00    +0.177 HD
ENDROOT
BRANCH  13  19
ATOM     19  C   UNL     1       1.936  -4.737  -1.970  0.00  0.00    +0.053 A 
ATOM     20  C   UNL     1       2.048  -5.810  -1.096  0.00  0.00    +0.030 A 
ATOM     21  C   UNL     1       3.264  -6.443  -0.933  0.00  0.00    +0.047 A 
ATOM     22  C   UNL     1       4.374  -6.007  -1.642  0.00  0.00    +0.121 A 
ATOM     23  C   UNL     1       4.263  -4.935  -2.516  0.00  0.00    +0.047 A 
ATOM     24  C   UNL     1       3.046  -4.305  -2.684  0.00  0.00    +0.030 A 
BRANCH  22  25
ATOM     25  O   UNL     1       5.571  -6.631  -1.481  0.00  0.00    -0.492 OA
BRANCH  25  26
ATOM     26  C   UNL     1       6.672  -6.130  -2.243  0.00  0.00    +0.225 C 
ATOM     27  C   UNL     1       7.924  -6.951  -1.930  0.00  0.00    +0.048 C 
ENDBRANCH  25  26
ENDBRANCH  22  25
ENDBRANCH  13  19
BRANCH  16  28
ATOM     28  N   UNL     1      -0.838  -6.265  -4.622  0.00  0.00    -0.187 NA
ATOM     29  C   UNL     1      -0.536  -7.317  -5.319  0.00  0.00    +0.142 C 
BRANCH  29  30
ATOM     30  C   UNL     1      -1.541  -7.922  -6.212  0.00  0.00    +0.036 A 
ATOM     31  C   UNL     1      -1.223  -9.058  -6.960  0.00  0.00    +0.013 A 
ATOM     32  C   UNL     1      -2.168  -9.620  -7.793  0.00  0.00    +0.001 A 
ATOM     33  C   UNL     1      -3.431  -9.062  -7.891  0.00  0.00    +0.004 A 
ATOM     34  C   UNL     1      -3.758  -7.938  -7.156  0.00  0.00    +0.046 A 
ATOM     35  C   UNL     1      -2.823  -7.365  -6.311  0.00  0.00    +0.129 A 
BRANCH  35  36
ATOM     36  O   UNL     1      -3.146  -6.263  -5.584  0.00  0.00    -0.494 OA
ATOM     37  C   UNL     1      -4.471  -5.751  -5.736  0.00  0.00    +0.277 C 
ENDBRANCH  35  36
ENDBRANCH  29  30
ENDBRANCH  16  28
BRANCH   1  38
ATOM     38  C   UNL     1      -0.882   0.093  -1.626  0.00  0.00    +0.011 C 
BRANCH  38  40
ATOM     39  C   UNL     1       0.944   1.370  -2.758  0.00  0.00    +0.004 C 
ATOM     40  C   UNL     1       0.617   0.122  -1.935  0.00  0.00    -0.003 C 
ENDBRANCH  38  40
ENDBRANCH   1  38
TORSDOF 8
