REMARK  Name = ZINC37905077
REMARK  8 active torsions:
REMARK  status: ('A' for Active; 'I' for Inactive)
REMARK    1  A    between atoms: C_1  and  C_2
REMARK    2  A    between atoms: C_5  and  N_10
REMARK    3  A    between atoms: C_6  and  C_9
REMARK    4  A    between atoms: C_7  and  N_8
REMARK    5  A    between atoms: N_10  and  S_11
REMARK    6  A    between atoms: S_11  and  N_14
REMARK    7  A    between atoms: C_16  and  C_23
REMARK    8  A    between atoms: C_19  and  C_22
REMARK                            x       y       z     vdW  Elec       q    Type
REMARK                         _______ _______ _______ _____ _____    ______ ____
ROOT
ATOM      1  N   UNL     1       0.058  -4.172  -0.027  0.00  0.00    -0.206 N 
ATOM      2  H   UNL     1      -0.472  -4.660   0.622  0.00  0.00    +0.175 HD
ENDROOT
BRANCH   1   7
ATOM      3  C   UNL     1       0.688   1.448   0.453  0.00  0.00    +0.045 C 
ATOM      4  C   UNL     1       0.521  -0.044   0.327  0.00  0.00    -0.029 A 
ATOM      5  C   UNL     1       0.434  -0.626  -0.923  0.00  0.00    +0.007 A 
ATOM      6  C   UNL     1       0.281  -1.994  -1.043  0.00  0.00    +0.025 A 
ATOM      7  C   UNL     1       0.213  -2.789   0.095  0.00  0.00    +0.054 A 
ATOM      8  C   UNL     1       0.300  -2.208   1.352  0.00  0.00    -0.007 A 
ATOM      9  C   UNL     1       0.459  -0.835   1.469  0.00  0.00    +0.032 A 
ATOM     10  C   UNL     1       0.227  -3.068   2.588  0.00  0.00    +0.047 C 
BRANCH   9  11
ATOM     11  N   UNL     1       0.552  -0.247   2.732  0.00  0.00    -0.358 N 
ATOM     12  H   UNL     1       0.660   0.714   2.813  0.00  0.00    +0.142 HD
ATOM     13  H   UNL     1       0.510  -0.799   3.528  0.00  0.00    +0.142 HD
ENDBRANCH   9  11
ENDBRANCH   1   7
BRANCH   1  14
ATOM     14  S   UNL     1       0.780  -4.979  -1.280  0.00  0.00    +0.112 S 
ATOM     15  O   UNL     1       0.556  -6.364  -1.054  0.00  0.00    -0.138 OA
ATOM     16  O   UNL     1       0.369  -4.326  -2.474  0.00  0.00    -0.138 OA
BRANCH  14  17
ATOM     17  N   UNL     1       2.412  -4.735  -1.145  0.00  0.00    -0.159 NA
ATOM     18  C   UNL     1       3.063  -3.587  -1.796  0.00  0.00    +0.142 C 
ATOM     19  C   UNL     1       3.925  -2.865  -0.755  0.00  0.00    +0.131 C 
ATOM     20  O   UNL     1       4.790  -3.810  -0.122  0.00  0.00    -0.371 OA
ATOM     21  C   UNL     1       4.106  -4.835   0.604  0.00  0.00    +0.131 C 
ATOM     22  C   UNL     1       3.253  -5.655  -0.363  0.00  0.00    +0.142 C 
ATOM     23  C   UNL     1       3.204  -4.197   1.662  0.00  0.00    +0.039 C 
ATOM     24  C   UNL     1       4.762  -1.786  -1.444  0.00  0.00    +0.039 C 
ENDBRANCH  14  17
ENDBRANCH   1  14
TORSDOF 4
