REMARK  Name = ZINC22320567
REMARK  11 active torsions:
REMARK  status: ('A' for Active; 'I' for Inactive)
REMARK    1  A    between atoms: C_1  and  C_2
REMARK    2  A    between atoms: C_5  and  S_8
REMARK    3  A    between atoms: S_8  and  N_11
REMARK    4  A    between atoms: N_11  and  C_12
REMARK    5  A    between atoms: N_11  and  C_27
REMARK    6  A    between atoms: C_12  and  C_13
REMARK    7  A    between atoms: N_15  and  C_16
REMARK    8  A    between atoms: C_16  and  C_18
REMARK    9  A    between atoms: C_16  and  C_19
REMARK   10  A    between atoms: C_21  and  C_26
REMARK   11  A    between atoms: C_24  and  C_25
REMARK                            x       y       z     vdW  Elec       q    Type
REMARK                         _______ _______ _______ _____ _____    ______ ____
ROOT
ATOM      1  N   UNL     1       1.110  -2.368   0.011  0.00  0.00    -0.194 N 
ENDROOT
BRANCH   1   2
ATOM      2  C   UNL     1       0.922  -1.008   0.272  0.00  0.00    +0.052 A 
ATOM      3  C   UNL     1      -0.362  -0.493   0.395  0.00  0.00    +0.026 A 
ATOM      4  C   UNL     1      -0.544   0.851   0.652  0.00  0.00    +0.022 A 
ATOM      5  C   UNL     1       0.551   1.686   0.786  0.00  0.00    +0.041 A 
ATOM      6  C   UNL     1       1.832   1.177   0.663  0.00  0.00    +0.022 A 
ATOM      7  C   UNL     1       2.020  -0.167   0.407  0.00  0.00    +0.026 A 
ATOM      8 CL   UNL     1       0.318   3.376   1.109  0.00  0.00    -0.084 Cl
ENDBRANCH   1   2
BRANCH   1   9
ATOM      9  S   UNL     1       2.485  -2.882  -0.755  0.00  0.00    +0.075 S 
ATOM     10  O   UNL     1       2.160  -4.111  -1.390  0.00  0.00    -0.150 OA
ATOM     11  O   UNL     1       2.993  -1.765  -1.472  0.00  0.00    -0.150 OA
BRANCH   9  16
ATOM     12  C   UNL     1       6.537  -4.171   3.526  0.00  0.00    +0.044 C 
ATOM     13  C   UNL     1       5.526  -3.849   2.456  0.00  0.00    -0.050 A 
ATOM     14  C   UNL     1       4.573  -4.786   2.102  0.00  0.00    +0.005 A 
ATOM     15  C   UNL     1       3.645  -4.491   1.121  0.00  0.00    +0.029 A 
ATOM     16  C   UNL     1       3.668  -3.259   0.495  0.00  0.00    +0.109 A 
ATOM     17  C   UNL     1       4.624  -2.323   0.847  0.00  0.00    +0.029 A 
ATOM     18  C   UNL     1       5.549  -2.617   1.831  0.00  0.00    +0.005 A 
ENDBRANCH   9  16
ENDBRANCH   1   9
BRANCH   1  19
ATOM     19  C   UNL     1       0.090  -3.338   0.417  0.00  0.00    +0.227 C 
BRANCH  19  20
ATOM     20  C   UNL     1      -0.970  -3.428  -0.651  0.00  0.00    +0.233 C 
ATOM     21  O   UNL     1      -0.882  -2.748  -1.651  0.00  0.00    -0.274 OA
ATOM     22  N   UNL     1      -2.015  -4.264  -0.493  0.00  0.00    -0.307 N 
ATOM     23  H   UNL     1      -2.095  -4.881   0.414  0.00  0.00    +0.149 HD
BRANCH  22  24
ATOM     24  C   UNL     1      -3.046  -4.351  -1.531  0.00  0.00    +0.100 C 
ATOM     25  C   UNL     1      -4.083  -3.248  -1.313  0.00  0.00    +0.033 C 
BRANCH  24  26
ATOM     26  C   UNL     1      -3.720  -5.697  -1.457  0.00  0.00    -0.024 A 
ATOM     27  C   UNL     1      -3.733  -6.400  -0.266  0.00  0.00    +0.009 A 
ATOM     28  C   UNL     1      -4.351  -7.634  -0.198  0.00  0.00    -0.050 A 
ATOM     29  C   UNL     1      -4.958  -8.165  -1.321  0.00  0.00    +0.003 A 
ATOM     30  C   UNL     1      -4.947  -7.463  -2.511  0.00  0.00    +0.004 A 
ATOM     31  C   UNL     1      -4.331  -6.226  -2.578  0.00  0.00    -0.046 A 
ATOM     32  C   UNL     1      -4.323  -5.458  -3.874  0.00  0.00    +0.044 C 
ATOM     33  C   UNL     1      -4.364  -8.400   1.099  0.00  0.00    +0.044 C 
ENDBRANCH  24  26
ENDBRANCH  22  24
ENDBRANCH  19  20
ENDBRANCH   1  19
TORSDOF 7
