REMARK  Name = ZINC01283730
REMARK  5 active torsions:
REMARK  status: ('A' for Active; 'I' for Inactive)
REMARK    1  A    between atoms: C_5  and  C_7
REMARK    2  A    between atoms: C_7  and  S_8
REMARK    3  A    between atoms: S_8  and  C_9
REMARK    4  A    between atoms: C_14  and  C_24
REMARK    5  A    between atoms: C_28  and  O_30
REMARK                            x       y       z     vdW  Elec       q    Type
REMARK                         _______ _______ _______ _____ _____    ______ ____
ROOT
ATOM      1  C   UNL     1       1.276  -4.553   1.507  0.00  0.00    +0.211 A 
ATOM      2  N   UNL     1       1.279  -5.217   0.342  0.00  0.00    -0.187 NA
ATOM      3  C   UNL     1       1.300  -6.502   0.573  0.00  0.00    +0.219 A 
ATOM      4  N   UNL     1       1.305  -6.689   1.915  0.00  0.00    -0.220 N 
ATOM      5  N   UNL     1       1.298  -5.421   2.495  0.00  0.00    -0.141 NA
ATOM      6  C   UNL     1       1.317  -8.005   2.541  0.00  0.00    +0.176 C 
ATOM      7  C   UNL     1       1.665  -9.062   1.517  0.00  0.00    +0.041 C 
ATOM      8  C   UNL     1       1.641  -8.812   0.190  0.00  0.00    +0.020 C 
ATOM      9  N   UNL     1       1.317  -7.572  -0.307  0.00  0.00    -0.287 N 
ATOM     10  C   UNL     1       1.970  -9.895  -0.810  0.00  0.00    +0.052 C 
ATOM     11  C   UNL     1       2.994 -10.858  -0.206  0.00  0.00    +0.014 C 
ATOM     12  C   UNL     1       2.400 -11.453   1.075  0.00  0.00    +0.080 C 
ATOM     13  C   UNL     1       2.022 -10.333   2.004  0.00  0.00    +0.163 C 
ATOM     14  O   UNL     1       2.024 -10.530   3.203  0.00  0.00    -0.292 OA
ATOM     15  H   UNL     1       1.106  -7.450  -1.246  0.00  0.00    +0.155 HD
ENDROOT
BRANCH   6  16
ATOM     16  C   UNL     1      -0.045  -8.298   3.116  0.00  0.00    -0.015 A 
ATOM     17  C   UNL     1      -1.151  -8.336   2.287  0.00  0.00    +0.007 A 
ATOM     18  C   UNL     1      -2.402  -8.604   2.811  0.00  0.00    +0.019 A 
ATOM     19  C   UNL     1      -2.550  -8.836   4.166  0.00  0.00    +0.059 A 
ATOM     20  C   UNL     1      -1.441  -8.799   5.000  0.00  0.00    +0.131 A 
ATOM     21  C   UNL     1      -0.186  -8.534   4.470  0.00  0.00    +0.052 A 
ATOM     22 BR   UNL     1      -4.261  -9.202   4.882  0.00  0.00    -0.047 Br
BRANCH  20  23
ATOM     23  O   UNL     1      -1.583  -9.025   6.332  0.00  0.00    -0.506 OA
ATOM     24  H   UNL     1      -1.496  -9.954   6.585  0.00  0.00    +0.292 HD
ENDBRANCH  20  23
ENDBRANCH   6  16
BRANCH   1  25
ATOM     25  S   UNL     1       1.254  -2.800   1.685  0.00  0.00    -0.080 S 
BRANCH  25  26
ATOM     26  C   UNL     1       1.229  -2.186  -0.022  0.00  0.00    +0.114 C 
BRANCH  26  31
ATOM     27  C   UNL     1      -0.017   1.378   0.010  0.00  0.00    +0.000 A 
ATOM     28  C   UNL     1       1.171   2.086   0.002  0.00  0.00    +0.001 A 
ATOM     29  C   UNL     1       2.377   1.412  -0.013  0.00  0.00    +0.020 A 
ATOM     30  C   UNL     1       2.397   0.029  -0.021  0.00  0.00    +0.045 A 
ATOM     31  C   UNL     1       1.208  -0.679  -0.013  0.00  0.00    -0.019 A 
ATOM     32  C   UNL     1       0.002  -0.004   0.002  0.00  0.00    +0.006 A 
ATOM     33 CL   UNL     1       3.912  -0.818  -0.041  0.00  0.00    -0.083 Cl
ENDBRANCH  26  31
ENDBRANCH  25  26
ENDBRANCH   1  25
TORSDOF 5
