REMARK  Name = ZINC37624573
REMARK  5 active torsions:
REMARK  status: ('A' for Active; 'I' for Inactive)
REMARK    1  A    between atoms: C_1  and  C_2
REMARK    2  A    between atoms: C_2  and  C_3
REMARK    3  A    between atoms: C_4  and  C_15
REMARK    4  A    between atoms: CA_5  and  C_12
REMARK    5  A    between atoms: CA_8  and  C_9
REMARK                            x       y       z     vdW  Elec       q    Type
REMARK                         _______ _______ _______ _____ _____    ______ ____
ROOT
ATOM      1  C   UNL     1       0.731  -0.503   1.223  0.00  0.00    -0.012 A 
ATOM      2  C   UNL     1       2.098  -0.755   1.322  0.00  0.00    -0.015 A 
ATOM      3  CA  UNL     1       2.346  -1.196   2.607  0.00  0.00    +0.132 A 
ATOM      4  N   UNL     1       1.161  -1.218   3.287  0.00  0.00    -0.343 N 
ATOM      5  H   UNL     1       1.044  -1.488   4.211  0.00  0.00    +0.166 HD
ATOM      6  CA  UNL     1       0.168  -0.790   2.451  0.00  0.00    +0.133 A 
ATOM      7  C   UNL     1       3.119  -0.578   0.227  0.00  0.00    +0.046 C 
ENDROOT
BRANCH   6   8
ATOM      8  C   UNL     1      -1.256  -0.660   2.798  0.00  0.00    +0.403 C 
ATOM      9  O   UNL     1      -1.639  -0.945   3.924  0.00  0.00    -0.239 OA
ATOM     10  OXT UNL     1      -2.057  -0.268   1.960  0.00  0.00    -0.239 OA
ENDBRANCH   6   8
BRANCH   3  11
ATOM     11  C   UNL     1       3.659  -1.578   3.149  0.00  0.00    +0.403 C 
ATOM     12  O   UNL     1       3.755  -1.956   4.309  0.00  0.00    -0.239 OA
ATOM     13  OXT UNL     1       4.655  -1.518   2.441  0.00  0.00    -0.239 OA
ENDBRANCH   3  11
BRANCH   1  15
ATOM     14  C   UNL     1      -0.019   1.526   0.010  0.00  0.00    +0.009 C 
ATOM     15  C   UNL     1       0.002  -0.004   0.002  0.00  0.00    +0.034 C 
ENDBRANCH   1  15
TORSDOF 3
