REMARK  Name = ZINC00814141
REMARK  11 active torsions:
REMARK  status: ('A' for Active; 'I' for Inactive)
REMARK    1  A    between atoms: C_1  and  C_2
REMARK    2  A    between atoms: C_2  and  O_3
REMARK    3  A    between atoms: O_3  and  C_4
REMARK    4  A    between atoms: C_6  and  C_15
REMARK    5  A    between atoms: C_9  and  O_10
REMARK    6  A    between atoms: O_10  and  C_11
REMARK    7  A    between atoms: C_11  and  C_12
REMARK    8  A    between atoms: C_18  and  C_34
REMARK    9  A    between atoms: N_20  and  C_28
REMARK   10  A    between atoms: C_23  and  N_27
REMARK   11  A    between atoms: C_24  and  C_25
REMARK                            x       y       z     vdW  Elec       q    Type
REMARK                         _______ _______ _______ _____ _____    ______ ____
ROOT
ATOM      1  C   UNL     1       5.888   0.664  -0.959  0.00  0.00    +0.101 C 
ATOM      2  C   UNL     1       4.489   0.557  -0.409  0.00  0.00    +0.050 A 
ATOM      3  C   UNL     1       3.931  -0.433   0.388  0.00  0.00    +0.068 A 
ATOM      4  N   UNL     1       2.683  -0.109   0.633  0.00  0.00    -0.168 NA
ATOM      5  N   UNL     1       2.404   1.105  -0.014  0.00  0.00    -0.200 N 
ATOM      6  C   UNL     1       3.529   1.501  -0.648  0.00  0.00    +0.230 A 
ATOM      7  O   UNL     1       3.758   2.604  -1.402  0.00  0.00    -0.423 OA
ATOM      8  C   UNL     1       4.881   2.629  -2.147  0.00  0.00    +0.200 C 
ATOM      9  C   UNL     1       5.904   1.760  -1.996  0.00  0.00    +0.098 C 
ATOM     10  C   UNL     1       4.638  -1.666   0.890  0.00  0.00    +0.068 C 
ENDROOT
BRANCH   1  13
ATOM     11  C   UNL     1       8.787   0.464   1.456  0.00  0.00    +0.162 A 
ATOM     12  C   UNL     1       7.901   0.152   0.437  0.00  0.00    +0.054 A 
ATOM     13  C   UNL     1       6.848   1.002   0.153  0.00  0.00    -0.031 A 
ATOM     14  C   UNL     1       6.670   2.158   0.890  0.00  0.00    +0.008 A 
ATOM     15  C   UNL     1       7.547   2.472   1.911  0.00  0.00    +0.050 A 
ATOM     16  C   UNL     1       8.608   1.628   2.198  0.00  0.00    +0.163 A 
BRANCH  11  17
ATOM     17  O   UNL     1       9.826  -0.368   1.734  0.00  0.00    -0.489 OA
BRANCH  17  19
ATOM     18  C   UNL     1      11.165  -2.350   1.389  0.00  0.00    +0.048 C 
ATOM     19  C   UNL     1       9.947  -1.544   0.932  0.00  0.00    +0.226 C 
ENDBRANCH  17  19
ENDBRANCH  11  17
BRANCH  16  20
ATOM     20  O   UNL     1       9.472   1.935   3.202  0.00  0.00    -0.479 OA
BRANCH  20  21
ATOM     21  C   UNL     1       9.226   3.146   3.921  0.00  0.00    +0.324 C 
BRANCH  21  22
ATOM     22  C   UNL     1      10.277   3.319   4.987  0.00  0.00    +0.248 C 
ATOM     23  O   UNL     1      11.150   2.487   5.118  0.00  0.00    -0.272 OA
ATOM     24  N   UNL     1      10.246   4.397   5.795  0.00  0.00    -0.327 N 
ATOM     25  H   UNL     1       9.548   5.062   5.690  0.00  0.00    +0.145 HD
ATOM     26  H   UNL     1      10.923   4.508   6.481  0.00  0.00    +0.145 HD
ENDBRANCH  21  22
ENDBRANCH  20  21
ENDBRANCH  16  20
ENDBRANCH   1  13
BRANCH   5  27
ATOM     27  C   UNL     1       1.180   1.787   0.000  0.00  0.00    +0.069 A 
ATOM     28  C   UNL     1      -0.013   1.076   0.008  0.00  0.00    +0.028 A 
ATOM     29  C   UNL     1      -1.218   1.751   0.017  0.00  0.00    +0.002 A 
ATOM     30  C   UNL     1      -1.237   3.133   0.030  0.00  0.00    +0.000 A 
ATOM     31  C   UNL     1      -0.051   3.845   0.022  0.00  0.00    +0.002 A 
ATOM     32  C   UNL     1       1.157   3.175   0.008  0.00  0.00    +0.028 A 
ENDBRANCH   5  27
BRANCH   8  33
ATOM     33  N   UNL     1       4.992   3.595  -3.117  0.00  0.00    -0.328 N 
ATOM     34  H   UNL     1       4.275   4.234  -3.249  0.00  0.00    +0.145 HD
ATOM     35  H   UNL     1       5.789   3.638  -3.669  0.00  0.00    +0.145 HD
ENDBRANCH   8  33
BRANCH   9  36
ATOM     36  C   UNL     1       7.047   1.883  -2.851  0.00  0.00    +0.101 C 
ATOM     37  N   UNL     1       7.953   1.980  -3.529  0.00  0.00    -0.191 NA
ENDBRANCH   9  36
TORSDOF 9
