REMARK  Name = ZINC09861160
REMARK  9 active torsions:
REMARK  status: ('A' for Active; 'I' for Inactive)
REMARK    1  A    between atoms: C_1  and  C_2
REMARK    2  A    between atoms: C_2  and  N_3
REMARK    3  A    between atoms: N_3  and  C_4
REMARK    4  A    between atoms: N_3  and  C_6
REMARK    5  A    between atoms: C_4  and  C_5
REMARK    6  A    between atoms: C_9  and  C_12
REMARK    7  A    between atoms: C_22  and  C_34
REMARK    8  A    between atoms: C_23  and  C_24
REMARK    9  A    between atoms: C_29  and  C_33
REMARK                            x       y       z     vdW  Elec       q    Type
REMARK                         _______ _______ _______ _____ _____    ______ ____
ROOT
ATOM      1  C   UNL     1      -3.982  -1.520   4.940  0.00  0.00    +0.090 C 
ATOM      2  C   UNL     1      -4.053  -0.239   5.732  0.00  0.00    +0.024 C 
ATOM      3  C   UNL     1      -3.207  -0.015   6.760  0.00  0.00    +0.015 C 
ATOM      4  C   UNL     1      -3.264   1.270   7.548  0.00  0.00    +0.051 C 
ATOM      5  C   UNL     1      -4.701   1.795   7.571  0.00  0.00    +0.014 C 
ATOM      6  C   UNL     1      -5.164   2.006   6.125  0.00  0.00    +0.080 C 
ATOM      7  C   UNL     1      -5.024   0.712   5.372  0.00  0.00    +0.162 C 
ATOM      8  O   UNL     1      -5.764   0.483   4.436  0.00  0.00    -0.292 OA
ATOM      9  N   UNL     1      -2.276  -0.956   7.110  0.00  0.00    -0.321 N 
ATOM     10  C   UNL     1      -2.420  -2.259   6.719  0.00  0.00    +0.014 C 
ATOM     11  C   UNL     1      -3.226  -2.576   5.692  0.00  0.00    +0.043 C 
ATOM     12  C   UNL     1      -1.670  -3.346   7.446  0.00  0.00    +0.061 C 
ATOM     13  H   UNL     1      -1.402  -0.667   7.712  0.00  0.00    +0.152 HD
ENDROOT
BRANCH  11  14
ATOM     14  C   UNL     1      -3.364  -3.933   5.311  0.00  0.00    +0.248 C 
ATOM     15  O   UNL     1      -2.756  -4.800   5.913  0.00  0.00    -0.270 OA
ATOM     16  N   UNL     1      -4.169  -4.266   4.283  0.00  0.00    -0.267 N 
ATOM     17  C   UNL     1      -4.223  -5.585   3.840  0.00  0.00    +0.125 A 
ATOM     18  C   UNL     1      -4.974  -5.904   2.713  0.00  0.00    +0.047 A 
ATOM     19  C   UNL     1      -5.019  -7.218   2.284  0.00  0.00    -0.046 A 
ATOM     20  C   UNL     1      -4.310  -8.173   2.999  0.00  0.00    +0.023 A 
ATOM     21  C   UNL     1      -3.586  -7.787   4.109  0.00  0.00    +0.113 A 
ATOM     22  N   UNL     1      -3.557  -6.524   4.492  0.00  0.00    -0.240 NA
ATOM     23  C   UNL     1      -5.820  -7.604   1.067  0.00  0.00    +0.044 C 
ATOM     24  H   UNL     1      -4.782  -3.496   3.793  0.00  0.00    +0.157 HD
ENDBRANCH  11  14
BRANCH   1  28
ATOM     25  C   UNL     1      -2.014  -0.765   1.222  0.00  0.00    +0.030 A 
ATOM     26  C   UNL     1      -1.349  -0.536   2.421  0.00  0.00    +0.023 A 
ATOM     27  C   UNL     1      -1.990  -0.776   3.620  0.00  0.00    +0.006 A 
ATOM     28  C   UNL     1      -3.288  -1.254   3.630  0.00  0.00    -0.035 A 
ATOM     29  C   UNL     1      -3.950  -1.487   2.438  0.00  0.00    +0.006 A 
ATOM     30  C   UNL     1      -3.317  -1.244   1.235  0.00  0.00    +0.023 A 
BRANCH  25  31
ATOM     31  N   UNL     1      -1.370  -0.518   0.007  0.00  0.00    -0.330 N 
BRANCH  31  33
ATOM     32  C   UNL     1      -0.015   1.517   0.003  0.00  0.00    +0.024 C 
ATOM     33  C   UNL     1       0.005  -0.013  -0.004  0.00  0.00    +0.102 C 
ENDBRANCH  31  33
BRANCH  31  34
ATOM     34  C   UNL     1      -2.070  -0.766  -1.256  0.00  0.00    +0.102 C 
ATOM     35  C   UNL     1      -1.816  -2.205  -1.706  0.00  0.00    +0.024 C 
ENDBRANCH  31  34
ENDBRANCH  25  31
ENDBRANCH   1  28
TORSDOF 5
