REMARK  Name = ZINC05331988
REMARK  5 active torsions:
REMARK  status: ('A' for Active; 'I' for Inactive)
REMARK    1  A    between atoms: C_4  and  C_7
REMARK    2  A    between atoms: C_7  and  C_9
REMARK    3  A    between atoms: C_7  and  O_29
REMARK    4  A    between atoms: C_9  and  N_11
REMARK    5  A    between atoms: C_9  and  N_20
REMARK                            x       y       z     vdW  Elec       q    Type
REMARK                         _______ _______ _______ _____ _____    ______ ____
ROOT
ATOM      1  C   UNL     1       4.060   2.544   1.411  0.00  0.00    +0.241 C 
ENDROOT
BRANCH   1   2
ATOM      2  N   UNL     1       5.319   3.294   1.402  0.00  0.00    -0.322 N 
ATOM      3  C   UNL     1       6.509   2.826   0.914  0.00  0.00    +0.089 A 
ATOM      4  C   UNL     1       7.461   3.762   1.056  0.00  0.00    +0.027 A 
ATOM      5  C   UNL     1       6.829   4.923   1.687  0.00  0.00    -0.000 A 
ATOM      6  C   UNL     1       5.479   4.576   1.877  0.00  0.00    +0.051 A 
ATOM      7  C   UNL     1       4.617   5.492   2.471  0.00  0.00    +0.026 A 
ATOM      8  C   UNL     1       5.090   6.728   2.855  0.00  0.00    +0.002 A 
ATOM      9  C   UNL     1       6.422   7.067   2.660  0.00  0.00    +0.001 A 
ATOM     10  C   UNL     1       7.287   6.181   2.083  0.00  0.00    +0.010 A 
ENDBRANCH   1   2
BRANCH   1  11
ATOM     11  N   UNL     1       4.227   1.319   2.196  0.00  0.00    -0.218 N 
ATOM     12  C   UNL     1       3.525   0.961   3.322  0.00  0.00    +0.091 A 
ATOM     13  C   UNL     1       2.508   1.559   4.057  0.00  0.00    +0.030 A 
ATOM     14  C   UNL     1       2.006   0.929   5.161  0.00  0.00    +0.002 A 
ATOM     15  C   UNL     1       2.505  -0.306   5.558  0.00  0.00    +0.002 A 
ATOM     16  C   UNL     1       3.503  -0.913   4.854  0.00  0.00    +0.032 A 
ATOM     17  C   UNL     1       4.034  -0.288   3.718  0.00  0.00    +0.113 A 
ATOM     18  N   UNL     1       4.999  -0.633   2.842  0.00  0.00    -0.129 NA
ATOM     19  N   UNL     1       5.132   0.276   1.942  0.00  0.00    -0.063 NA
ENDBRANCH   1  11
BRANCH   1  20
ATOM     20  C   UNL     1       3.672   2.182  -0.024  0.00  0.00    +0.189 C 
BRANCH  20  24
ATOM     21  C   UNL     1       0.002  -0.004   0.002  0.00  0.00    +0.000 A 
ATOM     22  C   UNL     1      -0.017   1.378   0.010  0.00  0.00    +0.000 A 
ATOM     23  C   UNL     1       1.171   2.086   0.002  0.00  0.00    +0.006 A 
ATOM     24  C   UNL     1       2.377   1.411  -0.015  0.00  0.00    -0.015 A 
ATOM     25  C   UNL     1       2.396   0.029  -0.022  0.00  0.00    +0.006 A 
ATOM     26  C   UNL     1       1.208  -0.679  -0.013  0.00  0.00    +0.000 A 
ENDBRANCH  20  24
BRANCH  20  27
ATOM     27  O   UNL     1       3.509   3.377  -0.790  0.00  0.00    -0.383 OA
ATOM     28  H   UNL     1       4.304   3.925  -0.839  0.00  0.00    +0.210 HD
ENDBRANCH  20  27
ENDBRANCH   1  20
TORSDOF 5
