REMARK  Name = ZINC00863463
REMARK  12 active torsions:
REMARK  status: ('A' for Active; 'I' for Inactive)
REMARK    1  A    between atoms: C_1  and  C_2
REMARK    2  A    between atoms: C_3  and  C_33
REMARK    3  A    between atoms: C_4  and  C_25
REMARK    4  A    between atoms: C_10  and  C_15
REMARK    5  A    between atoms: C_18  and  O_23
REMARK    6  A    between atoms: C_19  and  O_21
REMARK    7  A    between atoms: O_21  and  C_22
REMARK    8  A    between atoms: O_23  and  C_24
REMARK    9  A    between atoms: C_33  and  O_35
REMARK   10  A    between atoms: O_35  and  C_36
REMARK   11  A    between atoms: C_36  and  C_37
REMARK   12  A    between atoms: C_36  and  C_38
REMARK                            x       y       z     vdW  Elec       q    Type
REMARK                         _______ _______ _______ _____ _____    ______ ____
ROOT
ATOM      1  C   UNL     1      -0.018   1.503   0.010  0.00  0.00    +0.061 C 
ATOM      2  C   UNL     1       0.002  -0.004   0.002  0.00  0.00    +0.016 C 
ATOM      3  C   UNL     1      -1.155  -0.687   0.004  0.00  0.00    +0.065 C 
ATOM      4  C   UNL     1      -1.174  -2.188  -0.012  0.00  0.00    +0.094 C 
ATOM      5  C   UNL     1       0.164  -2.749   0.399  0.00  0.00    +0.024 C 
ATOM      6  C   UNL     1       1.272  -1.979   0.376  0.00  0.00    +0.016 C 
ATOM      7  N   UNL     1       1.198  -0.667  -0.013  0.00  0.00    -0.321 N 
ATOM      8  C   UNL     1       2.616  -2.539   0.768  0.00  0.00    +0.059 C 
ATOM      9  C   UNL     1       2.429  -3.633   1.822  0.00  0.00    +0.032 C 
ATOM     10  C   UNL     1       1.521  -4.720   1.240  0.00  0.00    +0.088 C 
ATOM     11  C   UNL     1       0.224  -4.094   0.806  0.00  0.00    +0.162 C 
ATOM     12  O   UNL     1      -0.791  -4.762   0.808  0.00  0.00    -0.292 OA
ATOM     13  H   UNL     1       2.000  -0.203  -0.298  0.00  0.00    +0.152 HD
ENDROOT
BRANCH   4  14
ATOM     14  C   UNL     1      -1.503  -2.664  -1.404  0.00  0.00    -0.015 A 
ATOM     15  C   UNL     1      -0.679  -2.329  -2.462  0.00  0.00    +0.006 A 
ATOM     16  C   UNL     1      -0.980  -2.765  -3.738  0.00  0.00    +0.002 A 
ATOM     17  C   UNL     1      -2.106  -3.536  -3.959  0.00  0.00    +0.021 A 
ATOM     18  C   UNL     1      -2.931  -3.872  -2.901  0.00  0.00    +0.060 A 
ATOM     19  C   UNL     1      -2.626  -3.441  -1.621  0.00  0.00    +0.063 A 
ATOM     20 CL   UNL     1      -3.658  -3.868  -0.292  0.00  0.00    -0.082 Cl
ATOM     21 CL   UNL     1      -4.345  -4.841  -3.177  0.00  0.00    -0.082 Cl
ENDBRANCH   4  14
BRANCH   9  22
ATOM     22  C   UNL     1       3.768  -4.225   2.181  0.00  0.00    -0.040 A 
ATOM     23  C   UNL     1       4.540  -4.826   1.204  0.00  0.00    +0.008 A 
ATOM     24  C   UNL     1       5.769  -5.370   1.528  0.00  0.00    +0.049 A 
ATOM     25  C   UNL     1       6.230  -5.314   2.833  0.00  0.00    +0.161 A 
ATOM     26  C   UNL     1       5.453  -4.708   3.816  0.00  0.00    +0.162 A 
ATOM     27  C   UNL     1       4.224  -4.160   3.484  0.00  0.00    +0.053 A 
BRANCH  26  28
ATOM     28  O   UNL     1       5.901  -4.650   5.099  0.00  0.00    -0.491 OA
ATOM     29  C   UNL     1       5.050  -4.013   6.055  0.00  0.00    +0.277 C 
ENDBRANCH  26  28
BRANCH  25  30
ATOM     30  O   UNL     1       7.438  -5.849   3.154  0.00  0.00    -0.491 OA
ATOM     31  C   UNL     1       8.180  -6.455   2.094  0.00  0.00    +0.277 C 
ENDBRANCH  25  30
ENDBRANCH   9  22
BRANCH   3  32
ATOM     32  C   UNL     1      -2.380   0.021   0.021  0.00  0.00    +0.338 C 
ATOM     33  O   UNL     1      -2.378   1.238   0.035  0.00  0.00    -0.245 OA
BRANCH  32  34
ATOM     34  O   UNL     1      -3.549  -0.652   0.024  0.00  0.00    -0.459 OA
BRANCH  34  35
ATOM     35  C   UNL     1      -4.746   0.128   0.042  0.00  0.00    +0.171 C 
ATOM     36  C   UNL     1      -5.185   0.422  -1.394  0.00  0.00    +0.052 C 
ATOM     37  C   UNL     1      -5.850  -0.649   0.763  0.00  0.00    +0.052 C 
ENDBRANCH  34  35
ENDBRANCH  32  34
ENDBRANCH   3  32
TORSDOF 7
