REMARK  Name = ZINC14719939
REMARK  18 active torsions:
REMARK  status: ('A' for Active; 'I' for Inactive)
REMARK    1  A    between atoms: C_1  and  C_2
REMARK    2  A    between atoms: C_2  and  C_3
REMARK    3  A    between atoms: C_3  and  C_4
REMARK    4  A    between atoms: C_4  and  N_5
REMARK    5  A    between atoms: N_5  and  C_6
REMARK    6  A    between atoms: C_7  and  N_19
REMARK    7  A    between atoms: N_8  and  C_15
REMARK    8  A    between atoms: C_15  and  C_16
REMARK    9  A    between atoms: C_16  and  C_17
REMARK   10  A    between atoms: C_16  and  C_18
REMARK   11  A    between atoms: C_20  and  C_22
REMARK   12  A    between atoms: C_22  and  C_23
REMARK   13  A    between atoms: C_23  and  N_24
REMARK   14  A    between atoms: C_25  and  C_27
REMARK   15  A    between atoms: C_30  and  C_33
REMARK   16  A    between atoms: C_33  and  C_34
REMARK   17  A    between atoms: C_33  and  C_35
REMARK   18  A    between atoms: C_33  and  C_36
REMARK                            x       y       z     vdW  Elec       q    Type
REMARK                         _______ _______ _______ _____ _____    ______ ____
ROOT
ATOM      1  N   UNL     1      -0.015   1.455   0.001  0.00  0.00    -0.264 N 
ATOM      2  C   UNL     1      -1.254   1.988  -0.007  0.00  0.00    +0.221 C 
ATOM      3  O   UNL     1      -1.398   3.189  -0.105  0.00  0.00    -0.275 OA
ENDROOT
BRANCH   1   4
ATOM      4  C   UNL     1       1.116   2.299   0.004  0.00  0.00    +0.140 A 
ATOM      5  C   UNL     1       1.973   2.328  -1.077  0.00  0.00    +0.127 A 
ATOM      6  N   UNL     1       3.067   3.162  -1.044  0.00  0.00    -0.280 N 
ATOM      7  C   UNL     1       3.298   3.939   0.029  0.00  0.00    +0.331 A 
ATOM      8  O   UNL     1       4.270   4.670   0.039  0.00  0.00    -0.246 OA
ATOM      9  N   UNL     1       2.474   3.924   1.092  0.00  0.00    -0.273 N 
ATOM     10  H   UNL     1       2.672   4.508   1.879  0.00  0.00    +0.173 HD
ATOM     11  C   UNL     1       1.386   3.129   1.108  0.00  0.00    +0.277 A 
ATOM     12  O   UNL     1       0.643   3.126   2.075  0.00  0.00    -0.266 OA
BRANCH   5  13
ATOM     13  N   UNL     1       1.737   1.534  -2.173  0.00  0.00    -0.343 N 
ATOM     14  H   UNL     1       1.006   0.896  -2.162  0.00  0.00    +0.144 HD
ATOM     15  H   UNL     1       2.301   1.611  -2.958  0.00  0.00    +0.144 HD
ENDBRANCH   5  13
BRANCH   6  16
ATOM     16  C   UNL     1       3.985   3.204  -2.185  0.00  0.00    +0.131 C 
BRANCH  16  17
ATOM     17  C   UNL     1       3.519   4.272  -3.176  0.00  0.00    +0.003 C 
ATOM     18  C   UNL     1       3.621   5.652  -2.523  0.00  0.00    +0.009 C 
ATOM     19  C   UNL     1       4.403   4.231  -4.423  0.00  0.00    +0.009 C 
ENDBRANCH  16  17
ENDBRANCH   6  16
ENDBRANCH   1   4
BRANCH   1  20
ATOM     20  C   UNL     1       0.157   0.000   0.001  0.00  0.00    +0.114 C 
BRANCH  20  21
ATOM     21  C   UNL     1       0.331  -0.493   1.438  0.00  0.00    +0.019 C 
BRANCH  21  23
ATOM     22  C   UNL     1       0.684  -2.506   2.876  0.00  0.00    +0.004 C 
ATOM     23  C   UNL     1       0.510  -2.013   1.438  0.00  0.00    -0.002 C 
ENDBRANCH  21  23
ENDBRANCH  20  21
ENDBRANCH   1  20
BRANCH   2  24
ATOM     24  C   UNL     1      -2.461   1.091   0.104  0.00  0.00    +0.115 C 
BRANCH  24  25
ATOM     25  C   UNL     1      -3.732   1.941   0.069  0.00  0.00    +0.113 C 
BRANCH  25  26
ATOM     26  N   UNL     1      -4.905   1.070   0.177  0.00  0.00    -0.311 N 
ATOM     27  C   UNL     1      -6.143   1.602   0.169  0.00  0.00    +0.244 C 
ATOM     28  O   UNL     1      -6.287   2.805   0.072  0.00  0.00    -0.270 OA
ATOM     29  H   UNL     1      -4.790   0.110   0.255  0.00  0.00    +0.149 HD
BRANCH  27  30
ATOM     30  C   UNL     1      -7.327   0.723   0.278  0.00  0.00    +0.037 A 
ATOM     31  C   UNL     1      -7.165  -0.659   0.384  0.00  0.00    +0.013 A 
ATOM     32  C   UNL     1      -8.274  -1.474   0.490  0.00  0.00    +0.005 A 
ATOM     33  C   UNL     1      -9.543  -0.924   0.481  0.00  0.00    -0.042 A 
ATOM     34  C   UNL     1      -9.710   0.445   0.371  0.00  0.00    +0.005 A 
ATOM     35  C   UNL     1      -8.610   1.271   0.270  0.00  0.00    +0.013 A 
BRANCH  33  36
ATOM     36  C   UNL     1     -10.750  -1.821   0.592  0.00  0.00    -0.013 C 
ATOM     37  C   UNL     1     -11.627  -1.652  -0.651  0.00  0.00    +0.015 C 
ATOM     38  C   UNL     1     -10.295  -3.277   0.700  0.00  0.00    +0.015 C 
ATOM     39  C   UNL     1     -11.553  -1.443   1.838  0.00  0.00    +0.015 C 
ENDBRANCH  33  36
ENDBRANCH  27  30
ENDBRANCH  25  26
ENDBRANCH  24  25
ENDBRANCH   2  24
TORSDOF 12
