REMARK  Name = ZINC36549843
REMARK  7 active torsions:
REMARK  status: ('A' for Active; 'I' for Inactive)
REMARK    1  A    between atoms: C_5  and  N_7
REMARK    2  A    between atoms: N_7  and  C_8
REMARK    3  A    between atoms: C_8  and  C_10
REMARK    4  A    between atoms: C_8  and  C_19
REMARK    5  A    between atoms: C_13  and  N_16
REMARK    6  A    between atoms: N_21  and  C_22
REMARK    7  A    between atoms: C_28  and  C_30
REMARK                            x       y       z     vdW  Elec       q    Type
REMARK                         _______ _______ _______ _____ _____    ______ ____
ROOT
ATOM      1  C   UNL     1       1.413  -2.716  -1.092  0.00  0.00    +0.198 C 
ENDROOT
BRANCH   1   2
ATOM      2  C   UNL     1       0.122  -1.939  -1.057  0.00  0.00    -0.018 A 
ATOM      3  C   UNL     1       0.118  -0.623  -0.633  0.00  0.00    +0.008 A 
ATOM      4  C   UNL     1      -1.066   0.089  -0.601  0.00  0.00    +0.033 A 
ATOM      5  C   UNL     1      -2.246  -0.514  -0.993  0.00  0.00    +0.126 A 
ATOM      6  C   UNL     1      -2.243  -1.829  -1.418  0.00  0.00    +0.033 A 
ATOM      7  C   UNL     1      -1.058  -2.540  -1.454  0.00  0.00    +0.008 A 
BRANCH   5   8
ATOM      8  N   UNL     1      -3.514   0.249  -0.957  0.00  0.00    +0.056 N 
ATOM      9  O   UNL     1      -3.517   1.400  -0.585  0.00  0.00    -0.126 OA
ATOM     10  O   UNL     1      -4.547  -0.278  -1.300  0.00  0.00    -0.126 OA
ENDBRANCH   5   8
ENDBRANCH   1   2
BRANCH   1  11
ATOM     11  C   UNL     1       2.352  -2.085  -2.088  0.00  0.00    +0.239 C 
ATOM     12  O   UNL     1       3.233  -1.345  -1.706  0.00  0.00    -0.273 OA
ATOM     13  N   UNL     1       2.212  -2.343  -3.404  0.00  0.00    -0.311 N 
ATOM     14  H   UNL     1       1.506  -2.935  -3.709  0.00  0.00    +0.149 HD
BRANCH  13  15
ATOM     15  C   UNL     1       3.124  -1.730  -4.372  0.00  0.00    +0.073 C 
ATOM     16  C   UNL     1       2.615  -0.335  -4.741  0.00  0.00    +0.022 C 
ATOM     17  C   UNL     1       3.568   0.305  -5.752  0.00  0.00    +0.002 C 
ATOM     18  C   UNL     1       3.635  -0.563  -7.010  0.00  0.00    +0.000 C 
ATOM     19  C   UNL     1       4.145  -1.957  -6.641  0.00  0.00    +0.002 C 
ATOM     20  C   UNL     1       3.192  -2.598  -5.630  0.00  0.00    +0.022 C 
ENDBRANCH  13  15
ENDBRANCH   1  11
BRANCH   1  21
ATOM     21  N   UNL     1       2.028  -2.701   0.237  0.00  0.00    -0.250 N 
ATOM     22  C   UNL     1       3.151  -3.409   0.467  0.00  0.00    +0.252 C 
ATOM     23  O   UNL     1       3.704  -3.988  -0.448  0.00  0.00    -0.270 OA
BRANCH  21  28
ATOM     24  C   UNL     1      -0.276  -1.657   2.906  0.00  0.00    +0.002 A 
ATOM     25  C   UNL     1       0.306  -0.468   3.304  0.00  0.00    +0.002 A 
ATOM     26  C   UNL     1       1.458  -0.017   2.687  0.00  0.00    +0.022 A 
ATOM     27  C   UNL     1       2.032  -0.755   1.669  0.00  0.00    +0.062 A 
ATOM     28  C   UNL     1       1.450  -1.951   1.267  0.00  0.00    +0.056 A 
ATOM     29  C   UNL     1       0.293  -2.400   1.889  0.00  0.00    +0.025 A 
ATOM     30 CL   UNL     1       3.478  -0.188   0.894  0.00  0.00    -0.082 Cl
ENDBRANCH  21  28
BRANCH  22  31
ATOM     31  C   UNL     1       3.712  -3.482   1.832  0.00  0.00    +0.037 A 
ATOM     32  C   UNL     1       2.863  -3.639   2.930  0.00  0.00    +0.016 A 
ATOM     33  C   UNL     1       3.391  -3.706   4.202  0.00  0.00    +0.039 A 
ATOM     34  C   UNL     1       4.762  -3.617   4.391  0.00  0.00    +0.123 A 
ATOM     35  C   UNL     1       5.609  -3.461   3.305  0.00  0.00    +0.039 A 
ATOM     36  C   UNL     1       5.092  -3.399   2.028  0.00  0.00    +0.016 A 
ATOM     37  F   UNL     1       5.274  -3.683   5.640  0.00  0.00    -0.205 F 
ENDBRANCH  22  31
ENDBRANCH   1  21
TORSDOF 7
