REMARK  Name = ZINC59404255
REMARK  13 active torsions:
REMARK  status: ('A' for Active; 'I' for Inactive)
REMARK    1  A    between atoms: C_1  and  C_2
REMARK    2  A    between atoms: C_2  and  C_3
REMARK    3  A    between atoms: C_2  and  C_4
REMARK    4  A    between atoms: C_4  and  C_6
REMARK    5  A    between atoms: C_4  and  N_17
REMARK    6  A    between atoms: C_18  and  C_20
REMARK    7  A    between atoms: C_20  and  N_21
REMARK    8  A    between atoms: C_24  and  N_27
REMARK    9  A    between atoms: C_28  and  O_30
REMARK   10  A    between atoms: O_30  and  C_31
REMARK   11  A    between atoms: C_31  and  C_32
REMARK   12  A    between atoms: C_31  and  C_33
REMARK   13  A    between atoms: C_31  and  C_34
REMARK                            x       y       z     vdW  Elec       q    Type
REMARK                         _______ _______ _______ _____ _____    ______ ____
ROOT
ATOM      1  N   UNL     1      -2.155   0.035   1.154  0.00  0.00    -0.310 N 
ATOM      2  C   UNL     1      -2.067  -0.550   2.366  0.00  0.00    +0.197 C 
ATOM      3  O   UNL     1      -1.391  -1.546   2.511  0.00  0.00    -0.278 OA
ATOM      4  H   UNL     1      -2.696   0.831   1.038  0.00  0.00    +0.149 HD
ENDROOT
BRANCH   1   5
ATOM      5  C   UNL     1      -1.433  -0.534   0.013  0.00  0.00    +0.106 C 
BRANCH   5   6
ATOM      6  C   UNL     1      -2.125  -0.137  -1.266  0.00  0.00    -0.023 A 
ATOM      7  C   UNL     1      -2.628   1.143  -1.409  0.00  0.00    +0.009 A 
ATOM      8  C   UNL     1      -3.263   1.514  -2.581  0.00  0.00    +0.050 A 
ATOM      9  C   UNL     1      -3.393   0.598  -3.611  0.00  0.00    +0.162 A 
ATOM     10  C   UNL     1      -2.888  -0.687  -3.467  0.00  0.00    +0.162 A 
ATOM     11  C   UNL     1      -2.249  -1.053  -2.295  0.00  0.00    +0.055 A 
ATOM     12  O   UNL     1      -3.021  -1.581  -4.489  0.00  0.00    -0.488 OA
ATOM     13  C   UNL     1      -4.352  -2.023  -4.765  0.00  0.00    +0.232 C 
ATOM     14  C   UNL     1      -5.067  -1.041  -5.680  0.00  0.00    +0.082 C 
ATOM     15  C   UNL     1      -5.272   0.316  -5.026  0.00  0.00    +0.232 C 
ATOM     16  O   UNL     1      -4.017   0.951  -4.772  0.00  0.00    -0.488 OA
ENDBRANCH   5   6
BRANCH   5  18
ATOM     17  C   UNL     1      -0.019   1.526   0.010  0.00  0.00    +0.009 C 
ATOM     18  C   UNL     1       0.002  -0.004   0.002  0.00  0.00    +0.008 C 
ATOM     19  C   UNL     1       0.742  -0.511   1.242  0.00  0.00    +0.009 C 
ENDBRANCH   5  18
ENDBRANCH   1   5
BRANCH   2  20
ATOM     20  C   UNL     1      -2.809   0.034   3.540  0.00  0.00    +0.019 C 
BRANCH  20  21
ATOM     21  N   UNL     1      -2.553  -0.779   4.736  0.00  0.00    +0.385 N 
ATOM     22  C   UNL     1      -3.112  -2.122   4.541  0.00  0.00    -0.076 C 
ATOM     23  C   UNL     1      -2.778  -2.999   5.750  0.00  0.00    +0.004 C 
ATOM     24  C   UNL     1      -3.379  -2.371   7.011  0.00  0.00    +0.073 C 
ATOM     25  C   UNL     1      -2.845  -0.944   7.163  0.00  0.00    +0.004 C 
ATOM     26  C   UNL     1      -3.178  -0.143   5.902  0.00  0.00    -0.076 C 
ATOM     27  H   UNL     1      -1.558  -0.851   4.885  0.00  0.00    -0.081 HD
BRANCH  24  28
ATOM     28  N   UNL     1      -2.998  -3.164   8.182  0.00  0.00    -0.278 N 
ATOM     29  C   UNL     1      -3.766  -3.142   9.290  0.00  0.00    +0.401 C 
ATOM     30  O   UNL     1      -4.774  -2.464   9.316  0.00  0.00    -0.226 OA
ATOM     31  H   UNL     1      -2.193  -3.705   8.161  0.00  0.00    +0.152 HD
BRANCH  29  32
ATOM     32  O   UNL     1      -3.416  -3.871  10.366  0.00  0.00    -0.445 OA
BRANCH  32  33
ATOM     33  C   UNL     1      -4.276  -3.800  11.505  0.00  0.00    +0.107 C 
ATOM     34  C   UNL     1      -5.675  -4.284  11.118  0.00  0.00    +0.055 C 
ATOM     35  C   UNL     1      -3.719  -4.687  12.620  0.00  0.00    +0.055 C 
ATOM     36  C   UNL     1      -4.354  -2.353  11.996  0.00  0.00    +0.055 C 
ENDBRANCH  32  33
ENDBRANCH  29  32
ENDBRANCH  24  28
ENDBRANCH  20  21
ENDBRANCH   2  20
TORSDOF 8
