REMARK  Name = ZINC09117829
REMARK  9 active torsions:
REMARK  status: ('A' for Active; 'I' for Inactive)
REMARK    1  A    between atoms: C_1  and  C_2
REMARK    2  A    between atoms: C_2  and  N_3
REMARK    3  A    between atoms: N_3  and  C_4
REMARK    4  A    between atoms: N_3  and  C_28
REMARK    5  A    between atoms: C_4  and  C_5
REMARK    6  A    between atoms: C_5  and  C_6
REMARK    7  A    between atoms: C_6  and  N_7
REMARK    8  A    between atoms: C_8  and  C_10
REMARK    9  A    between atoms: C_32  and  C_34
REMARK                            x       y       z     vdW  Elec       q    Type
REMARK                         _______ _______ _______ _____ _____    ______ ____
ROOT
ATOM      1  C   UNL     1       4.888   8.240  -4.494  0.00  0.00    +0.076 C 
ATOM      2  C   UNL     1       6.397   8.599  -4.566  0.00  0.00    -0.003 C 
ATOM      3  C   UNL     1       6.451   9.466  -5.850  0.00  0.00    -0.066 C 
ATOM      4  C   UNL     1       7.608  10.472  -5.734  0.00  0.00    -0.017 C 
ATOM      5  C   UNL     1       6.934  11.861  -5.682  0.00  0.00    -0.020 C 
ATOM      6  C   UNL     1       5.508  11.535  -5.175  0.00  0.00    -0.077 C 
ATOM      7  C   UNL     1       4.205   9.505  -5.035  0.00  0.00    +0.052 C 
ATOM      8  C   UNL     1       2.990   9.149  -5.851  0.00  0.00    -0.027 A 
ATOM      9  C   UNL     1       2.807   8.406  -6.996  0.00  0.00    +0.004 A 
ATOM     10  C   UNL     1       1.538   8.252  -7.524  0.00  0.00    +0.000 A 
ATOM     11  C   UNL     1       0.456   8.845  -6.900  0.00  0.00    +0.002 A 
ATOM     12  C   UNL     1       0.635   9.589  -5.752  0.00  0.00    +0.023 A 
ATOM     13  C   UNL     1       1.910   9.749  -5.213  0.00  0.00    +0.036 A 
ATOM     14  N   UNL     1       2.342  10.443  -4.081  0.00  0.00    -0.286 N 
ATOM     15  C   UNL     1       3.673  10.350  -3.906  0.00  0.00    +0.212 C 
ATOM     16  O   UNL     1       4.321  10.850  -3.011  0.00  0.00    -0.277 OA
ATOM     17  H   UNL     1       1.751  10.935  -3.490  0.00  0.00    +0.155 HD
ATOM     18  N   UNL     1       5.216  10.241  -5.820  0.00  0.00    +0.394 N 
ATOM     19  H   UNL     1       4.871  10.394  -6.775  0.00  0.00    -0.079 HD
ENDROOT
BRANCH   1  21
ATOM     20  N   UNL     1       3.320   7.321  -2.816  0.00  0.00    -0.315 N 
ATOM     21  C   UNL     1       4.470   7.976  -3.070  0.00  0.00    +0.216 C 
ATOM     22  O   UNL     1       5.169   8.353  -2.153  0.00  0.00    -0.276 OA
ATOM     23  H   UNL     1       2.762   7.019  -3.549  0.00  0.00    +0.149 HD
BRANCH  20  24
ATOM     24  C   UNL     1       2.914   7.064  -1.432  0.00  0.00    +0.105 C 
BRANCH  24  25
ATOM     25  C   UNL     1       1.583   6.311  -1.423  0.00  0.00    +0.037 C 
BRANCH  25  26
ATOM     26  C   UNL     1       1.158   6.043   0.023  0.00  0.00    +0.106 C 
BRANCH  26  27
ATOM     27  N   UNL     1      -0.117   5.321   0.032  0.00  0.00    -0.330 N 
BRANCH  27  28
ATOM     28  C   UNL     1      -0.129   3.925   0.015  0.00  0.00    +0.030 A 
ATOM     29  C   UNL     1       1.067   3.218  -0.010  0.00  0.00    +0.023 A 
ATOM     30  C   UNL     1       1.051   1.837  -0.026  0.00  0.00    +0.002 A 
ATOM     31  C   UNL     1      -0.154   1.158  -0.018  0.00  0.00    +0.003 A 
ATOM     32  C   UNL     1      -1.346   1.858   0.001  0.00  0.00    -0.049 A 
ATOM     33  C   UNL     1      -1.337   3.239   0.023  0.00  0.00    +0.026 A 
ATOM     34  C   UNL     1      -2.656   1.114   0.003  0.00  0.00    +0.044 C 
ENDBRANCH  27  28
BRANCH  27  36
ATOM     35  C   UNL     1      -1.798   6.307   1.509  0.00  0.00    +0.024 C 
ATOM     36  C   UNL     1      -1.379   6.065   0.058  0.00  0.00    +0.102 C 
ENDBRANCH  27  36
ENDBRANCH  26  27
ENDBRANCH  25  26
ENDBRANCH  24  25
ENDBRANCH  20  24
ENDBRANCH   1  21
TORSDOF 7
