REMARK  Name = ZINC08582581
REMARK  14 active torsions:
REMARK  status: ('A' for Active; 'I' for Inactive)
REMARK    1  A    between atoms: C_1  and  C_2
REMARK    2  A    between atoms: C_2  and  C_3
REMARK    3  A    between atoms: C_3  and  C_5
REMARK    4  A    between atoms: C_3  and  N_67
REMARK    5  A    between atoms: N_9  and  C_10
REMARK    6  A    between atoms: C_10  and  C_11
REMARK    7  A    between atoms: C_16  and  C_17
REMARK    8  A    between atoms: C_16  and  N_67
REMARK    9  A    between atoms: C_17  and  C_18
REMARK   10  A    between atoms: C_24  and  C_25
REMARK   11  A    between atoms: C_24  and  N_67
REMARK   12  A    between atoms: C_30  and  O_36
REMARK   13  A    between atoms: C_34  and  O_35
REMARK   14  A    between atoms: O_36  and  C_37
REMARK                            x       y       z     vdW  Elec       q    Type
REMARK                         _______ _______ _______ _____ _____    ______ ____
ROOT
ATOM      1  N   UNL     1       1.593   1.503  -0.387  0.00  0.00    +0.389 N 
ATOM      2  H   UNL     1       2.016   1.057  -1.209  0.00  0.00    -0.080 HD
ENDROOT
BRANCH   1   3
ATOM      3  C   UNL     1       1.586   2.968  -0.585  0.00  0.00    +0.003 C 
BRANCH   3   4
ATOM      4  C   UNL     1       0.661   3.304  -1.726  0.00  0.00    +0.139 A 
ATOM      5  N   UNL     1       0.586   2.688  -2.880  0.00  0.00    -0.115 NA
ATOM      6  N   UNL     1      -0.323   3.269  -3.584  0.00  0.00    -0.023 NA
ATOM      7  N   UNL     1      -0.824   4.247  -2.912  0.00  0.00    -0.044 NA
ATOM      8  N   UNL     1      -0.243   4.301  -1.761  0.00  0.00    -0.223 N 
BRANCH   8   9
ATOM      9  C   UNL     1      -0.516   5.266  -0.693  0.00  0.00    +0.221 C 
BRANCH   9  10
ATOM     10  C   UNL     1       0.373   6.470  -0.865  0.00  0.00    +0.126 A 
ATOM     11  C   UNL     1       0.079   7.570  -1.581  0.00  0.00    +0.046 A 
ATOM     12  C   UNL     1       1.186   8.441  -1.467  0.00  0.00    +0.041 A 
ATOM     13  C   UNL     1       2.095   7.819  -0.695  0.00  0.00    +0.195 A 
ATOM     14  O   UNL     1       1.597   6.625  -0.333  0.00  0.00    -0.466 OA
ENDBRANCH   9  10
ENDBRANCH   8   9
ENDBRANCH   3   4
BRANCH   3  16
ATOM     15  C   UNL     1       3.484   2.712  -2.189  0.00  0.00    +0.002 C 
ATOM     16  C   UNL     1       3.005   3.428  -0.925  0.00  0.00    -0.011 C 
ENDBRANCH   3  16
ENDBRANCH   1   3
BRANCH   1  17
ATOM     17  C   UNL     1       0.210   1.007  -0.230  0.00  0.00    -0.073 C 
BRANCH  17  18
ATOM     18  C   UNL     1       0.210  -0.513  -0.405  0.00  0.00    +0.016 C 
BRANCH  18  19
ATOM     19  C   UNL     1      -1.207  -1.024  -0.357  0.00  0.00    -0.049 A 
ATOM     20  C   UNL     1      -1.790  -1.329   0.859  0.00  0.00    +0.003 A 
ATOM     21  C   UNL     1      -3.092  -1.793   0.903  0.00  0.00    +0.000 A 
ATOM     22  C   UNL     1      -3.806  -1.962  -0.268  0.00  0.00    +0.000 A 
ATOM     23  C   UNL     1      -3.221  -1.662  -1.484  0.00  0.00    +0.000 A 
ATOM     24  C   UNL     1      -1.921  -1.193  -1.528  0.00  0.00    +0.003 A 
ENDBRANCH  18  19
ENDBRANCH  17  18
ENDBRANCH   1  17
BRANCH   1  25
ATOM     25  C   UNL     1       2.392   1.159   0.809  0.00  0.00    -0.037 C 
BRANCH  25  26
ATOM     26  C   UNL     1       1.717   1.664   2.058  0.00  0.00    -0.002 A 
ATOM     27  C   UNL     1       0.909   0.835   2.780  0.00  0.00    +0.017 A 
ATOM     28  C   UNL     1       0.297   1.345   3.942  0.00  0.00    +0.001 A 
ATOM     29  C   UNL     1      -0.545   0.545   4.730  0.00  0.00    +0.013 A 
ATOM     30  C   UNL     1      -1.123   1.064   5.847  0.00  0.00    +0.046 A 
ATOM     31  C   UNL     1      -0.888   2.391   6.223  0.00  0.00    +0.122 A 
ATOM     32  C   UNL     1      -0.067   3.201   5.472  0.00  0.00    +0.074 A 
ATOM     33  C   UNL     1       0.541   2.690   4.315  0.00  0.00    +0.078 A 
ATOM     34  N   UNL     1       1.345   3.455   3.566  0.00  0.00    -0.213 NA
ATOM     35  C   UNL     1       1.922   2.981   2.482  0.00  0.00    +0.214 A 
BRANCH  35  36
ATOM     36  O   UNL     1       2.732   3.791   1.757  0.00  0.00    -0.492 OA
ATOM     37  H   UNL     1       2.265   4.335   1.108  0.00  0.00    +0.294 HD
ENDBRANCH  35  36
BRANCH  31  38
ATOM     38  O   UNL     1      -1.477   2.885   7.343  0.00  0.00    -0.495 OA
ATOM     39  C   UNL     1      -2.318   1.995   8.080  0.00  0.00    +0.277 C 
ENDBRANCH  31  38
ENDBRANCH  25  26
ENDBRANCH   1  25
TORSDOF 12
