REMARK  Name = ZINC04150124
REMARK  6 active torsions:
REMARK  status: ('A' for Active; 'I' for Inactive)
REMARK    1  A    between atoms: C_1  and  C_2
REMARK    2  A    between atoms: C_8  and  C_15
REMARK    3  A    between atoms: C_8  and  C_16
REMARK    4  A    between atoms: C_9  and  C_13
REMARK    5  A    between atoms: C_10  and  N_12
REMARK    6  A    between atoms: C_20  and  N_22
REMARK                            x       y       z     vdW  Elec       q    Type
REMARK                         _______ _______ _______ _____ _____    ______ ____
ROOT
ATOM      1  C   UNL     1       0.006   1.562   0.062  0.00  0.00    +0.063 C 
ATOM      2  C   UNL     1       0.003   0.055   0.024  0.00  0.00    +0.051 C 
ATOM      3  N   UNL     1      -0.009  -0.696  -1.030  0.00  0.00    -0.155 NA
ATOM      4  N   UNL     1       0.021  -2.055  -0.717  0.00  0.00    -0.115 NA
ATOM      5  C   UNL     1       0.099  -2.256   0.548  0.00  0.00    +0.227 C 
ATOM      6  C   UNL     1       0.019  -0.881   1.209  0.00  0.00    +0.138 C 
ATOM      7  C   UNL     1       1.312  -0.734   2.018  0.00  0.00    +0.049 C 
ATOM      8  C   UNL     1       1.599  -2.035   2.718  0.00  0.00    +0.098 C 
ATOM      9  C   UNL     1       1.094  -3.229   2.345  0.00  0.00    +0.200 C 
ATOM     10  O   UNL     1       0.244  -3.374   1.290  0.00  0.00    -0.425 OA
ATOM     11  C   UNL     1       1.144   0.380   3.054  0.00  0.00    +0.023 C 
ENDROOT
BRANCH   7  12
ATOM     12  C   UNL     1       2.452  -0.397   1.091  0.00  0.00    -0.033 A 
ATOM     13  C   UNL     1       2.878  -1.321   0.155  0.00  0.00    +0.005 A 
ATOM     14  C   UNL     1       3.923  -1.012  -0.695  0.00  0.00    +0.003 A 
ATOM     15  C   UNL     1       4.542   0.221  -0.609  0.00  0.00    +0.033 A 
ATOM     16  C   UNL     1       4.116   1.145   0.326  0.00  0.00    +0.126 A 
ATOM     17  C   UNL     1       3.067   0.838   1.173  0.00  0.00    +0.037 A 
BRANCH  16  18
ATOM     18  N   UNL     1       4.779   2.465   0.418  0.00  0.00    +0.056 N 
ATOM     19  O   UNL     1       5.694   2.735  -0.325  0.00  0.00    -0.126 OA
ATOM     20  O   UNL     1       4.406   3.273   1.236  0.00  0.00    -0.126 OA
ENDBRANCH  16  18
ENDBRANCH   7  12
BRANCH   9  21
ATOM     21  N   UNL     1       1.446  -4.345   3.062  0.00  0.00    -0.328 N 
ATOM     22  H   UNL     1       2.047  -4.265   3.819  0.00  0.00    +0.145 HD
ATOM     23  H   UNL     1       1.095  -5.214   2.811  0.00  0.00    +0.145 HD
ENDBRANCH   9  21
BRANCH   8  24
ATOM     24  C   UNL     1       2.467  -2.004   3.857  0.00  0.00    +0.101 C 
ATOM     25  N   UNL     1       3.156  -1.980   4.760  0.00  0.00    -0.191 NA
ENDBRANCH   8  24
TORSDOF 4
