REMARK  Name = ZINC16042460
REMARK  9 active torsions:
REMARK  status: ('A' for Active; 'I' for Inactive)
REMARK    1  A    between atoms: C_1  and  C_2
REMARK    2  A    between atoms: C_2  and  C_3
REMARK    3  A    between atoms: C_2  and  C_4
REMARK    4  A    between atoms: C_7  and  C_10
REMARK    5  A    between atoms: N_29  and  C_32
REMARK    6  A    between atoms: C_34  and  C_39
REMARK    7  A    between atoms: C_34  and  C_40
REMARK    8  A    between atoms: C_35  and  C_37
REMARK    9  A    between atoms: C_35  and  C_38
REMARK                            x       y       z     vdW  Elec       q    Type
REMARK                         _______ _______ _______ _____ _____    ______ ____
ROOT
ATOM      1  C   UNL     1       4.795   2.636  -0.041  0.00  0.00    +0.154 C 
ATOM      2  C   UNL     1       3.343   2.221  -0.123  0.00  0.00    +0.046 A 
ATOM      3  C   UNL     1       2.930   0.936  -0.062  0.00  0.00    -0.015 A 
ATOM      4  C   UNL     1       1.486   0.949  -0.184  0.00  0.00    +0.003 A 
ATOM      5  C   UNL     1       0.527  -0.068  -0.189  0.00  0.00    +0.010 A 
ATOM      6  C   UNL     1      -0.783   0.317  -0.335  0.00  0.00    +0.001 A 
ATOM      7  C   UNL     1      -1.151   1.647  -0.458  0.00  0.00    +0.002 A 
ATOM      8  C   UNL     1      -0.222   2.673  -0.456  0.00  0.00    +0.026 A 
ATOM      9  C   UNL     1       1.117   2.312  -0.316  0.00  0.00    +0.047 A 
ATOM     10  N   UNL     1       2.264   3.051  -0.273  0.00  0.00    -0.356 N 
ATOM     11  H   UNL     1       2.308   4.017  -0.338  0.00  0.00    +0.166 HD
ATOM     12  C   UNL     1       3.844  -0.251   0.107  0.00  0.00    +0.069 C 
ATOM     13  C   UNL     1       5.275   0.173  -0.249  0.00  0.00    +0.167 C 
ATOM     14  N   UNL     1       5.570   1.454   0.391  0.00  0.00    -0.276 N 
ATOM     15  C   UNL     1       6.503   1.601   1.334  0.00  0.00    +0.234 C 
ATOM     16  O   UNL     1       6.619   2.692   1.850  0.00  0.00    -0.274 OA
ATOM     17  C   UNL     1       7.415   0.511   1.796  0.00  0.00    +0.204 C 
ATOM     18  N   UNL     1       7.186  -0.733   1.081  0.00  0.00    -0.288 N 
ATOM     19  C   UNL     1       6.236  -0.888   0.181  0.00  0.00    +0.237 C 
ATOM     20  O   UNL     1       6.146  -1.980  -0.339  0.00  0.00    -0.274 OA
ENDROOT
BRANCH  18  21
ATOM     21  C   UNL     1       8.056  -1.877   1.387  0.00  0.00    +0.074 C 
ATOM     22  C   UNL     1       7.942  -2.212   2.873  0.00  0.00    +0.009 C 
ATOM     23  C   UNL     1       8.876  -3.362   3.242  0.00  0.00    -0.072 C 
ATOM     24  C   UNL     1      10.424  -2.683   1.394  0.00  0.00    -0.072 C 
ATOM     25  C   UNL     1       9.506  -1.499   1.082  0.00  0.00    +0.009 C 
ATOM     26  C   UNL     1      10.231  -3.785   0.352  0.00  0.00    -0.010 C 
ATOM     27  C   UNL     1      11.880  -2.183   1.274  0.00  0.00    -0.010 C 
ATOM     28  C   UNL     1       8.280  -4.688   2.758  0.00  0.00    -0.010 C 
ATOM     29  C   UNL     1       8.940  -3.428   4.785  0.00  0.00    -0.010 C 
ATOM     30  N   UNL     1      10.281  -3.186   2.788  0.00  0.00    +0.386 N 
ATOM     31  H   UNL     1      10.754  -4.095   2.851  0.00  0.00    -0.084 HD
ATOM     32  H   UNL     1      10.739  -2.517   3.418  0.00  0.00    -0.084 HD
ENDBRANCH  18  21
BRANCH   1  36
ATOM     33  C   UNL     1       6.152   3.938  -3.876  0.00  0.00    -0.045 A 
ATOM     34  C   UNL     1       5.261   4.714  -3.159  0.00  0.00    +0.004 A 
ATOM     35  C   UNL     1       4.822   4.293  -1.917  0.00  0.00    +0.006 A 
ATOM     36  C   UNL     1       5.273   3.095  -1.394  0.00  0.00    -0.021 A 
ATOM     37  C   UNL     1       6.169   2.322  -2.110  0.00  0.00    +0.006 A 
ATOM     38  C   UNL     1       6.605   2.742  -3.353  0.00  0.00    +0.004 A 
BRANCH  33  40
ATOM     39  C   UNL     1       8.152   4.556  -5.206  0.00  0.00    +0.012 C 
ATOM     40  C   UNL     1       6.630   4.397  -5.230  0.00  0.00    +0.013 C 
ATOM     41  C   UNL     1       6.242   3.361  -6.286  0.00  0.00    +0.012 C 
ENDBRANCH  33  40
ENDBRANCH   1  36
TORSDOF 3
