REMARK  Name = ZINC22828639
REMARK  8 active torsions:
REMARK  status: ('A' for Active; 'I' for Inactive)
REMARK    1  A    between atoms: C_1  and  C_2
REMARK    2  A    between atoms: C_2  and  O_3
REMARK    3  A    between atoms: O_3  and  C_4
REMARK    4  A    between atoms: C_4  and  C_6
REMARK    5  A    between atoms: C_7  and  C_23
REMARK    6  A    between atoms: C_12  and  C_14
REMARK    7  A    between atoms: C_23  and  N_24
REMARK    8  A    between atoms: N_27  and  C_30
REMARK                            x       y       z     vdW  Elec       q    Type
REMARK                         _______ _______ _______ _____ _____    ______ ____
ROOT
ATOM      1  C   UNL     1      -2.795  -2.407   0.104  0.00  0.00    +0.079 C 
ATOM      2  C   UNL     1      -2.985  -3.731  -0.085  0.00  0.00    +0.038 C 
ATOM      3  N   UNL     1      -4.241  -4.259  -0.164  0.00  0.00    -0.271 N 
ATOM      4  C   UNL     1      -5.360  -3.530  -0.065  0.00  0.00    +0.304 C 
ATOM      5  O   UNL     1      -6.436  -4.090  -0.148  0.00  0.00    -0.252 OA
ATOM      6  N   UNL     1      -5.333  -2.196   0.124  0.00  0.00    -0.288 N 
ATOM      7  C   UNL     1      -4.024  -1.530   0.230  0.00  0.00    +0.144 C 
ATOM      8  H   UNL     1      -4.329  -5.215  -0.300  0.00  0.00    +0.156 HD
ATOM      9  H   UNL     1      -6.156  -1.687   0.193  0.00  0.00    +0.151 HD
ENDROOT
BRANCH   7  10
ATOM     10  C   UNL     1      -3.960  -0.829   1.563  0.00  0.00    -0.019 A 
ATOM     11  C   UNL     1      -4.332  -1.500   2.713  0.00  0.00    +0.009 A 
ATOM     12  C   UNL     1      -4.275  -0.862   3.938  0.00  0.00    +0.050 A 
ATOM     13  C   UNL     1      -3.844   0.453   4.016  0.00  0.00    +0.166 A 
ATOM     14  C   UNL     1      -3.469   1.129   2.857  0.00  0.00    +0.167 A 
ATOM     15  C   UNL     1      -3.524   0.481   1.633  0.00  0.00    +0.055 A 
ATOM     16  O   UNL     1      -3.088   2.395   3.194  0.00  0.00    -0.453 OA
ATOM     17  C   UNL     1      -3.620   2.618   4.513  0.00  0.00    +0.466 C 
ATOM     18  O   UNL     1      -3.698   1.296   5.079  0.00  0.00    -0.453 OA
ENDBRANCH   7  10
BRANCH   1  19
ATOM     19  C   UNL     1      -1.494  -1.859   0.187  0.00  0.00    +0.339 C 
ATOM     20  O   UNL     1      -1.009  -1.605   1.274  0.00  0.00    -0.245 OA
BRANCH  19  21
ATOM     21  O   UNL     1      -0.790  -1.618  -0.939  0.00  0.00    -0.462 OA
BRANCH  21  23
ATOM     22  C   UNL     1       1.156  -0.862  -2.156  0.00  0.00    +0.048 C 
ATOM     23  C   UNL     1       0.518  -1.064  -0.781  0.00  0.00    +0.229 C 
ENDBRANCH  21  23
ENDBRANCH  19  21
ENDBRANCH   1  19
BRANCH   2  24
ATOM     24  C   UNL     1      -1.789  -4.640  -0.210  0.00  0.00    +0.135 C 
BRANCH  24  25
ATOM     25  N   UNL     1      -1.770  -5.582   0.917  0.00  0.00    -0.300 NA
ATOM     26  C   UNL     1      -1.537  -4.880   2.187  0.00  0.00    +0.066 C 
ATOM     27  C   UNL     1      -1.584  -5.886   3.339  0.00  0.00    -0.062 C 
ATOM     28  N   UNL     1      -0.556  -6.915   3.133  0.00  0.00    +0.385 N 
ATOM     29  C   UNL     1      -0.817  -7.624   1.873  0.00  0.00    -0.062 C 
ATOM     30  C   UNL     1      -0.764  -6.632   0.709  0.00  0.00    +0.066 C 
ATOM     31  H   UNL     1       0.352  -6.479   3.091  0.00  0.00    -0.081 HD
BRANCH  28  32
ATOM     32  C   UNL     1      -0.590  -7.870   4.248  0.00  0.00    -0.065 C 
ATOM     33  C   UNL     1      -1.968  -8.531   4.313  0.00  0.00    -0.009 C 
ATOM     34  C   UNL     1      -2.003  -9.526   5.474  0.00  0.00    -0.012 C 
ATOM     35  C   UNL     1      -0.933 -10.598   5.260  0.00  0.00    +0.007 C 
ATOM     36  C   UNL     1       0.446  -9.937   5.196  0.00  0.00    -0.012 C 
ATOM     37  C   UNL     1       0.480  -8.942   4.034  0.00  0.00    -0.009 C 
ATOM     38  C   UNL     1       0.719  -9.199   6.508  0.00  0.00    +0.007 C 
ATOM     39  C   UNL     1      -0.352  -8.127   6.722  0.00  0.00    -0.012 C 
ATOM     40  C   UNL     1      -1.730  -8.788   6.786  0.00  0.00    +0.007 C 
ATOM     41  C   UNL     1      -0.317  -7.132   5.561  0.00  0.00    -0.009 C 
ENDBRANCH  28  32
ENDBRANCH  24  25
ENDBRANCH   2  24
TORSDOF 7
