REMARK  Name = ZINC31557913
REMARK  9 active torsions:
REMARK  status: ('A' for Active; 'I' for Inactive)
REMARK    1  A    between atoms: C_4  and  C_7
REMARK    2  A    between atoms: C_7  and  N_8
REMARK    3  A    between atoms: C_9  and  C_11
REMARK    4  A    between atoms: C_16  and  N_17
REMARK    5  A    between atoms: C_18  and  C_20
REMARK    6  A    between atoms: C_20  and  N_21
REMARK    7  A    between atoms: C_25  and  C_27
REMARK    8  A    between atoms: N_29  and  C_30
REMARK    9  A    between atoms: C_30  and  C_31
REMARK                            x       y       z     vdW  Elec       q    Type
REMARK                         _______ _______ _______ _____ _____    ______ ____
ROOT
ATOM      1  N   UNL     1       7.579  -3.075   2.071  0.00  0.00    -0.286 N 
ATOM      2  C   UNL     1       8.635  -3.890   2.260  0.00  0.00    +0.201 C 
ATOM      3  O   UNL     1       8.919  -4.265   3.378  0.00  0.00    -0.278 OA
ATOM      4  H   UNL     1       7.315  -2.823   1.171  0.00  0.00    +0.155 HD
ENDROOT
BRANCH   1  10
ATOM      5  C   UNL     1       6.461  -1.250   3.208  0.00  0.00    +0.058 A 
ATOM      6  C   UNL     1       5.742  -0.781   4.309  0.00  0.00    +0.015 A 
ATOM      7  C   UNL     1       5.440  -1.635   5.348  0.00  0.00    +0.001 A 
ATOM      8  C   UNL     1       5.846  -2.959   5.306  0.00  0.00    +0.002 A 
ATOM      9  C   UNL     1       6.558  -3.437   4.224  0.00  0.00    +0.024 A 
ATOM     10  C   UNL     1       6.866  -2.593   3.166  0.00  0.00    +0.045 A 
BRANCH   5  12
ATOM     11  N   UNL     1       6.295   0.913   2.080  0.00  0.00    -0.307 N 
ATOM     12  C   UNL     1       6.787  -0.342   2.092  0.00  0.00    +0.246 C 
ATOM     13  O   UNL     1       7.499  -0.725   1.185  0.00  0.00    -0.270 OA
ATOM     14  H   UNL     1       5.727   1.219   2.804  0.00  0.00    +0.149 HD
BRANCH  11  15
ATOM     15  C   UNL     1       6.619   1.816   0.972  0.00  0.00    +0.139 C 
BRANCH  15  19
ATOM     16  C   UNL     1       4.724   5.591   1.609  0.00  0.00    +0.000 A 
ATOM     17  C   UNL     1       5.996   5.364   2.102  0.00  0.00    +0.000 A 
ATOM     18  C   UNL     1       6.609   4.142   1.896  0.00  0.00    +0.005 A 
ATOM     19  C   UNL     1       5.950   3.147   1.198  0.00  0.00    -0.030 A 
ATOM     20  C   UNL     1       4.678   3.374   0.705  0.00  0.00    +0.005 A 
ATOM     21  C   UNL     1       4.066   4.596   0.910  0.00  0.00    +0.000 A 
ENDBRANCH  15  19
ENDBRANCH  11  15
ENDBRANCH   5  12
ENDBRANCH   1  10
BRANCH   2  22
ATOM     22  C   UNL     1       9.463  -4.337   1.082  0.00  0.00    +0.020 C 
BRANCH  22  23
ATOM     23  N   UNL     1      10.546  -5.213   1.549  0.00  0.00    +0.393 N 
ATOM     24  C   UNL     1      11.484  -4.439   2.390  0.00  0.00    -0.077 C 
ATOM     25  C   UNL     1      12.881  -5.021   2.062  0.00  0.00    -0.020 C 
ATOM     26  C   UNL     1      12.755  -5.301   0.541  0.00  0.00    -0.008 C 
ATOM     27  C   UNL     1      11.285  -5.748   0.391  0.00  0.00    +0.020 C 
ATOM     28  H   UNL     1      10.159  -5.974   2.087  0.00  0.00    -0.080 HD
BRANCH  27  29
ATOM     29  C   UNL     1      11.205  -7.253   0.383  0.00  0.00    +0.200 C 
ATOM     30  O   UNL     1      10.592  -7.832   1.254  0.00  0.00    -0.278 OA
ATOM     31  N   UNL     1      11.814  -7.954  -0.594  0.00  0.00    -0.310 N 
ATOM     32  H   UNL     1      12.304  -7.491  -1.291  0.00  0.00    +0.149 HD
BRANCH  31  33
ATOM     33  C   UNL     1      11.736  -9.417  -0.602  0.00  0.00    +0.178 C 
BRANCH  33  34
ATOM     34  C   UNL     1      12.495  -9.954  -1.789  0.00  0.00    +0.122 A 
ATOM     35  C   UNL     1      13.797 -10.291  -1.803  0.00  0.00    +0.046 A 
ATOM     36  C   UNL     1      14.088 -10.743  -3.111  0.00  0.00    +0.041 A 
ATOM     37  C   UNL     1      12.947 -10.655  -3.817  0.00  0.00    +0.195 A 
ATOM     38  O   UNL     1      11.984 -10.182  -3.009  0.00  0.00    -0.466 OA
ENDBRANCH  33  34
ENDBRANCH  31  33
ENDBRANCH  27  29
ENDBRANCH  22  23
ENDBRANCH   2  22
TORSDOF 9
