REMARK  Name = ZINC39227459
REMARK  7 active torsions:
REMARK  status: ('A' for Active; 'I' for Inactive)
REMARK    1  A    between atoms: C_1  and  C_2
REMARK    2  A    between atoms: C_5  and  N_8
REMARK    3  A    between atoms: C_9  and  C_11
REMARK    4  A    between atoms: C_14  and  C_17
REMARK    5  A    between atoms: N_30  and  C_33
REMARK    6  A    between atoms: C_33  and  C_34
REMARK    7  A    between atoms: C_33  and  C_35
REMARK                            x       y       z     vdW  Elec       q    Type
REMARK                         _______ _______ _______ _____ _____    ______ ____
ROOT
ATOM      1  C   UNL     1      -3.919  -0.931   8.321  0.00  0.00    -0.017 A 
ATOM      2  C   UNL     1      -4.710   0.220   8.270  0.00  0.00    +0.012 A 
ATOM      3  C   UNL     1      -5.358   0.675   9.397  0.00  0.00    +0.047 A 
ATOM      4  C   UNL     1      -5.233  -0.009  10.601  0.00  0.00    +0.132 A 
ATOM      5  C   UNL     1      -4.441  -1.169  10.657  0.00  0.00    +0.060 A 
ATOM      6  C   UNL     1      -3.788  -1.631   9.516  0.00  0.00    +0.023 A 
ATOM      7  C   UNL     1      -4.323  -1.894  11.935  0.00  0.00    +0.170 C 
ATOM      8  O   UNL     1      -3.835  -3.002  11.997  0.00  0.00    -0.292 OA
ATOM      9  C   UNL     1      -4.845  -1.180  13.170  0.00  0.00    +0.127 C 
ATOM     10  C   UNL     1      -6.142  -0.467  12.765  0.00  0.00    +0.114 C 
ATOM     11  O   UNL     1      -5.870   0.448  11.705  0.00  0.00    -0.485 OA
ATOM     12  C   UNL     1      -7.166  -1.505  12.299  0.00  0.00    +0.030 C 
ATOM     13  C   UNL     1      -8.487  -0.803  11.980  0.00  0.00    -0.075 C 
ATOM     14  N   UNL     1      -8.986  -0.123  13.182  0.00  0.00    +0.381 N 
ATOM     15  C   UNL     1      -8.043   0.925  13.590  0.00  0.00    -0.075 C 
ATOM     16  C   UNL     1      -6.703   0.290  13.970  0.00  0.00    +0.030 C 
ATOM     17  H   UNL     1      -9.086  -0.794  13.929  0.00  0.00    -0.081 HD
ENDROOT
BRANCH   1  21
ATOM     18  C   UNL     1      -1.927  -2.303   4.821  0.00  0.00    +0.037 A 
ATOM     19  C   UNL     1      -2.713  -1.149   4.771  0.00  0.00    +0.013 A 
ATOM     20  C   UNL     1      -3.357  -0.707   5.904  0.00  0.00    +0.009 A 
ATOM     21  C   UNL     1      -3.225  -1.409   7.102  0.00  0.00    -0.018 A 
ATOM     22  C   UNL     1      -2.439  -2.561   7.153  0.00  0.00    +0.009 A 
ATOM     23  C   UNL     1      -1.799  -3.009   6.019  0.00  0.00    +0.013 A 
BRANCH  18  25
ATOM     24  N   UNL     1      -1.358  -2.098   2.449  0.00  0.00    -0.308 N 
ATOM     25  C   UNL     1      -1.235  -2.779   3.606  0.00  0.00    +0.244 C 
ATOM     26  O   UNL     1      -0.555  -3.786   3.648  0.00  0.00    -0.270 OA
ATOM     27  H   UNL     1      -1.901  -1.294   2.415  0.00  0.00    +0.149 HD
BRANCH  24  32
ATOM     28  C   UNL     1      -0.019   1.526   0.010  0.00  0.00    +0.007 C 
ATOM     29  C   UNL     1       0.002  -0.004   0.002  0.00  0.00    -0.014 C 
ATOM     30  C   UNL     1      -1.433  -0.534   0.013  0.00  0.00    +0.005 C 
ATOM     31  C   UNL     1      -1.413  -2.063   0.004  0.00  0.00    +0.022 C 
ATOM     32  C   UNL     1      -0.673  -2.570   1.244  0.00  0.00    +0.073 C 
ATOM     33  C   UNL     1       0.763  -2.041   1.233  0.00  0.00    +0.022 C 
ATOM     34  C   UNL     1       0.742  -0.511   1.242  0.00  0.00    +0.005 C 
ENDBRANCH  24  32
ENDBRANCH  18  25
ENDBRANCH   1  21
BRANCH  14  35
ATOM     35  C   UNL     1     -10.293   0.482  12.893  0.00  0.00    -0.075 C 
ATOM     36  C   UNL     1     -11.280  -0.610  12.477  0.00  0.00    -0.014 C 
ATOM     37  C   UNL     1     -10.814   1.191  14.145  0.00  0.00    -0.014 C 
ENDBRANCH  14  35
TORSDOF 4
