REMARK  Name = ZINC39467567
REMARK  7 active torsions:
REMARK  status: ('A' for Active; 'I' for Inactive)
REMARK    1  A    between atoms: C_1  and  C_2
REMARK    2  A    between atoms: C_2  and  O_3
REMARK    3  A    between atoms: O_3  and  C_4
REMARK    4  A    between atoms: C_16  and  S_17
REMARK    5  A    between atoms: S_17  and  C_20
REMARK    6  A    between atoms: P_28  and  C_31
REMARK    7  A    between atoms: C_36  and  O_37
REMARK                            x       y       z     vdW  Elec       q    Type
REMARK                         _______ _______ _______ _____ _____    ______ ____
ROOT
ATOM      1  C   UNL     1      -1.498  -1.848   0.006  0.00  0.00    +0.142 C 
ATOM      2  C   UNL     1      -0.428  -2.653  -0.003  0.00  0.00    +0.026 C 
ATOM      3  C   UNL     1      -0.642  -4.142   0.004  0.00  0.00    +0.038 C 
ATOM      4  C   UNL     1       0.577  -4.879   0.547  0.00  0.00    +0.111 C 
ATOM      5  N   UNL     1       0.336  -6.333   0.515  0.00  0.00    -0.229 NA
ATOM      6  C   UNL     1      -0.839  -6.728   1.293  0.00  0.00    +0.100 C 
ATOM      7  C   UNL     1      -2.091  -5.970   0.829  0.00  0.00    +0.031 C 
ATOM      8  C   UNL     1      -1.836  -4.468   0.910  0.00  0.00    +0.023 C 
ATOM      9  C   UNL     1      -3.031  -3.683   0.445  0.00  0.00    +0.008 C 
ATOM     10  C   UNL     1      -2.853  -2.436   0.016  0.00  0.00    +0.131 C 
ATOM     11  C   UNL     1      -1.147  -8.221   1.127  0.00  0.00    +0.189 C 
ATOM     12  O   UNL     1      -0.030  -8.996   1.598  0.00  0.00    -0.311 OA
ATOM     13  P   UNL     1       1.449  -8.618   1.036  0.00  0.00    +0.318 P 
ATOM     14  O   UNL     1       1.649  -9.198  -0.311  0.00  0.00    -0.266 OA
ATOM     15  N   UNL     1       1.480  -6.954   0.973  0.00  0.00    -0.175 NA
ATOM     16  H   UNL     1       2.264  -6.441   1.227  0.00  0.00    +0.151 HD
ENDROOT
BRANCH  13  17
ATOM     17  C   UNL     1       2.727  -9.220   2.174  0.00  0.00    +0.094 A 
ATOM     18  C   UNL     1       3.170  -8.414   3.204  0.00  0.00    +0.018 A 
ATOM     19  C   UNL     1       4.144  -8.872   4.072  0.00  0.00    +0.001 A 
ATOM     20  C   UNL     1       4.677 -10.138   3.910  0.00  0.00    +0.004 A 
ATOM     21  C   UNL     1       4.237 -10.948   2.882  0.00  0.00    +0.046 A 
ATOM     22  C   UNL     1       3.256 -10.493   2.013  0.00  0.00    +0.131 A 
BRANCH  22  23
ATOM     23  O   UNL     1       2.817 -11.290   1.004  0.00  0.00    -0.506 OA
ATOM     24  H   UNL     1       3.316 -11.193   0.181  0.00  0.00    +0.292 HD
ENDBRANCH  22  23
ENDBRANCH  13  17
BRANCH  10  25
ATOM     25  S   UNL     1      -4.231  -1.491  -0.544  0.00  0.00    +0.028 S 
ATOM     26  O   UNL     1      -3.859  -0.934  -1.797  0.00  0.00    -0.164 OA
ATOM     27  O   UNL     1      -5.378  -2.314  -0.386  0.00  0.00    -0.164 OA
BRANCH  25  28
ATOM     28  C   UNL     1      -4.423  -0.139   0.570  0.00  0.00    +0.094 A 
ATOM     29  C   UNL     1      -5.225  -0.274   1.688  0.00  0.00    +0.027 A 
ATOM     30  C   UNL     1      -5.376   0.786   2.563  0.00  0.00    +0.002 A 
ATOM     31  C   UNL     1      -4.725   1.981   2.318  0.00  0.00    +0.000 A 
ATOM     32  C   UNL     1      -3.923   2.115   1.201  0.00  0.00    +0.002 A 
ATOM     33  C   UNL     1      -3.769   1.054   0.329  0.00  0.00    +0.027 A 
ENDBRANCH  25  28
ENDBRANCH  10  25
BRANCH   1  34
ATOM     34  O   UNL     1      -1.339  -0.499   0.012  0.00  0.00    -0.491 OA
BRANCH  34  36
ATOM     35  C   UNL     1      -0.019   1.526   0.010  0.00  0.00    +0.048 C 
ATOM     36  C   UNL     1       0.002  -0.004   0.002  0.00  0.00    +0.226 C 
ENDBRANCH  34  36
ENDBRANCH   1  34
TORSDOF 6
