REMARK  Name = ZINC14742147
REMARK  13 active torsions:
REMARK  status: ('A' for Active; 'I' for Inactive)
REMARK    1  A    between atoms: C_1  and  N_2
REMARK    2  A    between atoms: N_2  and  C_3
REMARK    3  A    between atoms: N_2  and  C_4
REMARK    4  A    between atoms: C_7  and  C_10
REMARK    5  A    between atoms: C_11  and  C_12
REMARK    6  A    between atoms: C_12  and  N_74
REMARK    7  A    between atoms: N_20  and  C_28
REMARK    8  A    between atoms: N_23  and  C_24
REMARK    9  A    between atoms: C_24  and  C_25
REMARK   10  A    between atoms: C_25  and  O_26
REMARK   11  A    between atoms: O_26  and  C_27
REMARK   12  A    between atoms: C_28  and  C_29
REMARK   13  A    between atoms: C_29  and  C_30
REMARK                            x       y       z     vdW  Elec       q    Type
REMARK                         _______ _______ _______ _____ _____    ______ ____
ROOT
ATOM      1  C   UNL     1       9.768  -3.376  -0.669  0.00  0.00    -0.076 C 
ATOM      2  C   UNL     1       8.846  -2.154  -0.633  0.00  0.00    +0.017 C 
ATOM      3  C   UNL     1       7.859  -2.231  -1.794  0.00  0.00    +0.112 C 
ATOM      4  C   UNL     1       8.604  -2.345  -3.120  0.00  0.00    +0.017 C 
ATOM      5  C   UNL     1       9.534  -3.561  -3.076  0.00  0.00    -0.076 C 
ATOM      6  C   UNL     1       6.952  -1.023  -1.804  0.00  0.00    +0.247 C 
ATOM      7  O   UNL     1       7.277   0.138  -1.930  0.00  0.00    -0.273 OA
ATOM      8  N   UNL     1       5.704  -1.509  -1.640  0.00  0.00    -0.224 N 
ATOM      9  C   UNL     1       5.704  -2.844  -1.537  0.00  0.00    +0.312 C 
ATOM     10  O   UNL     1       4.699  -3.511  -1.387  0.00  0.00    -0.252 OA
ATOM     11  N   UNL     1       6.944  -3.365  -1.617  0.00  0.00    -0.269 N 
ATOM     12  N   UNL     1      10.490  -3.392  -1.960  0.00  0.00    +0.382 N 
ATOM     13  H   UNL     1      10.983  -2.498  -2.077  0.00  0.00    -0.081 HD
ENDROOT
BRANCH  12  14
ATOM     14  C   UNL     1      11.479  -4.489  -1.972  0.00  0.00    -0.051 C 
BRANCH  14  16
ATOM     15  C   UNL     1      13.662  -4.270  -3.073  0.00  0.00    +0.002 C 
ATOM     16  C   UNL     1      12.344  -4.349  -3.197  0.00  0.00    -0.045 C 
BRANCH  15  20
ATOM     17  C   UNL     1      16.103  -3.877  -6.528  0.00  0.00    +0.029 A 
ATOM     18  C   UNL     1      16.687  -3.923  -5.267  0.00  0.00    +0.023 A 
ATOM     19  C   UNL     1      15.899  -4.050  -4.145  0.00  0.00    +0.010 A 
ATOM     20  C   UNL     1      14.511  -4.133  -4.274  0.00  0.00    -0.025 A 
ATOM     21  C   UNL     1      13.927  -4.093  -5.542  0.00  0.00    +0.010 A 
ATOM     22  C   UNL     1      14.721  -3.961  -6.660  0.00  0.00    +0.023 A 
BRANCH  17  24
ATOM     23  C   UNL     1      18.360  -3.661  -7.525  0.00  0.00    +0.129 C 
ATOM     24  N   UNL     1      16.904  -3.748  -7.663  0.00  0.00    -0.336 N 
ATOM     25  C   UNL     1      16.290  -3.700  -8.992  0.00  0.00    +0.129 C 
ENDBRANCH  17  24
ENDBRANCH  15  20
ENDBRANCH  14  16
ENDBRANCH  12  14
BRANCH  11  26
ATOM     26  C   UNL     1       7.307  -4.783  -1.543  0.00  0.00    +0.138 C 
BRANCH  26  27
ATOM     27  C   UNL     1       6.682  -5.532  -2.722  0.00  0.00    +0.178 C 
BRANCH  27  28
ATOM     28  O   UNL     1       7.230  -5.036  -3.945  0.00  0.00    -0.381 OA
ATOM     29  C   UNL     1       6.711  -5.672  -5.114  0.00  0.00    +0.194 C 
ENDBRANCH  27  28
ENDBRANCH  26  27
ENDBRANCH  11  26
BRANCH   8  30
ATOM     30  C   UNL     1       4.498  -0.680  -1.587  0.00  0.00    +0.122 C 
BRANCH  30  31
ATOM     31  C   UNL     1       4.216  -0.280  -0.138  0.00  0.00    +0.054 C 
BRANCH  31  32
ATOM     32  C   UNL     1       2.976   0.574  -0.084  0.00  0.00    -0.046 A 
ATOM     33  C   UNL     1       1.737  -0.018   0.082  0.00  0.00    +0.004 A 
ATOM     34  C   UNL     1       0.599   0.765   0.132  0.00  0.00    +0.000 A 
ATOM     35  C   UNL     1       0.699   2.139   0.015  0.00  0.00    +0.000 A 
ATOM     36  C   UNL     1       1.938   2.730  -0.150  0.00  0.00    +0.000 A 
ATOM     37  C   UNL     1       3.076   1.947  -0.200  0.00  0.00    +0.004 A 
ENDBRANCH  31  32
ENDBRANCH  30  31
ENDBRANCH   8  30
TORSDOF 10
