REMARK  Name = ZINC20115287
REMARK  9 active torsions:
REMARK  status: ('A' for Active; 'I' for Inactive)
REMARK    1  A    between atoms: C_1  and  C_2
REMARK    2  A    between atoms: C_4  and  O_9
REMARK    3  A    between atoms: O_9  and  C_10
REMARK    4  A    between atoms: C_10  and  C_11
REMARK    5  A    between atoms: N_13  and  N_14
REMARK    6  A    between atoms: C_15  and  C_16
REMARK    7  A    between atoms: C_15  and  C_17
REMARK    8  A    between atoms: C_19  and  O_24
REMARK    9  A    between atoms: C_22  and  O_23
REMARK                            x       y       z     vdW  Elec       q    Type
REMARK                         _______ _______ _______ _____ _____    ______ ____
ROOT
ATOM      1  C   UNL     1      -0.208  -4.762  -3.725  0.00  0.00    +0.270 C 
ATOM      2  O   UNL     1      -0.237  -4.022  -4.685  0.00  0.00    -0.270 OA
ATOM      3  N   UNL     1      -0.098  -6.094  -3.904  0.00  0.00    -0.204 N 
ATOM      4  H   UNL     1      -0.075  -6.686  -3.136  0.00  0.00    +0.177 HD
ENDROOT
BRANCH   3   5
ATOM      5  N   UNL     1      -0.019  -6.622  -5.199  0.00  0.00    -0.184 NA
ATOM      6  C   UNL     1       0.182  -7.893  -5.370  0.00  0.00    +0.067 C 
ATOM      7  C   UNL     1       0.395  -8.443  -6.757  0.00  0.00    +0.068 C 
BRANCH   6   8
ATOM      8  C   UNL     1       0.201  -8.799  -4.207  0.00  0.00    +0.042 A 
ATOM      9  C   UNL     1      -0.959  -9.001  -3.456  0.00  0.00    +0.058 A 
ATOM     10  C   UNL     1      -0.933  -9.853  -2.366  0.00  0.00    +0.118 A 
ATOM     11  C   UNL     1       0.241 -10.508  -2.019  0.00  0.00    +0.049 A 
ATOM     12  C   UNL     1       1.393 -10.313  -2.758  0.00  0.00    +0.049 A 
ATOM     13  C   UNL     1       1.381  -9.467  -3.855  0.00  0.00    +0.126 A 
BRANCH  13  14
ATOM     14  O   UNL     1       2.513  -9.281  -4.583  0.00  0.00    -0.506 OA
ATOM     15  H   UNL     1       3.028  -8.506  -4.319  0.00  0.00    +0.292 HD
ENDBRANCH  13  14
BRANCH  10  16
ATOM     16  O   UNL     1      -2.062 -10.050  -1.633  0.00  0.00    -0.507 OA
ATOM     17  H   UNL     1      -2.610 -10.783  -1.944  0.00  0.00    +0.292 HD
ENDBRANCH  10  16
ENDBRANCH   6   8
ENDBRANCH   3   5
BRANCH   1  18
ATOM     18  C   UNL     1      -0.293  -4.194  -2.332  0.00  0.00    +0.326 C 
BRANCH  18  19
ATOM     19  O   UNL     1      -0.403  -2.771  -2.404  0.00  0.00    -0.483 OA
BRANCH  19  23
ATOM     20  C   UNL     1      -0.805   1.469  -0.020  0.00  0.00    +0.045 C 
ATOM     21  C   UNL     1      -0.688  -0.034  -0.024  0.00  0.00    -0.033 A 
ATOM     22  C   UNL     1      -0.599  -0.715  -1.223  0.00  0.00    +0.050 A 
ATOM     23  C   UNL     1      -0.490  -2.098  -1.226  0.00  0.00    +0.122 A 
ATOM     24  C   UNL     1      -0.472  -2.794  -0.026  0.00  0.00    +0.047 A 
ATOM     25  C   UNL     1      -0.561  -2.108   1.170  0.00  0.00    +0.019 A 
ATOM     26  C   UNL     1      -0.664  -0.729   1.171  0.00  0.00    +0.021 A 
ATOM     27 BR   UNL     1      -0.779   0.208   2.810  0.00  0.00    -0.050 Br
ENDBRANCH  19  23
ENDBRANCH  18  19
ENDBRANCH   1  18
TORSDOF 7
