REMARK  Name = ZINC39116138
REMARK  1 active torsions:
REMARK  status: ('A' for Active; 'I' for Inactive)
REMARK    1  A    between atoms: C_6  and  C_8
REMARK                            x       y       z     vdW  Elec       q    Type
REMARK                         _______ _______ _______ _____ _____    ______ ____
ROOT
ATOM      1  C   UNL     1      -0.019   1.541   0.011  0.00  0.00    +0.044 C 
ATOM      2  C   UNL     1       1.490   1.876  -0.002  0.00  0.00    +0.099 C 
ATOM      3  C   UNL     1       2.147   0.654   0.600  0.00  0.00    +0.225 C 
ATOM      4  O   UNL     1       3.282   0.614   1.026  0.00  0.00    -0.275 OA
ATOM      5  N   UNL     1       1.290  -0.381   0.595  0.00  0.00    -0.190 N 
ATOM      6  C   UNL     1       0.002  -0.004   0.002  0.00  0.00    +0.201 C 
ATOM      7  C   UNL     1       1.578  -1.609   1.072  0.00  0.00    +0.453 C 
ATOM      8  O   UNL     1       2.679  -1.836   1.551  0.00  0.00    -0.222 OA
ATOM      9  O   UNL     1       0.736  -2.494   1.027  0.00  0.00    -0.222 OA
ENDROOT
BRANCH   6  10
ATOM     10  C   UNL     1      -1.133  -0.546   0.833  0.00  0.00    +0.377 C 
ATOM     11  O   UNL     1      -2.214  -0.768   0.316  0.00  0.00    -0.244 OA
ATOM     12  O   UNL     1      -0.969  -0.761   2.022  0.00  0.00    -0.244 OA
ENDBRANCH   6  10
TORSDOF 1
