REMARK  Name = ZINC42955387
REMARK  10 active torsions:
REMARK  status: ('A' for Active; 'I' for Inactive)
REMARK    1  A    between atoms: C_1  and  C_2
REMARK    2  A    between atoms: C_2  and  C_3
REMARK    3  A    between atoms: C_3  and  C_5
REMARK    4  A    between atoms: C_3  and  N_23
REMARK    5  A    between atoms: C_5  and  C_7
REMARK    6  A    between atoms: C_5  and  N_14
REMARK    7  A    between atoms: N_14  and  C_15
REMARK    8  A    between atoms: N_14  and  C_18
REMARK    9  A    between atoms: C_15  and  C_16
REMARK   10  A    between atoms: C_16  and  O_17
REMARK                            x       y       z     vdW  Elec       q    Type
REMARK                         _______ _______ _______ _____ _____    ______ ____
ROOT
ATOM      1  C   UNL     1       1.272  -2.246  -1.189  0.00  0.00    -0.052 C 
ENDROOT
BRANCH   1   2
ATOM      2  C   UNL     1      -0.161  -2.566  -1.528  0.00  0.00    -0.062 A 
ATOM      3  C   UNL     1      -1.188  -1.948  -0.839  0.00  0.00    +0.003 A 
ATOM      4  C   UNL     1      -2.503  -2.241  -1.149  0.00  0.00    +0.015 A 
ATOM      5  C   UNL     1      -2.791  -3.153  -2.149  0.00  0.00    +0.018 A 
ATOM      6  C   UNL     1      -1.763  -3.771  -2.838  0.00  0.00    +0.015 A 
ATOM      7  C   UNL     1      -0.448  -3.474  -2.530  0.00  0.00    +0.003 A 
ATOM      8 BR   UNL     1      -4.589  -3.554  -2.573  0.00  0.00    -0.050 Br
ENDBRANCH   1   2
BRANCH   1   9
ATOM      9  N   UNL     1       1.465  -2.339   0.264  0.00  0.00    +0.387 N 
ATOM     10  H   UNL     1       0.780  -1.764   0.731  0.00  0.00    -0.081 HD
BRANCH   9  11
ATOM     11  C   UNL     1       1.305  -3.736   0.691  0.00  0.00    -0.068 C 
ATOM     12  C   UNL     1      -0.173  -4.160   0.568  0.00  0.00    -0.015 C 
ATOM     13  C   UNL     1      -0.407  -5.079   1.793  0.00  0.00    -0.002 C 
ATOM     14  C   UNL     1       0.420  -4.386   2.904  0.00  0.00    -0.002 C 
ATOM     15  C   UNL     1       1.682  -3.879   2.176  0.00  0.00    -0.015 C 
ENDBRANCH   9  11
BRANCH   9  16
ATOM     16  C   UNL     1       2.814  -1.873   0.610  0.00  0.00    -0.049 C 
BRANCH  16  17
ATOM     17  C   UNL     1       2.781  -0.365   0.870  0.00  0.00    +0.137 C 
BRANCH  17  18
ATOM     18  O   UNL     1       1.962  -0.096   2.009  0.00  0.00    -0.397 OA
ATOM     19  H   UNL     1       1.896   0.843   2.233  0.00  0.00    +0.209 HD
ENDBRANCH  17  18
ENDBRANCH  16  17
ENDBRANCH   9  16
ENDBRANCH   1   9
BRANCH   1  20
ATOM     20  C   UNL     1       1.602  -0.828  -1.658  0.00  0.00    -0.085 C 
BRANCH  20  21
ATOM     21  N   UNL     1       1.541  -0.770  -3.125  0.00  0.00    +0.379 N 
ATOM     22  H   UNL     1       1.758   0.166  -3.434  0.00  0.00    -0.090 HD
ATOM     23  H   UNL     1       2.209  -1.417  -3.515  0.00  0.00    -0.090 HD
ATOM     24  H   UNL     1       0.612  -1.018  -3.432  0.00  0.00    -0.090 HD
ENDBRANCH  20  21
BRANCH  20  26
ATOM     25  C   UNL     1       0.971   1.582  -1.461  0.00  0.00    +0.002 C 
ATOM     26  C   UNL     1       0.589   0.154  -1.066  0.00  0.00    -0.021 C 
ENDBRANCH  20  26
ENDBRANCH   1  20
TORSDOF 9
