REMARK  Name = ZINC01108522
REMARK  7 active torsions:
REMARK  status: ('A' for Active; 'I' for Inactive)
REMARK    1  A    between atoms: C_1  and  C_2
REMARK    2  A    between atoms: C_6  and  N_8
REMARK    3  A    between atoms: C_11  and  C_18
REMARK    4  A    between atoms: C_13  and  C_16
REMARK    5  A    between atoms: C_14  and  N_15
REMARK    6  A    between atoms: C_20  and  C_25
REMARK    7  A    between atoms: C_23  and  C_24
REMARK                            x       y       z     vdW  Elec       q    Type
REMARK                         _______ _______ _______ _____ _____    ______ ____
ROOT
ATOM      1  N   UNL     1       0.547   5.310   0.070  0.00  0.00    -0.260 N 
ATOM      2  C   UNL     1       1.621   6.143   0.248  0.00  0.00    +0.024 C 
ATOM      3  C   UNL     1       1.443   7.417   0.656  0.00  0.00    +0.025 C 
ATOM      4  C   UNL     1       0.063   7.956   0.934  0.00  0.00    +0.098 C 
ATOM      5  C   UNL     1      -0.993   7.096   0.303  0.00  0.00    +0.077 C 
ATOM      6  C   UNL     1      -0.717   5.827  -0.100  0.00  0.00    +0.107 C 
ATOM      7  C   UNL     1       2.539   8.279   0.840  0.00  0.00    +0.162 C 
ATOM      8  O   UNL     1       2.343   9.426   1.190  0.00  0.00    -0.292 OA
ATOM      9  C   UNL     1       3.949   7.808   0.610  0.00  0.00    +0.080 C 
ATOM     10  C   UNL     1       4.019   6.301   0.875  0.00  0.00    +0.014 C 
ATOM     11  C   UNL     1       3.002   5.601  -0.029  0.00  0.00    +0.052 C 
ENDROOT
BRANCH   4  12
ATOM     12  C   UNL     1      -0.161   7.999   2.424  0.00  0.00    -0.032 A 
ATOM     13  C   UNL     1      -0.069   6.838   3.170  0.00  0.00    +0.008 A 
ATOM     14  C   UNL     1      -0.273   6.878   4.537  0.00  0.00    -0.050 A 
ATOM     15  C   UNL     1      -0.569   8.077   5.157  0.00  0.00    +0.003 A 
ATOM     16  C   UNL     1      -0.660   9.237   4.412  0.00  0.00    +0.004 A 
ATOM     17  C   UNL     1      -0.451   9.199   3.045  0.00  0.00    -0.046 A 
ATOM     18  C   UNL     1      -0.545  10.465   2.233  0.00  0.00    +0.044 C 
ATOM     19  C   UNL     1      -0.174   5.613   5.350  0.00  0.00    +0.044 C 
ENDBRANCH   4  12
BRANCH   1  25
ATOM     20  C   UNL     1       0.458   1.002   2.437  0.00  0.00    +0.044 C 
ATOM     21  C   UNL     1       0.703   1.811   1.190  0.00  0.00    -0.049 A 
ATOM     22  C   UNL     1       1.117   1.183   0.029  0.00  0.00    +0.003 A 
ATOM     23  C   UNL     1       1.338   1.921  -1.119  0.00  0.00    +0.002 A 
ATOM     24  C   UNL     1       1.149   3.290  -1.109  0.00  0.00    +0.024 A 
ATOM     25  C   UNL     1       0.739   3.924   0.057  0.00  0.00    +0.040 A 
ATOM     26  C   UNL     1       0.518   3.179   1.208  0.00  0.00    +0.027 A 
ENDBRANCH   1  25
BRANCH   6  27
ATOM     27  N   UNL     1      -1.702   5.058  -0.672  0.00  0.00    -0.345 N 
ATOM     28  H   UNL     1      -1.531   4.125  -0.876  0.00  0.00    +0.144 HD
ATOM     29  H   UNL     1      -2.567   5.448  -0.873  0.00  0.00    +0.144 HD
ENDBRANCH   6  27
BRANCH   5  30
ATOM     30  C   UNL     1      -2.311   7.623   0.117  0.00  0.00    +0.099 C 
ATOM     31  N   UNL     1      -3.357   8.041  -0.031  0.00  0.00    -0.191 NA
ENDBRANCH   5  30
TORSDOF 4
