REMARK  Name = ZINC00883214
REMARK  9 active torsions:
REMARK  status: ('A' for Active; 'I' for Inactive)
REMARK    1  A    between atoms: C_1  and  C_2
REMARK    2  A    between atoms: C_2  and  C_3
REMARK    3  A    between atoms: C_2  and  C_4
REMARK    4  A    between atoms: C_7  and  C_10
REMARK    5  A    between atoms: C_15  and  C_20
REMARK    6  A    between atoms: C_23  and  O_28
REMARK    7  A    between atoms: C_24  and  O_26
REMARK    8  A    between atoms: O_26  and  C_27
REMARK    9  A    between atoms: O_28  and  C_29
REMARK                            x       y       z     vdW  Elec       q    Type
REMARK                         _______ _______ _______ _____ _____    ______ ____
ROOT
ATOM      1  C   UNL     1      -0.013   1.086   0.008  0.00  0.00    +0.136 C 
ATOM      2  C   UNL     1       1.461   1.403   0.087  0.00  0.00    +0.036 C 
ATOM      3  C   UNL     1       2.104   2.345  -0.625  0.00  0.00    +0.017 C 
ATOM      4  C   UNL     1       3.599   2.557  -0.453  0.00  0.00    +0.059 C 
ATOM      5  C   UNL     1       4.010   2.239   0.983  0.00  0.00    +0.032 C 
ATOM      6  C   UNL     1       3.639   0.778   1.262  0.00  0.00    +0.088 C 
ATOM      7  C   UNL     1       2.171   0.604   1.014  0.00  0.00    +0.163 C 
ATOM      8  O   UNL     1       1.569  -0.254   1.630  0.00  0.00    -0.292 OA
ATOM      9  N   UNL     1       1.516   3.157  -1.540  0.00  0.00    -0.316 N 
ATOM     10  C   UNL     1       0.324   3.844  -1.345  0.00  0.00    +0.052 A 
ATOM     11  C   UNL     1       0.262   5.226  -1.309  0.00  0.00    +0.025 A 
ATOM     12  C   UNL     1      -0.967   5.847  -1.160  0.00  0.00    +0.002 A 
ATOM     13  C   UNL     1      -2.121   5.093  -1.050  0.00  0.00    +0.002 A 
ATOM     14  C   UNL     1      -2.058   3.710  -1.068  0.00  0.00    +0.025 A 
ATOM     15  C   UNL     1      -0.828   3.086  -1.195  0.00  0.00    +0.049 A 
ATOM     16  N   UNL     1      -0.702   1.701  -1.106  0.00  0.00    -0.331 N 
ATOM     17  H   UNL     1       1.962   3.266  -2.395  0.00  0.00    +0.152 HD
ATOM     18  H   UNL     1      -1.083   1.141  -1.800  0.00  0.00    +0.147 HD
ENDROOT
BRANCH   1  22
ATOM     19  C   UNL     1      -1.872   2.389   3.627  0.00  0.00    -0.045 A 
ATOM     20  C   UNL     1      -1.864   1.046   3.298  0.00  0.00    +0.004 A 
ATOM     21  C   UNL     1      -1.262   0.624   2.127  0.00  0.00    +0.006 A 
ATOM     22  C   UNL     1      -0.669   1.545   1.284  0.00  0.00    -0.023 A 
ATOM     23  C   UNL     1      -0.672   2.888   1.616  0.00  0.00    +0.006 A 
ATOM     24  C   UNL     1      -1.277   3.309   2.784  0.00  0.00    +0.004 A 
BRANCH  19  26
ATOM     25  C   UNL     1      -1.490   3.543   5.788  0.00  0.00    +0.012 C 
ATOM     26  C   UNL     1      -2.528   2.848   4.903  0.00  0.00    +0.013 C 
ATOM     27  C   UNL     1      -3.655   3.828   4.573  0.00  0.00    +0.012 C 
ENDBRANCH  19  26
ENDBRANCH   1  22
BRANCH   5  28
ATOM     28  C   UNL     1       5.496   2.429   1.143  0.00  0.00    -0.040 A 
ATOM     29  C   UNL     1       6.373   1.679   0.380  0.00  0.00    +0.008 A 
ATOM     30  C   UNL     1       7.737   1.853   0.519  0.00  0.00    +0.049 A 
ATOM     31  C   UNL     1       8.229   2.772   1.431  0.00  0.00    +0.161 A 
ATOM     32  C   UNL     1       7.348   3.522   2.203  0.00  0.00    +0.162 A 
ATOM     33  C   UNL     1       5.981   3.347   2.055  0.00  0.00    +0.053 A 
BRANCH  32  34
ATOM     34  O   UNL     1       7.826   4.425   3.100  0.00  0.00    -0.491 OA
ATOM     35  C   UNL     1       6.862   5.160   3.858  0.00  0.00    +0.277 C 
ENDBRANCH  32  34
BRANCH  31  36
ATOM     36  O   UNL     1       9.572   2.940   1.573  0.00  0.00    -0.491 OA
ATOM     37  C   UNL     1      10.417   2.135   0.748  0.00  0.00    +0.277 C 
ENDBRANCH  31  36
ENDBRANCH   5  28
TORSDOF 5
