REMARK  Name = ZINC63738881
REMARK  10 active torsions:
REMARK  status: ('A' for Active; 'I' for Inactive)
REMARK    1  A    between atoms: C_1  and  C_2
REMARK    2  A    between atoms: C_2  and  C_4
REMARK    3  A    between atoms: C_2  and  N_10
REMARK    4  A    between atoms: C_4  and  C_5
REMARK    5  A    between atoms: C_11  and  C_13
REMARK    6  A    between atoms: C_13  and  C_15
REMARK    7  A    between atoms: C_13  and  C_16
REMARK    8  A    between atoms: C_22  and  C_24
REMARK    9  A    between atoms: C_30  and  O_34
REMARK   10  A    between atoms: O_34  and  C_35
REMARK                            x       y       z     vdW  Elec       q    Type
REMARK                         _______ _______ _______ _____ _____    ______ ____
ROOT
ATOM      1  C   UNL     1      -0.191  -1.204   4.756  0.00  0.00    +0.004 C 
ATOM      2  C   UNL     1      -1.336  -2.161   4.417  0.00  0.00    +0.023 C 
ATOM      3  C   UNL     1      -2.325  -2.203   5.587  0.00  0.00    +0.108 C 
ATOM      4  N   UNL     1      -1.592  -2.549   6.813  0.00  0.00    -0.300 N 
ATOM      5  C   UNL     1      -0.417  -1.748   7.184  0.00  0.00    +0.108 C 
ATOM      6  C   UNL     1       0.549  -1.711   5.996  0.00  0.00    +0.023 C 
ATOM      7  C   UNL     1      -1.990  -3.581   7.582  0.00  0.00    +0.242 C 
ATOM      8  O   UNL     1      -2.961  -4.235   7.266  0.00  0.00    -0.273 OA
ENDROOT
BRANCH   7   9
ATOM      9  C   UNL     1      -1.228  -3.924   8.837  0.00  0.00    +0.190 C 
ATOM     10  C   UNL     1       0.189  -4.324   8.493  0.00  0.00    +0.016 C 
ATOM     11  C   UNL     1       0.337  -5.596   8.924  0.00  0.00    -0.003 A 
ATOM     12  C   UNL     1       1.466  -6.533   8.883  0.00  0.00    +0.013 A 
ATOM     13  C   UNL     1       1.313  -7.769   9.405  0.00  0.00    +0.046 A 
ATOM     14  C   UNL     1       0.098  -8.180   9.986  0.00  0.00    +0.122 A 
ATOM     15  C   UNL     1      -0.987  -7.368  10.058  0.00  0.00    +0.071 A 
ATOM     16  C   UNL     1      -0.931  -6.050   9.540  0.00  0.00    +0.047 A 
ATOM     17  N   UNL     1      -1.830  -5.091   9.491  0.00  0.00    -0.370 N 
ATOM     18  H   UNL     1      -2.737  -5.145   9.830  0.00  0.00    +0.161 HD
BRANCH  14  19
ATOM     19  O   UNL     1       0.009  -9.434  10.493  0.00  0.00    -0.495 OA
ATOM     20  C   UNL     1       1.173 -10.257  10.397  0.00  0.00    +0.277 C 
ENDBRANCH  14  19
ENDBRANCH   7   9
BRANCH   1  21
ATOM     21  C   UNL     1       0.780  -1.133   3.576  0.00  0.00    +0.075 C 
ATOM     22  C   UNL     1       1.924  -0.175   3.914  0.00  0.00    +0.017 C 
BRANCH  21  24
ATOM     23  N   UNL     1       0.711  -0.489   1.189  0.00  0.00    -0.312 N 
ATOM     24  C   UNL     1       0.051  -0.633   2.355  0.00  0.00    +0.216 C 
ATOM     25  O   UNL     1      -1.129  -0.361   2.423  0.00  0.00    -0.276 OA
ATOM     26  H   UNL     1       1.654  -0.707   1.135  0.00  0.00    +0.149 HD
BRANCH  23  28
ATOM     27  C   UNL     1      -0.019   1.526   0.010  0.00  0.00    +0.028 C 
ATOM     28  C   UNL     1       0.002  -0.004   0.002  0.00  0.00    +0.077 C 
BRANCH  28  29
ATOM     29  C   UNL     1       0.718  -0.497  -1.257  0.00  0.00    +0.096 C 
BRANCH  29  30
ATOM     30  C   UNL     1       0.632  -2.000  -1.327  0.00  0.00    +0.107 A 
ATOM     31  C   UNL     1      -0.343  -2.705  -1.931  0.00  0.00    +0.045 A 
ATOM     32  C   UNL     1      -0.029  -4.072  -1.755  0.00  0.00    +0.041 A 
ATOM     33  C   UNL     1       1.119  -4.121  -1.055  0.00  0.00    +0.195 A 
ATOM     34  O   UNL     1       1.517  -2.864  -0.804  0.00  0.00    -0.468 OA
ENDBRANCH  29  30
ENDBRANCH  28  29
ENDBRANCH  23  28
ENDBRANCH  21  24
ENDBRANCH   1  21
TORSDOF 7
