REMARK  Name = ZINC32944100
REMARK  8 active torsions:
REMARK  status: ('A' for Active; 'I' for Inactive)
REMARK    1  A    between atoms: C_1  and  C_2
REMARK    2  A    between atoms: C_7  and  N_8
REMARK    3  A    between atoms: C_9  and  C_11
REMARK    4  A    between atoms: N_16  and  S_18
REMARK    5  A    between atoms: S_18  and  C_21
REMARK    6  A    between atoms: C_22  and  C_35
REMARK    7  A    between atoms: C_25  and  C_26
REMARK    8  A    between atoms: C_27  and  C_28
REMARK                            x       y       z     vdW  Elec       q    Type
REMARK                         _______ _______ _______ _____ _____    ______ ____
ROOT
ATOM      1  C   UNL     1      -3.787   5.895   0.283  0.00  0.00    +0.091 C 
ATOM      2  C   UNL     1      -4.517   5.413   1.539  0.00  0.00    +0.015 C 
ATOM      3  C   UNL     1      -5.865   6.128   1.654  0.00  0.00    +0.018 C 
ATOM      4  C   UNL     1      -5.629   7.637   1.780  0.00  0.00    +0.109 C 
ATOM      5  N   UNL     1      -4.804   8.083   0.649  0.00  0.00    -0.176 NA
ATOM      6  C   UNL     1      -3.528   7.400   0.394  0.00  0.00    +0.122 C 
ENDROOT
BRANCH   1   8
ATOM      7  N   UNL     1      -2.457   3.823   0.045  0.00  0.00    -0.285 N 
ATOM      8  C   UNL     1      -2.474   5.166   0.153  0.00  0.00    +0.222 C 
ATOM      9  O   UNL     1      -1.433   5.789   0.147  0.00  0.00    -0.275 OA
ATOM     10  H   UNL     1      -3.401   3.266  -0.041  0.00  0.00    +0.155 HD
BRANCH   7  17
ATOM     11  C   UNL     1      -2.350   1.280  -1.226  0.00  0.00    +0.046 C 
ATOM     12  C   UNL     1      -1.141   1.893  -0.568  0.00  0.00    -0.028 A 
ATOM     13  C   UNL     1       0.063   1.216  -0.566  0.00  0.00    +0.025 A 
ATOM     14  C   UNL     1       1.175   1.781   0.033  0.00  0.00    +0.041 A 
ATOM     15  C   UNL     1       1.083   3.023   0.636  0.00  0.00    +0.022 A 
ATOM     16  C   UNL     1      -0.119   3.702   0.642  0.00  0.00    +0.025 A 
ATOM     17  C   UNL     1      -1.237   3.137   0.041  0.00  0.00    +0.036 A 
ATOM     18 CL   UNL     1       2.688   0.929   0.029  0.00  0.00    -0.084 Cl
ENDBRANCH   7  17
ENDBRANCH   1   8
BRANCH   5  19
ATOM     19  S   UNL     1      -5.302   9.331  -0.319  0.00  0.00    +0.066 S 
ATOM     20  O   UNL     1      -4.647   9.162  -1.568  0.00  0.00    -0.153 OA
ATOM     21  O   UNL     1      -6.717   9.395  -0.202  0.00  0.00    -0.153 OA
BRANCH  19  22
ATOM     22  C   UNL     1      -4.671  10.818   0.384  0.00  0.00    +0.174 A 
ATOM     23  C   UNL     1      -3.439  11.448   0.122  0.00  0.00    +0.107 A 
ATOM     24  N   UNL     1      -3.399  12.517   0.867  0.00  0.00    -0.081 NA
ATOM     25  O   UNL     1      -4.399  12.642   1.535  0.00  0.00    -0.353 OA
ATOM     26  C   UNL     1      -5.268  11.638   1.311  0.00  0.00    +0.187 A 
ATOM     27  C   UNL     1      -2.373  10.977  -0.834  0.00  0.00    +0.071 C 
BRANCH  26  28
ATOM     28  C   UNL     1      -6.583  11.456   1.931  0.00  0.00    +0.052 C 
ATOM     29  C   UNL     1      -7.035  12.352   2.829  0.00  0.00    +0.014 C 
BRANCH  29  30
ATOM     30  C   UNL     1      -8.355  12.169   3.453  0.00  0.00    +0.010 A 
ATOM     31  C   UNL     1      -9.145  11.065   3.115  0.00  0.00    +0.011 A 
ATOM     32  C   UNL     1     -10.381  10.900   3.703  0.00  0.00    +0.001 A 
ATOM     33  C   UNL     1     -10.842  11.823   4.626  0.00  0.00    +0.003 A 
ATOM     34  C   UNL     1     -10.069  12.918   4.967  0.00  0.00    +0.039 A 
ATOM     35  C   UNL     1      -8.826  13.095   4.391  0.00  0.00    +0.131 A 
ATOM     36  F   UNL     1      -8.069  14.162   4.729  0.00  0.00    -0.205 F 
ENDBRANCH  29  30
ENDBRANCH  26  28
ENDBRANCH  19  22
ENDBRANCH   5  19
TORSDOF 6
