REMARK  Name = ZINC24165607
REMARK  9 active torsions:
REMARK  status: ('A' for Active; 'I' for Inactive)
REMARK    1  A    between atoms: C_1  and  C_2
REMARK    2  A    between atoms: C_2  and  C_4
REMARK    3  A    between atoms: C_2  and  S_17
REMARK    4  A    between atoms: N_6  and  C_7
REMARK    5  A    between atoms: S_17  and  C_18
REMARK    6  A    between atoms: C_21  and  C_30
REMARK    7  A    between atoms: N_22  and  C_23
REMARK    8  A    between atoms: C_23  and  C_24
REMARK    9  A    between atoms: C_30  and  N_31
REMARK                            x       y       z     vdW  Elec       q    Type
REMARK                         _______ _______ _______ _____ _____    ______ ____
ROOT
ATOM      1  C   UNL     1      -3.419   9.580  -1.615  0.00  0.00    +0.193 A 
ATOM      2  N   UNL     1      -2.514  10.181  -0.877  0.00  0.00    -0.123 NA
ATOM      3  N   UNL     1      -2.719  11.450  -0.883  0.00  0.00    -0.135 NA
ATOM      4  C   UNL     1      -3.762  11.732  -1.611  0.00  0.00    +0.118 A 
ATOM      5  N   UNL     1      -4.246  10.551  -2.103  0.00  0.00    -0.303 N 
ENDROOT
BRANCH   1   6
ATOM      6  S   UNL     1      -3.547   7.848  -1.912  0.00  0.00    -0.074 S 
BRANCH   6   8
ATOM      7  C   UNL     1      -0.838   7.790  -1.569  0.00  0.00    +0.029 C 
ATOM      8  C   UNL     1      -2.132   7.259  -0.950  0.00  0.00    +0.137 C 
BRANCH   8   9
ATOM      9  C   UNL     1      -2.112   5.752  -0.958  0.00  0.00    +0.227 C 
ATOM     10  O   UNL     1      -2.637   5.143  -1.866  0.00  0.00    -0.275 OA
ATOM     11  N   UNL     1      -1.510   5.081   0.044  0.00  0.00    -0.309 N 
ATOM     12  H   UNL     1      -1.033   5.633   0.867  0.00  0.00    +0.149 HD
BRANCH  11  13
ATOM     13  C   UNL     1      -1.490   3.616   0.036  0.00  0.00    +0.035 C 
ATOM     14  C   UNL     1      -0.773   3.123  -1.223  0.00  0.00    +0.029 C 
ATOM     15  C   UNL     1      -0.753   1.593  -1.232  0.00  0.00    -0.008 C 
ATOM     16  C   UNL     1      -0.013   1.086   0.008  0.00  0.00    +0.007 C 
ATOM     17  C   UNL     1      -0.729   1.579   1.267  0.00  0.00    -0.008 C 
ATOM     18  C   UNL     1      -0.750   3.109   1.275  0.00  0.00    +0.029 C 
ATOM     19  C   UNL     1      -2.164   1.050   1.278  0.00  0.00    +0.007 C 
ATOM     20  C   UNL     1      -2.904   1.556   0.038  0.00  0.00    -0.008 C 
ATOM     21  C   UNL     1      -2.188   1.063  -1.221  0.00  0.00    +0.007 C 
ATOM     22  C   UNL     1      -2.925   3.086   0.047  0.00  0.00    +0.029 C 
ENDBRANCH  11  13
ENDBRANCH   8   9
ENDBRANCH   6   8
ENDBRANCH   1   6
BRANCH   5  23
ATOM     23  C   UNL     1      -5.409  10.367  -2.974  0.00  0.00    +0.160 C 
BRANCH  23  24
ATOM     24  C   UNL     1      -6.642  10.168  -2.130  0.00  0.00    -0.028 A 
ATOM     25  C   UNL     1      -7.021   8.894  -1.750  0.00  0.00    +0.005 A 
ATOM     26  C   UNL     1      -8.149   8.712  -0.971  0.00  0.00    +0.000 A 
ATOM     27  C   UNL     1      -8.903   9.803  -0.582  0.00  0.00    +0.000 A 
ATOM     28  C   UNL     1      -8.527  11.076  -0.966  0.00  0.00    +0.000 A 
ATOM     29  C   UNL     1      -7.396  11.259  -1.740  0.00  0.00    +0.005 A 
ENDBRANCH  23  24
ENDBRANCH   5  23
BRANCH   4  30
ATOM     30  C   UNL     1      -4.330  13.105  -1.863  0.00  0.00    -0.001 C 
BRANCH  30  31
ATOM     31  N   UNL     1      -5.327  13.419  -0.831  0.00  0.00    +0.384 N 
ATOM     32  C   UNL     1      -4.765  13.225   0.530  0.00  0.00    -0.078 C 
ATOM     33  C   UNL     1      -5.704  14.072   1.425  0.00  0.00    -0.020 C 
ATOM     34  C   UNL     1      -6.008  15.303   0.541  0.00  0.00    -0.020 C 
ATOM     35  C   UNL     1      -5.733  14.840  -0.901  0.00  0.00    -0.078 C 
ATOM     36  H   UNL     1      -6.177  12.747  -1.022  0.00  0.00    -0.081 HD
ENDBRANCH  30  31
ENDBRANCH   4  30
TORSDOF 8
