REMARK  Name = ZINC35090310
REMARK  8 active torsions:
REMARK  status: ('A' for Active; 'I' for Inactive)
REMARK    1  A    between atoms: C_1  and  C_2
REMARK    2  A    between atoms: C_2  and  C_3
REMARK    3  A    between atoms: C_8  and  N_9
REMARK    4  A    between atoms: C_19  and  C_20
REMARK    5  A    between atoms: C_20  and  C_22
REMARK    6  A    between atoms: C_20  and  N_23
REMARK    7  A    between atoms: N_23  and  C_24
REMARK    8  A    between atoms: N_27  and  C_28
REMARK                            x       y       z     vdW  Elec       q    Type
REMARK                         _______ _______ _______ _____ _____    ______ ____
ROOT
ATOM      1  N   UNL     1      -1.567  -0.475  -2.398  0.00  0.00    -0.263 N 
ATOM      2  C   UNL     1      -0.983  -1.446  -3.138  0.00  0.00    +0.266 A 
ATOM      3  O   UNL     1      -0.903  -2.590  -2.730  0.00  0.00    -0.267 OA
ATOM      4  C   UNL     1      -0.447  -1.065  -4.453  0.00  0.00    +0.065 A 
ATOM      5  C   UNL     1       0.173  -1.989  -5.291  0.00  0.00    +0.015 A 
ATOM      6  C   UNL     1       0.657  -1.578  -6.514  0.00  0.00    +0.001 A 
ATOM      7  C   UNL     1       0.531  -0.254  -6.915  0.00  0.00    +0.002 A 
ATOM      8  C   UNL     1      -0.078   0.675  -6.101  0.00  0.00    +0.028 A 
ATOM      9  C   UNL     1      -0.577   0.282  -4.857  0.00  0.00    +0.078 A 
ATOM     10  N   UNL     1      -1.185   1.164  -4.024  0.00  0.00    -0.231 NA
ATOM     11  C   UNL     1      -1.653   0.798  -2.870  0.00  0.00    +0.138 A 
ENDROOT
BRANCH   1  17
ATOM     12  C   UNL     1      -1.277  -0.757  -0.016  0.00  0.00    -0.024 A 
ATOM     13  C   UNL     1      -1.801  -1.058   1.226  0.00  0.00    +0.005 A 
ATOM     14  C   UNL     1      -3.136  -1.393   1.352  0.00  0.00    +0.000 A 
ATOM     15  C   UNL     1      -3.952  -1.427   0.236  0.00  0.00    +0.002 A 
ATOM     16  C   UNL     1      -3.434  -1.127  -1.009  0.00  0.00    +0.026 A 
ATOM     17  C   UNL     1      -2.094  -0.785  -1.138  0.00  0.00    +0.054 A 
BRANCH  12  19
ATOM     18  C   UNL     1       0.335   1.127  -0.054  0.00  0.00    +0.009 C 
ATOM     19  C   UNL     1       0.179  -0.391  -0.152  0.00  0.00    +0.034 C 
ENDBRANCH  12  19
ENDBRANCH   1  17
BRANCH  11  20
ATOM     20  C   UNL     1      -2.320   1.838  -2.006  0.00  0.00    +0.141 C 
ATOM     21  C   UNL     1      -3.839   1.679  -2.099  0.00  0.00    +0.036 C 
BRANCH  20  22
ATOM     22  N   UNL     1      -1.940   3.174  -2.470  0.00  0.00    -0.279 N 
ATOM     23  C   UNL     1      -2.257   3.594  -3.837  0.00  0.00    +0.134 C 
ATOM     24  C   UNL     1      -1.298   4.019  -1.638  0.00  0.00    +0.307 C 
ATOM     25  O   UNL     1      -1.035   3.671  -0.503  0.00  0.00    -0.252 OA
ATOM     26  N   UNL     1      -0.948   5.248  -2.064  0.00  0.00    -0.268 N 
ATOM     27  H   UNL     1      -1.205   5.546  -2.951  0.00  0.00    +0.156 HD
BRANCH  26  28
ATOM     28  C   UNL     1      -0.213   6.096  -1.227  0.00  0.00    +0.049 A 
ATOM     29  C   UNL     1      -0.298   5.957   0.152  0.00  0.00    +0.024 A 
ATOM     30  C   UNL     1       0.429   6.795   0.976  0.00  0.00    +0.002 A 
ATOM     31  C   UNL     1       1.239   7.772   0.429  0.00  0.00    +0.001 A 
ATOM     32  C   UNL     1       1.325   7.915  -0.944  0.00  0.00    +0.017 A 
ATOM     33  C   UNL     1       0.606   7.076  -1.774  0.00  0.00    +0.039 A 
ATOM     34 BR   UNL     1       0.730   7.267  -3.651  0.00  0.00    -0.048 Br
ENDBRANCH  26  28
ENDBRANCH  20  22
ENDBRANCH  11  20
TORSDOF 5
