REMARK  Name = ZINC12541653
REMARK  6 active torsions:
REMARK  status: ('A' for Active; 'I' for Inactive)
REMARK    1  A    between atoms: C_3  and  C_6
REMARK    2  A    between atoms: C_9  and  C_32
REMARK    3  A    between atoms: C_12  and  C_14
REMARK    4  A    between atoms: C_14  and  O_15
REMARK    5  A    between atoms: O_15  and  C_16
REMARK    6  A    between atoms: C_16  and  C_18
REMARK                            x       y       z     vdW  Elec       q    Type
REMARK                         _______ _______ _______ _____ _____    ______ ____
ROOT
ATOM      1  C   UNL     1      -8.344   1.605  10.433  0.00  0.00    +0.173 C 
ATOM      2  C   UNL     1      -7.986   1.920  11.899  0.00  0.00    +0.090 C 
ATOM      3  C   UNL     1      -6.503   2.213  11.856  0.00  0.00    +0.069 C 
ATOM      4  N   UNL     1      -6.076   2.095  10.647  0.00  0.00    -0.181 NA
ATOM      5  N   UNL     1      -7.060   1.740   9.727  0.00  0.00    -0.179 N 
ATOM      6  C   UNL     1      -6.869   1.555   8.406  0.00  0.00    +0.273 C 
ATOM      7  O   UNL     1      -7.802   1.246   7.695  0.00  0.00    -0.270 OA
ENDROOT
BRANCH   3   8
ATOM      8  C   UNL     1      -5.674   2.578  13.020  0.00  0.00    -0.002 A 
ATOM      9  C   UNL     1      -6.251   2.683  14.288  0.00  0.00    +0.011 A 
ATOM     10  C   UNL     1      -5.470   3.019  15.373  0.00  0.00    +0.020 A 
ATOM     11  C   UNL     1      -4.117   3.265  15.205  0.00  0.00    +0.041 A 
ATOM     12  C   UNL     1      -3.539   3.168  13.950  0.00  0.00    +0.020 A 
ATOM     13  C   UNL     1      -4.309   2.827  12.858  0.00  0.00    +0.011 A 
ATOM     14 CL   UNL     1      -3.141   3.695  16.575  0.00  0.00    -0.084 Cl
ENDBRANCH   3   8
BRANCH   1  17
ATOM     15  C   UNL     1     -11.216   3.567   9.211  0.00  0.00    +0.041 A 
ATOM     16  C   UNL     1     -10.658   2.370   9.716  0.00  0.00    +0.046 A 
ATOM     17  C   UNL     1      -9.346   2.599   9.905  0.00  0.00    +0.128 A 
ATOM     18  O   UNL     1      -9.082   3.867   9.547  0.00  0.00    -0.466 OA
ATOM     19  C   UNL     1     -10.211   4.456   9.120  0.00  0.00    +0.195 A 
ENDBRANCH   1  17
BRANCH   6  20
ATOM     20  C   UNL     1      -5.495   1.732   7.812  0.00  0.00    +0.330 C 
BRANCH  20  21
ATOM     21  O   UNL     1      -5.550   1.479   6.383  0.00  0.00    -0.452 OA
BRANCH  21  22
ATOM     22  C   UNL     1      -4.397   1.596   5.696  0.00  0.00    +0.340 C 
ATOM     23  O   UNL     1      -3.373   1.901   6.276  0.00  0.00    -0.245 OA
BRANCH  22  24
ATOM     24  C   UNL     1      -4.376   1.353   4.241  0.00  0.00    +0.060 A 
ATOM     25  C   UNL     1      -5.565   1.002   3.591  0.00  0.00    +0.017 A 
ATOM     26  C   UNL     1      -5.618   0.765   2.243  0.00  0.00    +0.027 A 
ATOM     27  C   UNL     1      -4.427   0.884   1.523  0.00  0.00    +0.047 A 
ATOM     28  C   UNL     1      -3.214   1.238   2.172  0.00  0.00    +0.004 A 
ATOM     29  C   UNL     1      -3.170   1.479   3.545  0.00  0.00    +0.025 A 
ATOM     30  C   UNL     1      -2.201   1.266   1.137  0.00  0.00    -0.019 A 
ATOM     31  C   UNL     1      -2.813   0.948  -0.024  0.00  0.00    +0.020 A 
ATOM     32  N   UNL     1      -4.145   0.718   0.201  0.00  0.00    -0.358 N 
ATOM     33  H   UNL     1      -4.791   0.473  -0.480  0.00  0.00    +0.166 HD
ATOM     34  C   UNL     1      -2.099   0.869  -1.354  0.00  0.00    +0.053 C 
ATOM     35  C   UNL     1      -0.755   1.594  -1.232  0.00  0.00    +0.006 C 
ATOM     36  C   UNL     1      -0.013   1.086   0.008  0.00  0.00    +0.005 C 
ATOM     37  C   UNL     1      -0.732   1.581   1.268  0.00  0.00    +0.037 C 
ENDBRANCH  22  24
ENDBRANCH  21  22
ENDBRANCH  20  21
ENDBRANCH   6  20
TORSDOF 6
