REMARK  Name = ZINC63230290
REMARK  11 active torsions:
REMARK  status: ('A' for Active; 'I' for Inactive)
REMARK    1  A    between atoms: C_1  and  N_2
REMARK    2  A    between atoms: N_2  and  C_3
REMARK    3  A    between atoms: N_2  and  C_4
REMARK    4  A    between atoms: C_7  and  C_10
REMARK    5  A    between atoms: C_10  and  C_12
REMARK    6  A    between atoms: C_10  and  C_25
REMARK    7  A    between atoms: C_12  and  N_13
REMARK    8  A    between atoms: C_14  and  C_16
REMARK    9  A    between atoms: C_20  and  N_22
REMARK   10  A    between atoms: N_22  and  C_23
REMARK   11  A    between atoms: N_22  and  C_24
REMARK                            x       y       z     vdW  Elec       q    Type
REMARK                         _______ _______ _______ _____ _____    ______ ____
ROOT
ATOM      1  C   UNL     1       0.018  -2.779  -4.948  0.00  0.00    +0.064 C 
ENDROOT
BRANCH   1   2
ATOM      2  C   UNL     1       1.241  -2.415  -5.751  0.00  0.00    -0.033 C 
ATOM      3  C   UNL     1       2.212  -3.254  -6.178  0.00  0.00    -0.000 A 
ATOM      4  C   UNL     1       2.415  -4.700  -6.028  0.00  0.00    +0.010 A 
ATOM      5  C   UNL     1       3.510  -5.270  -6.579  0.00  0.00    +0.001 A 
ATOM      6  C   UNL     1       4.455  -4.516  -7.288  0.00  0.00    +0.002 A 
ATOM      7  C   UNL     1       4.339  -3.183  -7.468  0.00  0.00    +0.026 A 
ATOM      8  C   UNL     1       3.225  -2.480  -6.931  0.00  0.00    +0.043 A 
ATOM      9  N   UNL     1       2.892  -1.212  -6.969  0.00  0.00    -0.380 N 
ATOM     10  C   UNL     1       1.627  -1.040  -6.247  0.00  0.00    +0.145 C 
ATOM     11  H   UNL     1       3.397  -0.507  -7.404  0.00  0.00    +0.160 HD
ENDBRANCH   1   2
BRANCH   1  15
ATOM     12  C   UNL     1       0.047  -0.626  -1.256  0.00  0.00    +0.029 A 
ATOM     13  C   UNL     1       0.050  -2.015  -1.252  0.00  0.00    +0.023 A 
ATOM     14  C   UNL     1       0.040  -2.708  -2.447  0.00  0.00    +0.006 A 
ATOM     15  C   UNL     1       0.028  -2.020  -3.646  0.00  0.00    -0.039 A 
ATOM     16  C   UNL     1       0.025  -0.637  -3.654  0.00  0.00    +0.006 A 
ATOM     17  C   UNL     1       0.029   0.061  -2.463  0.00  0.00    +0.023 A 
BRANCH  12  19
ATOM     18  C   UNL     1       0.047   1.542  -0.055  0.00  0.00    +0.129 C 
ATOM     19  N   UNL     1       0.057   0.077  -0.049  0.00  0.00    -0.336 N 
ATOM     20  C   UNL     1       0.076  -0.650   1.222  0.00  0.00    +0.129 C 
ENDBRANCH  12  19
ENDBRANCH   1  15
BRANCH   1  21
ATOM     21  C   UNL     1      -1.239  -2.416  -5.741  0.00  0.00    +0.117 C 
BRANCH  21  22
ATOM     22  N   UNL     1      -1.309  -3.240  -6.950  0.00  0.00    -0.310 N 
ATOM     23  C   UNL     1      -2.339  -3.093  -7.807  0.00  0.00    +0.244 C 
ATOM     24  O   UNL     1      -3.209  -2.277  -7.577  0.00  0.00    -0.270 OA
ATOM     25  H   UNL     1      -0.615  -3.892  -7.133  0.00  0.00    +0.149 HD
BRANCH  23  26
ATOM     26  C   UNL     1      -2.410  -3.926  -9.027  0.00  0.00    +0.038 A 
ATOM     27  C   UNL     1      -1.415  -4.869  -9.290  0.00  0.00    +0.013 A 
ATOM     28  C   UNL     1      -1.483  -5.644 -10.430  0.00  0.00    +0.003 A 
ATOM     29  C   UNL     1      -2.535  -5.491 -11.313  0.00  0.00    +0.023 A 
ATOM     30  C   UNL     1      -3.531  -4.556 -11.060  0.00  0.00    +0.030 A 
ATOM     31  C   UNL     1      -3.474  -3.776  -9.915  0.00  0.00    +0.036 A 
BRANCH  30  32
ATOM     32  N   UNL     1      -4.592  -4.405 -11.957  0.00  0.00    -0.336 N 
ATOM     33  C   UNL     1      -4.591  -5.141 -13.224  0.00  0.00    +0.129 C 
ATOM     34  C   UNL     1      -5.705  -3.510 -11.630  0.00  0.00    +0.129 C 
ENDBRANCH  30  32
ENDBRANCH  23  26
ENDBRANCH  21  22
ENDBRANCH   1  21
TORSDOF 7
