REMARK  Name = ZINC40978828
REMARK  12 active torsions:
REMARK  status: ('A' for Active; 'I' for Inactive)
REMARK    1  A    between atoms: C_1  and  C_2
REMARK    2  A    between atoms: C_2  and  O_3
REMARK    3  A    between atoms: O_3  and  C_4
REMARK    4  A    between atoms: C_6  and  C_19
REMARK    5  A    between atoms: C_9  and  O_10
REMARK    6  A    between atoms: O_10  and  C_11
REMARK    7  A    between atoms: C_11  and  C_12
REMARK    8  A    between atoms: C_21  and  C_30
REMARK    9  A    between atoms: C_22  and  C_29
REMARK   10  A    between atoms: C_30  and  O_32
REMARK   11  A    between atoms: O_32  and  C_33
REMARK   12  A    between atoms: C_33  and  C_34
REMARK                            x       y       z     vdW  Elec       q    Type
REMARK                         _______ _______ _______ _____ _____    ______ ____
ROOT
ATOM      1  C   UNL     1      -1.756  -1.977  -0.367  0.00  0.00    +0.162 A 
ATOM      2  C   UNL     1      -0.609  -2.736  -0.203  0.00  0.00    +0.055 A 
ATOM      3  C   UNL     1      -0.688  -4.116  -0.196  0.00  0.00    -0.015 A 
ATOM      4  C   UNL     1      -1.911  -4.742  -0.352  0.00  0.00    +0.010 A 
ATOM      5  C   UNL     1      -3.060  -3.991  -0.517  0.00  0.00    +0.050 A 
ATOM      6  C   UNL     1      -2.988  -2.607  -0.519  0.00  0.00    +0.162 A 
ENDROOT
BRANCH   3   7
ATOM      7  C   UNL     1       0.561  -4.940  -0.017  0.00  0.00    +0.181 C 
ATOM      8  C   UNL     1       0.427  -5.794   1.217  0.00  0.00    +0.082 C 
ATOM      9  C   UNL     1       0.247  -7.123   1.172  0.00  0.00    +0.020 C 
ATOM     10  N   UNL     1       0.180  -7.814  -0.012  0.00  0.00    -0.286 N 
ATOM     11  C   UNL     1       0.562  -7.144  -1.164  0.00  0.00    +0.240 A 
ATOM     12  N   UNL     1       0.749  -5.798  -1.181  0.00  0.00    -0.201 N 
ATOM     13  N   UNL     1       1.129  -5.488  -2.486  0.00  0.00    -0.042 NA
ATOM     14  N   UNL     1       1.141  -6.605  -3.139  0.00  0.00    -0.021 NA
ATOM     15  N   UNL     1       0.806  -7.582  -2.366  0.00  0.00    -0.092 NA
ATOM     16  C   UNL     1       0.113  -7.882   2.467  0.00  0.00    +0.061 C 
ATOM     17  H   UNL     1      -0.121  -8.736  -0.041  0.00  0.00    +0.155 HD
BRANCH   8  18
ATOM     18  C   UNL     1       0.496  -5.166   2.480  0.00  0.00    +0.339 C 
ATOM     19  O   UNL     1       1.568  -4.781   2.911  0.00  0.00    -0.245 OA
BRANCH  18  20
ATOM     20  O   UNL     1      -0.626  -4.993   3.210  0.00  0.00    -0.457 OA
BRANCH  20  21
ATOM     21  C   UNL     1      -0.482  -4.350   4.478  0.00  0.00    +0.259 C 
BRANCH  21  22
ATOM     22  C   UNL     1      -1.831  -4.245   5.144  0.00  0.00    +0.006 C 
ATOM     23  C   UNL     1      -1.961  -4.550   6.411  0.00  0.00    +0.007 C 
ENDBRANCH  21  22
ENDBRANCH  20  21
ENDBRANCH  18  20
ENDBRANCH   8  18
ENDBRANCH   3   7
BRANCH   1  24
ATOM     24  O   UNL     1      -1.680  -0.619  -0.375  0.00  0.00    -0.489 OA
BRANCH  24  26
ATOM     25  C   UNL     1      -0.497   1.484  -0.248  0.00  0.00    +0.048 C 
ATOM     26  C   UNL     1      -0.383  -0.042  -0.214  0.00  0.00    +0.226 C 
ENDBRANCH  24  26
ENDBRANCH   1  24
BRANCH   6  27
ATOM     27  O   UNL     1      -4.118  -1.867  -0.675  0.00  0.00    -0.484 OA
BRANCH  27  28
ATOM     28  C   UNL     1      -5.346  -2.581  -0.825  0.00  0.00    +0.266 C 
BRANCH  28  29
ATOM     29  C   UNL     1      -6.481  -1.602  -0.985  0.00  0.00    +0.008 A 
ATOM     30  C   UNL     1      -6.227  -0.243  -0.975  0.00  0.00    +0.008 A 
ATOM     31  C   UNL     1      -7.267   0.656  -1.121  0.00  0.00    +0.000 A 
ATOM     32  C   UNL     1      -8.562   0.196  -1.278  0.00  0.00    +0.001 A 
ATOM     33  C   UNL     1      -8.816  -1.163  -1.288  0.00  0.00    +0.020 A 
ATOM     34  C   UNL     1      -7.775  -2.062  -1.147  0.00  0.00    +0.047 A 
ATOM     35 CL   UNL     1      -8.093  -3.769  -1.166  0.00  0.00    -0.083 Cl
ENDBRANCH  28  29
ENDBRANCH  27  28
ENDBRANCH   6  27
TORSDOF 10
