REMARK  Name = ZINC39725621
REMARK  5 active torsions:
REMARK  status: ('A' for Active; 'I' for Inactive)
REMARK    1  A    between atoms: C_10  and  N_11
REMARK    2  A    between atoms: C_12  and  C_14
REMARK    3  A    between atoms: C_14  and  S_15
REMARK    4  A    between atoms: S_15  and  C_16
REMARK    5  A    between atoms: N_30  and  C_31
REMARK                            x       y       z     vdW  Elec       q    Type
REMARK                         _______ _______ _______ _____ _____    ______ ____
ROOT
ATOM      1  C   UNL     1      10.173   0.138   0.520  0.00  0.00    +0.259 C 
ATOM      2  N   UNL     1      10.410   0.872  -0.726  0.00  0.00    -0.248 NA
ATOM      3  C   UNL     1      10.415   2.162  -0.738  0.00  0.00    +0.101 C 
ATOM      4  C   UNL     1      10.615   3.197  -1.779  0.00  0.00    +0.028 A 
ATOM      5  C   UNL     1      10.870   3.163  -3.136  0.00  0.00    +0.012 A 
ATOM      6  C   UNL     1      11.007   4.349  -3.843  0.00  0.00    +0.001 A 
ATOM      7  C   UNL     1      10.887   5.564  -3.192  0.00  0.00    +0.002 A 
ATOM      8  C   UNL     1      10.631   5.616  -1.836  0.00  0.00    +0.028 A 
ATOM      9  C   UNL     1      10.491   4.431  -1.104  0.00  0.00    +0.074 A 
ATOM     10  N   UNL     1      10.242   4.206   0.210  0.00  0.00    -0.240 NA
ATOM     11  C   UNL     1      10.182   2.938   0.510  0.00  0.00    +0.152 C 
ATOM     12  C   UNL     1       9.941   2.213   1.775  0.00  0.00    +0.274 C 
ATOM     13  O   UNL     1       9.747   2.826   2.807  0.00  0.00    -0.268 OA
ATOM     14  N   UNL     1       9.938   0.864   1.770  0.00  0.00    -0.232 N 
ENDROOT
BRANCH  14  15
ATOM     15  C   UNL     1       9.712   0.161   2.958  0.00  0.00    +0.075 A 
ATOM     16  C   UNL     1       8.432  -0.273   3.277  0.00  0.00    +0.026 A 
ATOM     17  C   UNL     1       8.211  -0.967   4.451  0.00  0.00    +0.002 A 
ATOM     18  C   UNL     1       9.263  -1.231   5.309  0.00  0.00    +0.003 A 
ATOM     19  C   UNL     1      10.539  -0.802   4.996  0.00  0.00    +0.040 A 
ATOM     20  C   UNL     1      10.769  -0.112   3.820  0.00  0.00    +0.145 A 
ATOM     21  F   UNL     1      12.017   0.302   3.511  0.00  0.00    -0.204 F 
ENDBRANCH  14  15
BRANCH   1  22
ATOM     22  S   UNL     1       8.740  -0.940   0.246  0.00  0.00    -0.106 S 
BRANCH  22  23
ATOM     23  C   UNL     1       7.342   0.211   0.126  0.00  0.00    +0.168 C 
BRANCH  23  25
ATOM     24  N   UNL     1       4.881   0.081  -0.081  0.00  0.00    -0.284 N 
ATOM     25  C   UNL     1       6.057  -0.569   0.019  0.00  0.00    +0.227 C 
ATOM     26  O   UNL     1       6.081  -1.781   0.024  0.00  0.00    -0.275 OA
ATOM     27  H   UNL     1       4.866   1.047  -0.168  0.00  0.00    +0.155 HD
BRANCH  24  37
ATOM     28  C   UNL     1       0.219   0.901  -1.834  0.00  0.00    +0.001 A 
ATOM     29  C   UNL     1       1.404   1.633  -1.866  0.00  0.00    +0.001 A 
ATOM     30  C   UNL     1       2.542   1.150  -1.294  0.00  0.00    +0.010 A 
ATOM     31  C   UNL     1       2.524  -0.103  -0.663  0.00  0.00    +0.003 A 
ATOM     32  C   UNL     1       1.319  -0.849  -0.629  0.00  0.00    -0.016 A 
ATOM     33  C   UNL     1       0.165  -0.318  -1.230  0.00  0.00    +0.008 A 
ATOM     34  C   UNL     1       1.300  -2.103   0.003  0.00  0.00    +0.008 A 
ATOM     35  C   UNL     1       2.433  -2.593   0.577  0.00  0.00    +0.002 A 
ATOM     36  C   UNL     1       3.622  -1.870   0.551  0.00  0.00    +0.024 A 
ATOM     37  C   UNL     1       3.683  -0.636  -0.059  0.00  0.00    +0.041 A 
ENDBRANCH  24  37
ENDBRANCH  23  25
ENDBRANCH  22  23
ENDBRANCH   1  22
TORSDOF 5
