REMARK  Name = ZINC12006690
REMARK  9 active torsions:
REMARK  status: ('A' for Active; 'I' for Inactive)
REMARK    1  A    between atoms: C_1  and  C_2
REMARK    2  A    between atoms: C_2  and  C_3
REMARK    3  A    between atoms: C_12  and  N_21
REMARK    4  A    between atoms: C_14  and  C_16
REMARK    5  A    between atoms: C_22  and  C_24
REMARK    6  A    between atoms: C_27  and  C_30
REMARK    7  A    between atoms: C_30  and  C_31
REMARK    8  A    between atoms: C_30  and  C_32
REMARK    9  A    between atoms: C_30  and  C_33
REMARK                            x       y       z     vdW  Elec       q    Type
REMARK                         _______ _______ _______ _____ _____    ______ ____
ROOT
ATOM      1  C   UNL     1       0.580   6.910   0.058  0.00  0.00    +0.050 A 
ATOM      2  C   UNL     1       0.326   8.250   0.071  0.00  0.00    +0.093 A 
ATOM      3  C   UNL     1      -1.012   8.688   0.077  0.00  0.00    +0.253 A 
ATOM      4  O   UNL     1      -1.276   9.879   0.088  0.00  0.00    -0.268 OA
ATOM      5  N   UNL     1      -1.996   7.765   0.066  0.00  0.00    -0.291 N 
ATOM      6  H   UNL     1      -2.925   8.043   0.066  0.00  0.00    +0.172 HD
ATOM      7  C   UNL     1      -1.681   6.442   0.058  0.00  0.00    +0.234 A 
ATOM      8  N   UNL     1      -0.429   6.040   0.052  0.00  0.00    -0.217 NA
ATOM      9  N   UNL     1      -2.695   5.504   0.050  0.00  0.00    -0.184 N 
ATOM     10  C   UNL     1      -2.533   4.147   0.037  0.00  0.00    +0.133 A 
ATOM     11  C   UNL     1      -3.768   3.585   0.040  0.00  0.00    +0.077 A 
ATOM     12  C   UNL     1      -4.718   4.629   0.050  0.00  0.00    +0.130 A 
ATOM     13  N   UNL     1      -4.069   5.775   0.052  0.00  0.00    -0.159 NA
ENDROOT
BRANCH  12  14
ATOM     14  C   UNL     1      -6.186   4.464   0.056  0.00  0.00    +0.155 A 
ATOM     15  C   UNL     1      -7.102   5.469   0.071  0.00  0.00    +0.051 A 
ATOM     16  C   UNL     1      -8.373   4.861   0.068  0.00  0.00    +0.042 A 
ATOM     17  C   UNL     1      -8.172   3.529   0.060  0.00  0.00    +0.196 A 
ATOM     18  O   UNL     1      -6.850   3.292   0.053  0.00  0.00    -0.461 OA
ENDBRANCH  12  14
BRANCH  10  19
ATOM     19  N   UNL     1      -1.320   3.464   0.027  0.00  0.00    -0.266 N 
ATOM     20  C   UNL     1      -1.305   2.117   0.020  0.00  0.00    +0.249 C 
ATOM     21  O   UNL     1      -2.351   1.497   0.021  0.00  0.00    -0.270 OA
ATOM     22  H   UNL     1      -0.485   3.958   0.026  0.00  0.00    +0.157 HD
BRANCH  20  23
ATOM     23  C   UNL     1      -0.017   1.392   0.010  0.00  0.00    +0.037 A 
ATOM     24  C   UNL     1       1.186   2.100   0.002  0.00  0.00    +0.013 A 
ATOM     25  C   UNL     1       2.385   1.417  -0.013  0.00  0.00    +0.005 A 
ATOM     26  C   UNL     1       2.396   0.034  -0.021  0.00  0.00    -0.042 A 
ATOM     27  C   UNL     1       1.208  -0.674  -0.013  0.00  0.00    +0.005 A 
ATOM     28  C   UNL     1       0.002  -0.004   0.002  0.00  0.00    +0.013 A 
BRANCH  26  29
ATOM     29  C   UNL     1       3.710  -0.705  -0.038  0.00  0.00    -0.013 C 
ATOM     30  C   UNL     1       3.788  -1.577  -1.293  0.00  0.00    +0.015 C 
ATOM     31  C   UNL     1       4.862   0.302  -0.044  0.00  0.00    +0.015 C 
ATOM     32  C   UNL     1       3.813  -1.591   1.205  0.00  0.00    +0.015 C 
ENDBRANCH  26  29
ENDBRANCH  20  23
ENDBRANCH  10  19
BRANCH   1  34
ATOM     33  C   UNL     1       2.445   6.113   1.485  0.00  0.00    +0.010 C 
ATOM     34  C   UNL     1       2.002   6.414   0.051  0.00  0.00    +0.052 C 
ENDBRANCH   1  34
TORSDOF 5
