REMARK  Name = ZINC36660311
REMARK  13 active torsions:
REMARK  status: ('A' for Active; 'I' for Inactive)
REMARK    1  A    between atoms: C_1  and  C_2
REMARK    2  A    between atoms: C_2  and  N_3
REMARK    3  A    between atoms: N_3  and  C_4
REMARK    4  A    between atoms: N_3  and  C_6
REMARK    5  A    between atoms: C_4  and  C_5
REMARK    6  A    between atoms: C_6  and  C_7
REMARK    7  A    between atoms: C_7  and  N_8
REMARK    8  A    between atoms: C_12  and  C_19
REMARK    9  A    between atoms: C_15  and  C_18
REMARK   10  A    between atoms: C_20  and  C_22
REMARK   11  A    between atoms: N_27  and  S_28
REMARK   12  A    between atoms: S_28  and  C_31
REMARK   13  A    between atoms: C_34  and  C_37
REMARK                            x       y       z     vdW  Elec       q    Type
REMARK                         _______ _______ _______ _____ _____    ______ ____
ROOT
ATOM      1  N   UNL     1       0.924  -3.929  -2.231  0.00  0.00    -0.251 N 
ATOM      2  C   UNL     1      -0.160  -4.528  -2.851  0.00  0.00    +0.168 A 
ATOM      3  N   UNL     1      -1.098  -3.976  -3.585  0.00  0.00    -0.224 NA
ATOM      4  C   UNL     1      -2.106  -4.689  -4.132  0.00  0.00    +0.083 A 
ATOM      5  C   UNL     1      -3.171  -4.221  -4.936  0.00  0.00    -0.024 A 
ATOM      6  C   UNL     1      -4.120  -5.086  -5.415  0.00  0.00    +0.006 A 
ATOM      7  C   UNL     1      -4.072  -6.443  -5.132  0.00  0.00    +0.005 A 
ATOM      8  C   UNL     1      -3.044  -6.936  -4.349  0.00  0.00    -0.035 A 
ATOM      9  C   UNL     1      -2.090  -6.077  -3.865  0.00  0.00    +0.044 A 
ATOM     10  S   UNL     1      -0.634  -6.252  -2.861  0.00  0.00    -0.052 S 
ATOM     11  C   UNL     1      -2.974  -8.407  -4.029  0.00  0.00    +0.045 C 
ATOM     12  C   UNL     1      -3.264  -2.754  -5.269  0.00  0.00    +0.046 C 
ATOM     13  C   UNL     1       1.844  -4.686  -1.601  0.00  0.00    +0.240 C 
ATOM     14  O   UNL     1       2.744  -4.158  -0.983  0.00  0.00    -0.273 OA
ENDROOT
BRANCH  13  15
ATOM     15  C   UNL     1       1.754  -6.189  -1.665  0.00  0.00    +0.166 C 
ATOM     16  C   UNL     1       2.104  -6.676  -3.087  0.00  0.00    +0.031 C 
ATOM     17  C   UNL     1       3.599  -7.069  -2.961  0.00  0.00    +0.019 C 
ATOM     18  C   UNL     1       3.651  -7.639  -1.522  0.00  0.00    +0.110 C 
ATOM     19  N   UNL     1       2.729  -6.788  -0.742  0.00  0.00    -0.165 NA
BRANCH  19  20
ATOM     20  S   UNL     1       2.784  -6.545   0.895  0.00  0.00    +0.062 S 
ATOM     21  O   UNL     1       4.120  -6.811   1.300  0.00  0.00    -0.153 OA
ATOM     22  O   UNL     1       2.146  -5.300   1.143  0.00  0.00    -0.153 OA
BRANCH  20  23
ATOM     23  C   UNL     1       1.777  -7.785   1.640  0.00  0.00    +0.106 A 
ATOM     24  C   UNL     1       0.432  -7.547   1.851  0.00  0.00    +0.029 A 
ATOM     25  C   UNL     1      -0.358  -8.519   2.435  0.00  0.00    +0.005 A 
ATOM     26  C   UNL     1       0.197  -9.729   2.808  0.00  0.00    -0.050 A 
ATOM     27  C   UNL     1       1.542  -9.967   2.595  0.00  0.00    +0.005 A 
ATOM     28  C   UNL     1       2.331  -8.997   2.007  0.00  0.00    +0.029 A 
ATOM     29  C   UNL     1      -0.664 -10.789   3.445  0.00  0.00    +0.044 C 
ENDBRANCH  20  23
ENDBRANCH  19  20
ENDBRANCH  13  15
BRANCH   1  30
ATOM     30  C   UNL     1       1.071  -2.471  -2.260  0.00  0.00    +0.097 C 
BRANCH  30  31
ATOM     31  C   UNL     1       0.470  -1.873  -0.987  0.00  0.00    -0.059 C 
BRANCH  31  32
ATOM     32  N   UNL     1       0.731  -0.427  -0.955  0.00  0.00    +0.380 N 
ATOM     33  H   UNL     1       1.722  -0.263  -1.054  0.00  0.00    -0.082 HD
BRANCH  32  35
ATOM     34  C   UNL     1       0.384   1.709  -2.101  0.00  0.00    -0.017 C 
ATOM     35  C   UNL     1       0.014   0.225  -2.058  0.00  0.00    -0.082 C 
ENDBRANCH  32  35
BRANCH  32  36
ATOM     36  C   UNL     1       0.268   0.126   0.325  0.00  0.00    -0.082 C 
ATOM     37  C   UNL     1       1.111  -0.451   1.464  0.00  0.00    -0.017 C 
ENDBRANCH  32  36
ENDBRANCH  31  32
ENDBRANCH  30  31
ENDBRANCH   1  30
TORSDOF 8
