REMARK  Name = ZINC35513191
REMARK  12 active torsions:
REMARK  status: ('A' for Active; 'I' for Inactive)
REMARK    1  A    between atoms: C_1  and  C_2
REMARK    2  A    between atoms: C_2  and  C_3
REMARK    3  A    between atoms: C_3  and  O_4
REMARK    4  A    between atoms: O_4  and  C_5
REMARK    5  A    between atoms: C_8  and  C_14
REMARK    6  A    between atoms: C_10  and  O_11
REMARK    7  A    between atoms: O_11  and  C_12
REMARK    8  A    between atoms: C_12  and  C_13
REMARK    9  A    between atoms: C_21  and  C_38
REMARK   10  A    between atoms: C_22  and  C_37
REMARK   11  A    between atoms: C_32  and  C_36
REMARK   12  A    between atoms: C_33  and  C_35
REMARK                            x       y       z     vdW  Elec       q    Type
REMARK                         _______ _______ _______ _____ _____    ______ ____
ROOT
ATOM      1  C   UNL     1       3.243  -4.423  -5.653  0.00  0.00    +0.152 C 
ATOM      2  C   UNL     1       4.726  -4.402  -5.479  0.00  0.00    +0.072 A 
ATOM      3  C   UNL     1       5.585  -4.974  -4.438  0.00  0.00    +0.199 A 
ATOM      4  O   UNL     1       5.178  -5.745  -3.587  0.00  0.00    -0.287 OA
ATOM      5  C   UNL     1       6.998  -4.524  -4.519  0.00  0.00    +0.065 A 
ATOM      6  C   UNL     1       7.893  -4.818  -3.490  0.00  0.00    +0.019 A 
ATOM      7  C   UNL     1       9.189  -4.392  -3.577  0.00  0.00    -0.047 A 
ATOM      8  C   UNL     1       9.614  -3.670  -4.684  0.00  0.00    -0.044 A 
ATOM      9  C   UNL     1       8.745  -3.373  -5.709  0.00  0.00    +0.050 A 
ATOM     10  C   UNL     1       7.418  -3.798  -5.645  0.00  0.00    +0.140 A 
ATOM     11  O   UNL     1       6.584  -3.504  -6.668  0.00  0.00    -0.450 OA
ATOM     12  C   UNL     1       5.258  -3.701  -6.525  0.00  0.00    +0.199 A 
ATOM     13  C   UNL     1       4.154  -3.250  -7.388  0.00  0.00    +0.289 C 
ATOM     14  O   UNL     1       4.287  -2.596  -8.403  0.00  0.00    -0.266 OA
ATOM     15  N   UNL     1       2.972  -3.668  -6.888  0.00  0.00    -0.232 N 
ATOM     16  C   UNL     1       1.720  -3.429  -7.439  0.00  0.00    +0.169 A 
ATOM     17  N   UNL     1       0.543  -3.808  -6.990  0.00  0.00    -0.229 NA
ATOM     18  C   UNL     1      -0.565  -3.498  -7.635  0.00  0.00    +0.050 A 
ATOM     19  C   UNL     1      -0.433  -2.775  -8.775  0.00  0.00    +0.011 A 
ATOM     20  S   UNL     1       1.340  -2.578  -8.840  0.00  0.00    -0.057 S 
ATOM     21  C   UNL     1      -1.491  -2.272  -9.723  0.00  0.00    +0.053 C 
ATOM     22  C   UNL     1      -1.918  -3.928  -7.129  0.00  0.00    +0.066 C 
ATOM     23  C   UNL     1      11.046  -3.205  -4.763  0.00  0.00    +0.044 C 
ATOM     24  C   UNL     1      10.159  -4.707  -2.468  0.00  0.00    +0.044 C 
ENDROOT
BRANCH   1  28
ATOM     25  C   UNL     1       1.342  -2.530  -2.323  0.00  0.00    +0.162 A 
ATOM     26  C   UNL     1       1.908  -1.763  -3.329  0.00  0.00    +0.050 A 
ATOM     27  C   UNL     1       2.522  -2.378  -4.404  0.00  0.00    +0.009 A 
ATOM     28  C   UNL     1       2.573  -3.758  -4.479  0.00  0.00    -0.018 A 
ATOM     29  C   UNL     1       2.009  -4.529  -3.479  0.00  0.00    +0.055 A 
ATOM     30  C   UNL     1       1.397  -3.918  -2.396  0.00  0.00    +0.162 A 
BRANCH  25  31
ATOM     31  O   UNL     1       0.738  -1.926  -1.265  0.00  0.00    -0.488 OA
BRANCH  31  32
ATOM     32  C   UNL     1       0.718  -0.497  -1.257  0.00  0.00    +0.229 C 
BRANCH  32  34
ATOM     33  C   UNL     1      -0.019   1.526   0.010  0.00  0.00    +0.007 C 
ATOM     34  C   UNL     1       0.002  -0.004   0.002  0.00  0.00    +0.038 C 
ENDBRANCH  32  34
ENDBRANCH  31  32
ENDBRANCH  25  31
BRANCH  30  35
ATOM     35  O   UNL     1       0.847  -4.675  -1.408  0.00  0.00    -0.489 OA
BRANCH  35  36
ATOM     36  C   UNL     1       0.942  -6.094  -1.549  0.00  0.00    +0.226 C 
ATOM     37  C   UNL     1       0.273  -6.771  -0.352  0.00  0.00    +0.048 C 
ENDBRANCH  35  36
ENDBRANCH  30  35
ENDBRANCH   1  28
TORSDOF 6
