REMARK  Name = ZINC09115056
REMARK  3 active torsions:
REMARK  status: ('A' for Active; 'I' for Inactive)
REMARK    1  A    between atoms: C_1  and  N_2
REMARK    2  A    between atoms: C_12  and  C_20
REMARK    3  A    between atoms: N_22  and  C_23
REMARK                            x       y       z     vdW  Elec       q    Type
REMARK                         _______ _______ _______ _____ _____    ______ ____
ROOT
ATOM      1  C   UNL     1       0.736   2.693  -3.172  0.00  0.00    +0.138 C 
ATOM      2  N   UNL     1      -0.228   2.802  -2.074  0.00  0.00    -0.275 N 
ATOM      3  C   UNL     1      -0.322   3.907  -1.226  0.00  0.00    +0.038 A 
ATOM      4  C   UNL     1       0.404   5.096  -1.196  0.00  0.00    +0.024 A 
ATOM      5  C   UNL     1       0.122   6.057  -0.247  0.00  0.00    +0.002 A 
ATOM      6  C   UNL     1      -0.884   5.850   0.679  0.00  0.00    +0.000 A 
ATOM      7  C   UNL     1      -1.611   4.673   0.655  0.00  0.00    +0.004 A 
ATOM      8  C   UNL     1      -1.332   3.710  -0.289  0.00  0.00    -0.027 A 
ATOM      9  C   UNL     1      -1.913   2.356  -0.587  0.00  0.00    +0.052 C 
ATOM     10  C   UNL     1      -1.126   1.847  -1.766  0.00  0.00    +0.214 C 
ATOM     11  O   UNL     1      -1.274   0.783  -2.330  0.00  0.00    -0.276 OA
ATOM     12  C   UNL     1      -1.777   1.414   0.615  0.00  0.00    +0.076 C 
ATOM     13  C   UNL     1      -2.988   0.466   0.496  0.00  0.00    -0.003 C 
ATOM     14  C   UNL     1      -3.956   1.150  -0.477  0.00  0.00    -0.066 C 
ATOM     15  C   UNL     1      -3.973   3.482  -0.043  0.00  0.00    -0.077 C 
ATOM     16  C   UNL     1      -5.434   3.002   0.127  0.00  0.00    -0.020 C 
ATOM     17  C   UNL     1      -5.284   1.467   0.225  0.00  0.00    -0.017 C 
ATOM     18  N   UNL     1      -3.356   2.419  -0.860  0.00  0.00    +0.394 N 
ATOM     19  H   UNL     1      -3.516   2.603  -1.857  0.00  0.00    -0.079 HD
ENDROOT
BRANCH  12  20
ATOM     20  C   UNL     1      -0.488   0.637   0.533  0.00  0.00    +0.220 C 
ATOM     21  O   UNL     1      -0.464  -0.439  -0.027  0.00  0.00    -0.275 OA
ATOM     22  N   UNL     1       0.635   1.134   1.087  0.00  0.00    -0.282 N 
ATOM     23  H   UNL     1       0.632   2.023   1.475  0.00  0.00    +0.155 HD
BRANCH  22  24
ATOM     24  C   UNL     1       1.808   0.367   1.103  0.00  0.00    +0.083 A 
ATOM     25  C   UNL     1       2.520   0.159  -0.073  0.00  0.00    +0.148 A 
ATOM     26  C   UNL     1       3.677  -0.598  -0.055  0.00  0.00    +0.078 A 
ATOM     27  C   UNL     1       4.126  -1.148   1.134  0.00  0.00    +0.127 A 
ATOM     28  C   UNL     1       3.418  -0.943   2.306  0.00  0.00    +0.055 A 
ATOM     29  C   UNL     1       2.264  -0.182   2.294  0.00  0.00    +0.045 A 
ATOM     30 BR   UNL     1       1.302   0.104   3.897  0.00  0.00    -0.048 Br
ATOM     31  F   UNL     1       5.257  -1.887   1.150  0.00  0.00    -0.205 F 
ATOM     32  F   UNL     1       2.082   0.696  -1.233  0.00  0.00    -0.203 F 
ENDBRANCH  22  24
ENDBRANCH  12  20
TORSDOF 2
