REMARK  Name = ZINC16474188
REMARK  9 active torsions:
REMARK  status: ('A' for Active; 'I' for Inactive)
REMARK    1  A    between atoms: C_1  and  C_2
REMARK    2  A    between atoms: C_5  and  N_8
REMARK    3  A    between atoms: C_9  and  C_11
REMARK    4  A    between atoms: C_12  and  C_31
REMARK    5  A    between atoms: C_17  and  C_19
REMARK    6  A    between atoms: C_21  and  N_28
REMARK    7  A    between atoms: C_22  and  O_27
REMARK    8  A    between atoms: C_23  and  O_25
REMARK    9  A    between atoms: O_25  and  C_26
REMARK                            x       y       z     vdW  Elec       q    Type
REMARK                         _______ _______ _______ _____ _____    ______ ____
ROOT
ATOM      1  C   UNL     1       0.220  -6.260   1.687  0.00  0.00    +0.056 C 
ATOM      2  C   UNL     1       0.159  -7.051   2.779  0.00  0.00    +0.017 C 
ATOM      3  N   UNL     1       0.106  -8.411   2.662  0.00  0.00    -0.300 N 
ATOM      4  C   UNL     1       0.109  -9.056   1.489  0.00  0.00    +0.135 C 
ATOM      5  S   UNL     1       0.038 -10.766   1.484  0.00  0.00    -0.019 S 
ATOM      6  N   UNL     1       0.166  -8.402   0.311  0.00  0.00    -0.315 N 
ATOM      7  C   UNL     1       0.220  -6.931   0.328  0.00  0.00    +0.139 C 
ATOM      8  C   UNL     1       0.151  -6.424   4.149  0.00  0.00    +0.061 C 
ATOM      9  H   UNL     1       0.064  -8.938   3.474  0.00  0.00    +0.154 HD
ATOM     10  H   UNL     1       0.167  -8.890  -0.528  0.00  0.00    +0.149 HD
ENDROOT
BRANCH   7  11
ATOM     11  C   UNL     1       1.470  -6.509  -0.399  0.00  0.00    -0.017 A 
ATOM     12  C   UNL     1       2.682  -7.098  -0.086  0.00  0.00    +0.042 A 
ATOM     13  C   UNL     1       3.832  -6.714  -0.750  0.00  0.00    +0.171 A 
ATOM     14  C   UNL     1       3.772  -5.737  -1.732  0.00  0.00    +0.189 A 
ATOM     15  C   UNL     1       2.553  -5.145  -2.046  0.00  0.00    +0.164 A 
ATOM     16  C   UNL     1       1.403  -5.537  -1.380  0.00  0.00    +0.055 A 
BRANCH  13  17
ATOM     17  N   UNL     1       5.127  -7.346  -0.413  0.00  0.00    +0.060 N 
ATOM     18  O   UNL     1       5.179  -8.198   0.443  0.00  0.00    -0.126 OA
ATOM     19  O   UNL     1       6.133  -7.011  -0.994  0.00  0.00    -0.126 OA
ENDBRANCH  13  17
BRANCH  15  20
ATOM     20  O   UNL     1       2.490  -4.186  -3.008  0.00  0.00    -0.491 OA
ATOM     21  C   UNL     1       1.222  -3.559  -3.217  0.00  0.00    +0.277 C 
ENDBRANCH  15  20
BRANCH  14  22
ATOM     22  O   UNL     1       4.903  -5.358  -2.385  0.00  0.00    -0.502 OA
ATOM     23  H   UNL     1       5.085  -5.871  -3.185  0.00  0.00    +0.292 HD
ENDBRANCH  14  22
ENDBRANCH   7  11
BRANCH   1  25
ATOM     24  N   UNL     1       1.415  -4.252   2.208  0.00  0.00    -0.282 N 
ATOM     25  C   UNL     1       0.276  -4.850   1.807  0.00  0.00    +0.248 C 
ATOM     26  O   UNL     1      -0.706  -4.177   1.547  0.00  0.00    -0.270 OA
ATOM     27  H   UNL     1       2.230  -4.771   2.296  0.00  0.00    +0.155 HD
BRANCH  24  32
ATOM     28  C   UNL     1       1.446   1.296   3.387  0.00  0.00    +0.044 C 
ATOM     29  C   UNL     1       1.438  -0.178   3.074  0.00  0.00    -0.050 A 
ATOM     30  C   UNL     1       2.269  -1.036   3.771  0.00  0.00    +0.005 A 
ATOM     31  C   UNL     1       2.264  -2.387   3.486  0.00  0.00    +0.023 A 
ATOM     32  C   UNL     1       1.422  -2.884   2.499  0.00  0.00    +0.034 A 
ATOM     33  C   UNL     1       0.588  -2.020   1.802  0.00  0.00    +0.023 A 
ATOM     34  C   UNL     1       0.594  -0.670   2.095  0.00  0.00    +0.005 A 
ENDBRANCH  24  32
ENDBRANCH   1  25
TORSDOF 6
