REMARK  Name = ZINC20108239
REMARK  12 active torsions:
REMARK  status: ('A' for Active; 'I' for Inactive)
REMARK    1  A    between atoms: C_1  and  C_2
REMARK    2  A    between atoms: C_2  and  O_3
REMARK    3  A    between atoms: O_3  and  C_4
REMARK    4  A    between atoms: C_4  and  C_6
REMARK    5  A    between atoms: N_9  and  C_12
REMARK    6  A    between atoms: C_12  and  C_14
REMARK    7  A    between atoms: C_12  and  C_26
REMARK    8  A    between atoms: C_19  and  N_20
REMARK    9  A    between atoms: N_28  and  C_29
REMARK   10  A    between atoms: C_32  and  C_35
REMARK   11  A    between atoms: C_35  and  C_36
REMARK   12  A    between atoms: C_35  and  C_37
REMARK                            x       y       z     vdW  Elec       q    Type
REMARK                         _______ _______ _______ _____ _____    ______ ____
ROOT
ATOM      1  C   UNL     1       2.386  -4.174  -0.282  0.00  0.00    +0.053 C 
ENDROOT
BRANCH   1   2
ATOM      2  C   UNL     1       1.417  -4.598   0.790  0.00  0.00    -0.018 A 
ATOM      3  C   UNL     1       1.089  -3.723   1.810  0.00  0.00    +0.054 A 
ATOM      4  C   UNL     1       0.198  -4.112   2.797  0.00  0.00    +0.167 A 
ATOM      5  C   UNL     1      -0.366  -5.385   2.760  0.00  0.00    +0.168 A 
ATOM      6  C   UNL     1      -0.033  -6.256   1.735  0.00  0.00    +0.082 A 
ATOM      7  C   UNL     1       0.853  -5.860   0.751  0.00  0.00    +0.132 A 
ATOM      8  O   UNL     1      -1.201  -5.523   3.830  0.00  0.00    -0.453 OA
ATOM      9  C   UNL     1      -0.830  -4.475   4.745  0.00  0.00    +0.466 C 
ATOM     10  O   UNL     1      -0.284  -3.453   3.891  0.00  0.00    -0.453 OA
BRANCH   7  11
ATOM     11  N   UNL     1       1.203  -6.790  -0.346  0.00  0.00    +0.057 N 
ATOM     12  O   UNL     1       0.621  -7.855  -0.450  0.00  0.00    -0.126 OA
ATOM     13  O   UNL     1       2.073  -6.492  -1.144  0.00  0.00    -0.126 OA
ENDBRANCH   7  11
ENDBRANCH   1   2
BRANCH   1  17
ATOM     14  C   UNL     1       6.508  -4.914   0.580  0.00  0.00    +0.094 C 
ATOM     15  C   UNL     1       5.982  -5.143  -0.839  0.00  0.00    -0.004 C 
ATOM     16  C   UNL     1       4.682  -4.358  -1.029  0.00  0.00    -0.077 C 
ATOM     17  N   UNL     1       3.690  -4.806  -0.042  0.00  0.00    +0.390 N 
ATOM     18  C   UNL     1       4.153  -4.553   1.328  0.00  0.00    -0.077 C 
ATOM     19  C   UNL     1       5.438  -5.343   1.588  0.00  0.00    -0.004 C 
ATOM     20  H   UNL     1       3.568  -5.893  -0.159  0.00  0.00    -0.080 HD
BRANCH  14  21
ATOM     21  C   UNL     1       7.757  -5.730   0.792  0.00  0.00    +0.310 C 
ATOM     22  O   UNL     1       8.184  -6.424  -0.100  0.00  0.00    -0.251 OA
BRANCH  21  23
ATOM     23  O   UNL     1       8.395  -5.686   1.972  0.00  0.00    -0.465 OA
BRANCH  23  25
ATOM     24  C   UNL     1      10.176  -6.319   3.507  0.00  0.00    +0.048 C 
ATOM     25  C   UNL     1       9.592  -6.498   2.105  0.00  0.00    +0.229 C 
ENDBRANCH  23  25
ENDBRANCH  21  23
ENDBRANCH  14  21
ENDBRANCH   1  17
BRANCH   1  26
ATOM     26  C   UNL     1       2.541  -2.675  -0.254  0.00  0.00    +0.208 C 
ATOM     27  O   UNL     1       3.537  -2.178   0.228  0.00  0.00    -0.277 OA
ATOM     28  N   UNL     1       1.575  -1.888  -0.766  0.00  0.00    -0.287 N 
ATOM     29  H   UNL     1       0.635  -2.333  -1.125  0.00  0.00    +0.155 HD
BRANCH  28  30
ATOM     30  C   UNL     1       1.766  -0.504  -0.841  0.00  0.00    +0.033 A 
ATOM     31  C   UNL     1       3.029   0.011  -1.101  0.00  0.00    +0.023 A 
ATOM     32  C   UNL     1       3.215   1.378  -1.174  0.00  0.00    +0.006 A 
ATOM     33  C   UNL     1       2.144   2.233  -0.989  0.00  0.00    -0.045 A 
ATOM     34  C   UNL     1       0.885   1.724  -0.730  0.00  0.00    +0.006 A 
ATOM     35  C   UNL     1       0.693   0.358  -0.655  0.00  0.00    +0.023 A 
BRANCH  33  36
ATOM     36  C   UNL     1       2.351   3.724  -1.070  0.00  0.00    +0.013 C 
ATOM     37  C   UNL     1       1.481   4.299  -2.190  0.00  0.00    +0.012 C 
ATOM     38  C   UNL     1       1.958   4.366   0.262  0.00  0.00    +0.012 C 
ENDBRANCH  33  36
ENDBRANCH  28  30
ENDBRANCH   1  26
TORSDOF 9
