REMARK  Name = ZINC40067168
REMARK  18 active torsions:
REMARK  status: ('A' for Active; 'I' for Inactive)
REMARK    1  A    between atoms: C_1  and  C_2
REMARK    2  A    between atoms: C_2  and  O_3
REMARK    3  A    between atoms: O_3  and  C_4
REMARK    4  A    between atoms: C_6  and  C_16
REMARK    5  A    between atoms: C_9  and  O_10
REMARK    6  A    between atoms: O_10  and  C_11
REMARK    7  A    between atoms: C_11  and  C_12
REMARK    8  A    between atoms: C_12  and  C_13
REMARK    9  A    between atoms: C_13  and  C_14
REMARK   10  A    between atoms: C_13  and  C_15
REMARK   11  A    between atoms: C_18  and  C_30
REMARK   12  A    between atoms: N_22  and  C_23
REMARK   13  A    between atoms: C_23  and  C_24
REMARK   14  A    between atoms: C_24  and  O_25
REMARK   15  A    between atoms: O_25  and  C_26
REMARK   16  A    between atoms: C_26  and  C_27
REMARK   17  A    between atoms: C_27  and  O_28
REMARK   18  A    between atoms: C_30  and  C_32
REMARK                            x       y       z     vdW  Elec       q    Type
REMARK                         _______ _______ _______ _____ _____    ______ ____
ROOT
ATOM      1  C   UNL     1       0.074  -4.481   0.528  0.00  0.00    +0.145 C 
ATOM      2  C   UNL     1      -1.314  -4.305   1.098  0.00  0.00    +0.077 C 
ATOM      3  C   UNL     1      -1.194  -4.354   2.444  0.00  0.00    +0.249 C 
ATOM      4  C   UNL     1       0.226  -4.557   2.797  0.00  0.00    +0.288 C 
ATOM      5  O   UNL     1       0.656  -4.643   3.930  0.00  0.00    -0.266 OA
ATOM      6  N   UNL     1       0.973  -4.633   1.679  0.00  0.00    -0.281 N 
ATOM      7  O   UNL     1      -2.213  -4.236   3.327  0.00  0.00    -0.282 OA
ENDROOT
BRANCH   1  10
ATOM      8  C   UNL     1       0.653  -0.886  -0.479  0.00  0.00    +0.162 A 
ATOM      9  C   UNL     1       0.297  -2.003   0.260  0.00  0.00    +0.055 A 
ATOM     10  C   UNL     1       0.463  -3.267  -0.276  0.00  0.00    -0.019 A 
ATOM     11  C   UNL     1       0.984  -3.420  -1.547  0.00  0.00    +0.009 A 
ATOM     12  C   UNL     1       1.342  -2.310  -2.289  0.00  0.00    +0.050 A 
ATOM     13  C   UNL     1       1.173  -1.040  -1.760  0.00  0.00    +0.162 A 
BRANCH   8  14
ATOM     14  O   UNL     1       0.491   0.358   0.046  0.00  0.00    -0.489 OA
BRANCH  14  16
ATOM     15  C   UNL     1      -0.008   1.904   1.835  0.00  0.00    +0.048 C 
ATOM     16  C   UNL     1       0.065   0.437   1.408  0.00  0.00    +0.226 C 
ENDBRANCH  14  16
ENDBRANCH   8  14
BRANCH  13  17
ATOM     17  O   UNL     1       1.519   0.054  -2.491  0.00  0.00    -0.488 OA
BRANCH  17  18
ATOM     18  C   UNL     1       2.046  -0.180  -3.799  0.00  0.00    +0.229 C 
BRANCH  18  19
ATOM     19  C   UNL     1       2.375   1.159  -4.462  0.00  0.00    +0.044 C 
BRANCH  19  20
ATOM     20  C   UNL     1       2.939   0.909  -5.862  0.00  0.00    -0.014 C 
ATOM     21  C   UNL     1       1.859   0.276  -6.742  0.00  0.00    +0.007 C 
ATOM     22  C   UNL     1       3.384   2.237  -6.478  0.00  0.00    +0.007 C 
ENDBRANCH  19  20
ENDBRANCH  18  19
ENDBRANCH  17  18
ENDBRANCH  13  17
ENDBRANCH   1  10
BRANCH   2  23
ATOM     23  C   UNL     1      -2.555  -4.116   0.336  0.00  0.00    +0.202 C 
ATOM     24  O   UNL     1      -3.589  -3.836   0.916  0.00  0.00    -0.286 OA
BRANCH  23  25
ATOM     25  C   UNL     1      -2.550  -4.264  -1.121  0.00  0.00    +0.059 A 
ATOM     26  C   UNL     1      -3.546  -3.949  -2.038  0.00  0.00    +0.019 A 
ATOM     27  C   UNL     1      -3.247  -4.203  -3.353  0.00  0.00    +0.008 A 
ATOM     28  C   UNL     1      -2.035  -4.730  -3.665  0.00  0.00    +0.046 A 
ATOM     29  S   UNL     1      -1.261  -4.889  -2.183  0.00  0.00    -0.093 S 
ENDBRANCH  23  25
ENDBRANCH   2  23
BRANCH   6  30
ATOM     30  C   UNL     1       2.423  -4.832   1.621  0.00  0.00    +0.137 C 
BRANCH  30  31
ATOM     31  C   UNL     1       3.125  -3.472   1.635  0.00  0.00    +0.179 C 
BRANCH  31  32
ATOM     32  O   UNL     1       2.882  -2.824   2.885  0.00  0.00    -0.376 OA
BRANCH  32  33
ATOM     33  C   UNL     1       3.497  -1.539   3.002  0.00  0.00    +0.187 C 
BRANCH  33  34
ATOM     34  C   UNL     1       3.172  -0.941   4.372  0.00  0.00    +0.184 C 
BRANCH  34  35
ATOM     35  O   UNL     1       3.770  -1.741   5.395  0.00  0.00    -0.393 OA
ATOM     36  H   UNL     1       3.604  -1.421   6.292  0.00  0.00    +0.209 HD
ENDBRANCH  34  35
ENDBRANCH  33  34
ENDBRANCH  32  33
ENDBRANCH  31  32
ENDBRANCH  30  31
ENDBRANCH   6  30
TORSDOF 15
