REMARK  Name = ZINC52308776
REMARK  7 active torsions:
REMARK  status: ('A' for Active; 'I' for Inactive)
REMARK    1  A    between atoms: C_1  and  C_2
REMARK    2  A    between atoms: C_4  and  S_8
REMARK    3  A    between atoms: N_5  and  C_7
REMARK    4  A    between atoms: S_8  and  C_9
REMARK    5  A    between atoms: C_9  and  C_10
REMARK    6  A    between atoms: N_12  and  C_13
REMARK    7  A    between atoms: C_14  and  N_21
REMARK                            x       y       z     vdW  Elec       q    Type
REMARK                         _______ _______ _______ _____ _____    ______ ____
ROOT
ATOM      1  C   UNL     1      -0.167  -6.363  -1.113  0.00  0.00    +0.228 C 
ATOM      2  O   UNL     1      -0.719  -6.461  -2.188  0.00  0.00    -0.275 OA
ATOM      3  N   UNL     1       0.583  -7.381  -0.645  0.00  0.00    -0.282 N 
ATOM      4  H   UNL     1       1.089  -7.273   0.176  0.00  0.00    +0.155 HD
ENDROOT
BRANCH   3   5
ATOM      5  C   UNL     1       0.634  -8.595  -1.345  0.00  0.00    +0.073 A 
ATOM      6  C   UNL     1       0.369  -9.794  -0.685  0.00  0.00    +0.049 A 
ATOM      7  C   UNL     1       0.420 -10.992  -1.383  0.00  0.00    +0.044 A 
ATOM      8  C   UNL     1       0.732 -10.994  -2.731  0.00  0.00    +0.044 A 
ATOM      9  C   UNL     1       0.994  -9.804  -3.386  0.00  0.00    +0.042 A 
ATOM     10  C   UNL     1       0.941  -8.605  -2.698  0.00  0.00    +0.065 A 
ATOM     11 CL   UNL     1       1.263  -7.114  -3.527  0.00  0.00    -0.082 Cl
ATOM     12 CL   UNL     1       0.795 -12.494  -3.602  0.00  0.00    -0.083 Cl
BRANCH   6  13
ATOM     13  N   UNL     1       0.055  -9.790   0.678  0.00  0.00    -0.356 N 
ATOM     14  H   UNL     1       0.020  -8.952   1.165  0.00  0.00    +0.142 HD
ATOM     15  H   UNL     1      -0.129 -10.625   1.136  0.00  0.00    +0.142 HD
ENDBRANCH   6  13
ENDBRANCH   3   5
BRANCH   1  16
ATOM     16  C   UNL     1      -0.320  -5.104  -0.299  0.00  0.00    +0.171 C 
BRANCH  16  17
ATOM     17  S   UNL     1      -1.380  -3.933  -1.191  0.00  0.00    -0.097 S 
BRANCH  17  21
ATOM     18  C   UNL     1      -0.051  -0.265   2.458  0.00  0.00    +0.067 C 
ATOM     19  C   UNL     1      -0.776  -0.957   1.333  0.00  0.00    +0.061 A 
ATOM     20  C   UNL     1      -0.454  -2.208   0.801  0.00  0.00    +0.059 A 
ATOM     21  C   UNL     1      -1.343  -2.480  -0.195  0.00  0.00    +0.095 A 
ATOM     22  N   UNL     1      -2.194  -1.425  -0.281  0.00  0.00    -0.261 N 
ATOM     23  N   UNL     1      -1.817  -0.490   0.692  0.00  0.00    -0.176 NA
ATOM     24  C   UNL     1      -3.311  -1.290  -1.220  0.00  0.00    +0.173 C 
ENDBRANCH  17  21
ENDBRANCH  16  17
ENDBRANCH   1  16
TORSDOF 5
