REMARK  Name = ZINC18197759
REMARK  8 active torsions:
REMARK  status: ('A' for Active; 'I' for Inactive)
REMARK    1  A    between atoms: C_1  and  O_2
REMARK    2  A    between atoms: O_2  and  C_3
REMARK    3  A    between atoms: C_6  and  C_11
REMARK    4  A    between atoms: C_8  and  O_9
REMARK    5  A    between atoms: O_9  and  C_10
REMARK    6  A    between atoms: C_16  and  C_26
REMARK    7  A    between atoms: C_23  and  O_24
REMARK    8  A    between atoms: C_31  and  O_32
REMARK                            x       y       z     vdW  Elec       q    Type
REMARK                         _______ _______ _______ _____ _____    ______ ____
ROOT
ATOM      1  C   UNL     1       0.971   5.477  -4.187  0.00  0.00    +0.032 C 
ATOM      2  C   UNL     1       1.447   4.386  -5.148  0.00  0.00    +0.059 C 
ATOM      3  C   UNL     1       1.683   3.102  -4.386  0.00  0.00    +0.017 C 
ATOM      4  C   UNL     1       0.953   2.803  -3.290  0.00  0.00    +0.024 C 
ATOM      5  C   UNL     1       1.147   1.522  -2.507  0.00  0.00    +0.096 C 
ATOM      6  C   UNL     1       1.983   0.564  -3.307  0.00  0.00    +0.067 A 
ATOM      7  C   UNL     1       2.688   0.952  -4.415  0.00  0.00    +0.126 A 
ATOM      8  N   UNL     1       3.330  -0.130  -4.894  0.00  0.00    -0.260 N 
ATOM      9  H   UNL     1       3.926  -0.155  -5.696  0.00  0.00    +0.190 HD
ATOM     10  N   UNL     1       3.011  -1.218  -4.065  0.00  0.00    -0.134 NA
ATOM     11  C   UNL     1       2.204  -0.797  -3.116  0.00  0.00    +0.237 A 
ATOM     12  N   UNL     1       2.659   2.266  -4.867  0.00  0.00    -0.303 N 
ATOM     13  C   UNL     1      -0.038   3.686  -2.820  0.00  0.00    +0.162 C 
ATOM     14  O   UNL     1      -0.683   3.385  -1.835  0.00  0.00    -0.292 OA
ATOM     15  C   UNL     1      -0.315   4.993  -3.508  0.00  0.00    +0.088 C 
ATOM     16  H   UNL     1       3.313   2.584  -5.508  0.00  0.00    +0.153 HD
ENDROOT
BRANCH   5  17
ATOM     17  C   UNL     1       1.842   1.830  -1.206  0.00  0.00    +0.007 A 
ATOM     18  C   UNL     1       3.096   2.409  -1.213  0.00  0.00    +0.023 A 
ATOM     19  C   UNL     1       3.735   2.692  -0.019  0.00  0.00    +0.018 A 
ATOM     20  C   UNL     1       3.119   2.396   1.184  0.00  0.00    +0.019 A 
ATOM     21  C   UNL     1       1.863   1.822   1.195  0.00  0.00    +0.047 A 
ATOM     22  C   UNL     1       1.223   1.532  -0.001  0.00  0.00    +0.121 A 
ATOM     23 BR   UNL     1       5.452   3.485  -0.031  0.00  0.00    -0.050 Br
BRANCH  22  24
ATOM     24  O   UNL     1      -0.011   0.963   0.007  0.00  0.00    -0.506 OA
ATOM     25  H   UNL     1       0.002  -0.004   0.002  0.00  0.00    +0.292 HD
ENDBRANCH  22  24
ENDBRANCH   5  17
BRANCH   1  29
ATOM     26  C   UNL     1       0.183   9.070  -6.369  0.00  0.00    +0.161 A 
ATOM     27  C   UNL     1      -0.512   7.909  -6.666  0.00  0.00    +0.049 A 
ATOM     28  C   UNL     1      -0.251   6.748  -5.963  0.00  0.00    +0.008 A 
ATOM     29  C   UNL     1       0.695   6.744  -4.955  0.00  0.00    -0.040 A 
ATOM     30  C   UNL     1       1.392   7.899  -4.653  0.00  0.00    +0.053 A 
ATOM     31  C   UNL     1       1.139   9.065  -5.358  0.00  0.00    +0.162 A 
BRANCH  26  33
ATOM     32  C   UNL     1      -1.063  10.143  -8.087  0.00  0.00    +0.277 C 
ATOM     33  O   UNL     1      -0.068  10.212  -7.064  0.00  0.00    -0.491 OA
ENDBRANCH  26  33
BRANCH  31  34
ATOM     34  O   UNL     1       1.824  10.202  -5.062  0.00  0.00    -0.491 OA
ATOM     35  C   UNL     1       2.791  10.123  -4.013  0.00  0.00    +0.277 C 
ENDBRANCH  31  34
ENDBRANCH   1  29
BRANCH  11  36
ATOM     36  O   UNL     1       1.677  -1.559  -2.121  0.00  0.00    -0.491 OA
ATOM     37  H   UNL     1       1.997  -2.502  -2.218  0.00  0.00    +0.294 HD
ENDBRANCH  11  36
TORSDOF 6
