REMARK  Name = ZINC09542684
REMARK  6 active torsions:
REMARK  status: ('A' for Active; 'I' for Inactive)
REMARK    1  A    between atoms: C_1  and  C_2
REMARK    2  A    between atoms: C_2  and  C_3
REMARK    3  A    between atoms: C_6  and  C_9
REMARK    4  A    between atoms: C_11  and  C_24
REMARK    5  A    between atoms: C_13  and  C_16
REMARK    6  A    between atoms: C_21  and  O_22
REMARK                            x       y       z     vdW  Elec       q    Type
REMARK                         _______ _______ _______ _____ _____    ______ ____
ROOT
ATOM      1  C   UNL     1       1.765   0.186   1.649  0.00  0.00    +0.040 C 
ATOM      2  N   UNL     1       0.873  -0.513   1.054  0.00  0.00    -0.298 NA
ATOM      3  C   UNL     1       0.002  -0.004   0.002  0.00  0.00    +0.082 C 
ATOM      4  C   UNL     1       1.357   1.991  -0.000  0.00  0.00    -0.028 C 
ATOM      5  C   UNL     1       2.016   1.635   1.336  0.00  0.00    +0.044 C 
ATOM      6  N   UNL     1      -0.022   1.466   0.010  0.00  0.00    +0.401 N 
ATOM      7  H   UNL     1      -0.505   1.794   0.855  0.00  0.00    -0.081 HD
ATOM      8  H   UNL     1      -0.521   1.804  -0.822  0.00  0.00    -0.081 HD
ENDROOT
BRANCH   3   9
ATOM      9  C   UNL     1      -1.396  -0.521   0.222  0.00  0.00    -0.022 A 
ATOM     10  C   UNL     1      -2.484   0.266  -0.110  0.00  0.00    +0.006 A 
ATOM     11  C   UNL     1      -3.767  -0.210   0.087  0.00  0.00    +0.020 A 
ATOM     12  C   UNL     1      -3.963  -1.469   0.626  0.00  0.00    +0.042 A 
ATOM     13  C   UNL     1      -2.876  -2.254   0.964  0.00  0.00    +0.040 A 
ATOM     14  C   UNL     1      -1.591  -1.780   0.762  0.00  0.00    +0.046 A 
ATOM     15 CL   UNL     1      -0.226  -2.764   1.184  0.00  0.00    -0.083 Cl
ATOM     16 CL   UNL     1      -5.574  -2.063   0.880  0.00  0.00    -0.083 Cl
ENDBRANCH   3   9
BRANCH   4  17
ATOM     17  C   UNL     1       1.327   3.488  -0.169  0.00  0.00    -0.018 A 
ATOM     18  C   UNL     1       0.212   4.205   0.220  0.00  0.00    +0.020 A 
ATOM     19  C   UNL     1       0.183   5.579   0.066  0.00  0.00    +0.018 A 
ATOM     20  C   UNL     1       1.270   6.239  -0.479  0.00  0.00    +0.019 A 
ATOM     21  C   UNL     1       2.387   5.526  -0.870  0.00  0.00    +0.047 A 
ATOM     22  C   UNL     1       2.420   4.148  -0.710  0.00  0.00    +0.119 A 
ATOM     23 BR   UNL     1      -1.345   6.558   0.600  0.00  0.00    -0.050 Br
BRANCH  22  24
ATOM     24  O   UNL     1       3.521   3.446  -1.088  0.00  0.00    -0.507 OA
ATOM     25  H   UNL     1       3.498   3.144  -2.006  0.00  0.00    +0.292 HD
ENDBRANCH  22  24
ENDBRANCH   4  17
BRANCH   1  29
ATOM     26  C   UNL     1       4.129  -1.676   4.644  0.00  0.00    -0.048 A 
ATOM     27  C   UNL     1       3.156  -2.405   3.982  0.00  0.00    +0.004 A 
ATOM     28  C   UNL     1       2.384  -1.806   3.009  0.00  0.00    +0.010 A 
ATOM     29  C   UNL     1       2.587  -0.462   2.690  0.00  0.00    -0.004 A 
ATOM     30  C   UNL     1       3.574   0.266   3.357  0.00  0.00    +0.010 A 
ATOM     31  C   UNL     1       4.335  -0.344   4.333  0.00  0.00    +0.004 A 
BRANCH  26  33
ATOM     32  C   UNL     1       6.218  -2.944   5.066  0.00  0.00    +0.009 C 
ATOM     33  C   UNL     1       4.968  -2.337   5.707  0.00  0.00    +0.032 C 
ENDBRANCH  26  33
ENDBRANCH   1  29
TORSDOF 5
