REMARK  Name = ZINC39369839
REMARK  11 active torsions:
REMARK  status: ('A' for Active; 'I' for Inactive)
REMARK    1  A    between atoms: C_1  and  C_2
REMARK    2  A    between atoms: C_2  and  O_3
REMARK    3  A    between atoms: O_3  and  C_4
REMARK    4  A    between atoms: C_6  and  C_16
REMARK    5  A    between atoms: C_9  and  O_10
REMARK    6  A    between atoms: O_10  and  C_11
REMARK    7  A    between atoms: C_11  and  C_12
REMARK    8  A    between atoms: C_17  and  C_18
REMARK    9  A    between atoms: C_17  and  C_20
REMARK   10  A    between atoms: C_26  and  O_30
REMARK   11  A    between atoms: O_30  and  C_31
REMARK                            x       y       z     vdW  Elec       q    Type
REMARK                         _______ _______ _______ _____ _____    ______ ____
ROOT
ATOM      1  C   UNL     1      -0.254  -4.960   0.418  0.00  0.00    +0.026 C 
ATOM      2  C   UNL     1      -0.191  -6.295   0.231  0.00  0.00    +0.072 C 
ENDROOT
BRANCH   2   3
ATOM      3  C   UNL     1       0.506  -6.854  -0.983  0.00  0.00    +0.216 C 
ATOM      4  N   UNL     1      -0.462  -7.535  -1.851  0.00  0.00    -0.359 N 
ATOM      5  C   UNL     1      -0.098  -8.782  -1.942  0.00  0.00    +0.061 A 
ATOM      6  C   UNL     1      -0.669  -9.929  -2.663  0.00  0.00    +0.031 A 
ATOM      7  C   UNL     1      -0.075 -11.134  -2.581  0.00  0.00    +0.048 A 
ATOM      8  C   UNL     1       1.133 -11.345  -1.793  0.00  0.00    +0.122 A 
ATOM      9  C   UNL     1       1.719 -10.338  -1.101  0.00  0.00    +0.073 A 
ATOM     10  C   UNL     1       1.135  -8.996  -1.137  0.00  0.00    +0.064 A 
ATOM     11  N   UNL     1       1.487  -7.869  -0.577  0.00  0.00    -0.359 N 
ATOM     12  H   UNL     1      -1.232  -7.130  -2.279  0.00  0.00    +0.162 HD
ATOM     13  H   UNL     1       2.254  -7.727  -0.001  0.00  0.00    +0.162 HD
BRANCH   8  14
ATOM     14  O   UNL     1       1.684 -12.583  -1.750  0.00  0.00    -0.495 OA
ATOM     15  C   UNL     1       1.029 -13.611  -2.495  0.00  0.00    +0.277 C 
ENDBRANCH   8  14
ENDBRANCH   2   3
BRANCH   1  18
ATOM     16  C   UNL     1       1.264  -1.994  -1.308  0.00  0.00    +0.164 A 
ATOM     17  C   UNL     1       0.839  -2.848  -0.308  0.00  0.00    +0.057 A 
ATOM     18  C   UNL     1       0.200  -4.047  -0.642  0.00  0.00    -0.019 A 
ATOM     19  C   UNL     1      -0.005  -4.375  -1.986  0.00  0.00    +0.027 A 
ATOM     20  C   UNL     1       0.422  -3.518  -2.978  0.00  0.00    +0.064 A 
ATOM     21  C   UNL     1       1.051  -2.325  -2.645  0.00  0.00    +0.177 A 
ATOM     22 BR   UNL     1       0.144  -3.963  -4.794  0.00  0.00    -0.046 Br
BRANCH  16  23
ATOM     23  O   UNL     1       1.885  -0.828  -0.987  0.00  0.00    -0.489 OA
BRANCH  23  25
ATOM     24  C   UNL     1       2.781   0.793   0.567  0.00  0.00    +0.048 C 
ATOM     25  C   UNL     1       2.071  -0.552   0.403  0.00  0.00    +0.226 C 
ENDBRANCH  23  25
ENDBRANCH  16  23
BRANCH  21  26
ATOM     26  O   UNL     1       1.465  -1.481  -3.626  0.00  0.00    -0.476 OA
BRANCH  26  27
ATOM     27  C   UNL     1       2.789  -1.669  -4.127  0.00  0.00    +0.354 C 
BRANCH  27  28
ATOM     28  C   UNL     1       3.070  -0.649  -5.201  0.00  0.00    +0.393 C 
ATOM     29  O   UNL     1       2.214   0.164  -5.508  0.00  0.00    -0.243 OA
ATOM     30  O   UNL     1       4.152  -0.636  -5.762  0.00  0.00    -0.243 OA
ENDBRANCH  27  28
ENDBRANCH  26  27
ENDBRANCH  21  26
ENDBRANCH   1  18
BRANCH   2  31
ATOM     31  C   UNL     1      -0.787  -7.181   1.185  0.00  0.00    +0.099 C 
ATOM     32  N   UNL     1      -1.260  -7.883   1.942  0.00  0.00    -0.191 NA
ENDBRANCH   2  31
TORSDOF 9
