REMARK  Name = ZINC36301864
REMARK  17 active torsions:
REMARK  status: ('A' for Active; 'I' for Inactive)
REMARK    1  A    between atoms: C_1  and  C_2
REMARK    2  A    between atoms: C_2  and  C_3
REMARK    3  A    between atoms: C_3  and  C_4
REMARK    4  A    between atoms: C_4  and  C_6
REMARK    5  A    between atoms: C_4  and  O_34
REMARK    6  A    between atoms: C_6  and  N_7
REMARK    7  A    between atoms: N_7  and  C_8
REMARK    8  A    between atoms: N_7  and  C_11
REMARK    9  A    between atoms: C_8  and  C_9
REMARK   10  A    between atoms: C_9  and  C_10
REMARK   11  A    between atoms: C_11  and  C_12
REMARK   12  A    between atoms: C_13  and  C_33
REMARK   13  A    between atoms: N_15  and  C_26
REMARK   14  A    between atoms: C_16  and  O_17
REMARK   15  A    between atoms: O_17  and  C_18
REMARK   16  A    between atoms: C_23  and  O_24
REMARK   17  A    between atoms: O_24  and  C_25
REMARK                            x       y       z     vdW  Elec       q    Type
REMARK                         _______ _______ _______ _____ _____    ______ ____
ROOT
ATOM      1  C   UNL     1      -3.941  -6.703   0.773  0.00  0.00    +0.021 A 
ATOM      2  C   UNL     1      -3.430  -7.562  -0.205  0.00  0.00    +0.065 A 
ATOM      3  N   UNL     1      -2.954  -8.627   0.387  0.00  0.00    -0.168 NA
ATOM      4  N   UNL     1      -3.144  -8.487   1.768  0.00  0.00    -0.200 N 
ATOM      5  C   UNL     1      -3.749  -7.289   1.985  0.00  0.00    +0.225 A 
ATOM      6  C   UNL     1      -3.429  -7.305  -1.690  0.00  0.00    +0.068 C 
ENDROOT
BRANCH   4   7
ATOM      7  C   UNL     1      -2.771  -9.414   2.752  0.00  0.00    +0.069 A 
ATOM      8  C   UNL     1      -2.215  -8.975   3.946  0.00  0.00    +0.029 A 
ATOM      9  C   UNL     1      -1.849  -9.891   4.913  0.00  0.00    +0.022 A 
ATOM     10  C   UNL     1      -2.034 -11.244   4.692  0.00  0.00    +0.041 A 
ATOM     11  C   UNL     1      -2.587 -11.684   3.503  0.00  0.00    +0.022 A 
ATOM     12  C   UNL     1      -2.961 -10.773   2.535  0.00  0.00    +0.029 A 
ATOM     13 CL   UNL     1      -1.571 -12.392   5.910  0.00  0.00    -0.084 Cl
ENDBRANCH   4   7
BRANCH   1  14
ATOM     14  C   UNL     1      -4.584  -5.363   0.527  0.00  0.00    -0.036 C 
BRANCH  14  15
ATOM     15  N   UNL     1      -3.555  -4.315   0.548  0.00  0.00    +0.384 N 
ATOM     16  H   UNL     1      -3.043  -4.363   1.416  0.00  0.00    -0.081 HD
BRANCH  15  17
ATOM     17  C   UNL     1      -4.194  -2.998   0.428  0.00  0.00    -0.047 C 
BRANCH  17  18
ATOM     18  C   UNL     1      -5.044  -2.728   1.672  0.00  0.00    +0.098 C 
BRANCH  18  19
ATOM     19  O   UNL     1      -4.208  -2.741   2.832  0.00  0.00    -0.394 OA
ATOM     20  H   UNL     1      -3.553  -2.030   2.851  0.00  0.00    +0.210 HD
ENDBRANCH  18  19
BRANCH  18  21
ATOM     21  C   UNL     1      -5.718  -1.361   1.544  0.00  0.00    +0.029 C 
BRANCH  21  23
ATOM     22  C   UNL     1      -7.337   0.223   2.598  0.00  0.00    +0.004 C 
ATOM     23  C   UNL     1      -6.663  -1.145   2.727  0.00  0.00    -0.001 C 
ENDBRANCH  21  23
ENDBRANCH  18  21
ENDBRANCH  17  18
ENDBRANCH  15  17
BRANCH  15  24
ATOM     24  C   UNL     1      -2.631  -4.514  -0.576  0.00  0.00    -0.079 C 
BRANCH  24  25
ATOM     25  C   UNL     1      -1.495  -3.493  -0.490  0.00  0.00    -0.022 C 
ATOM     26  C   UNL     1      -0.553  -3.675  -1.682  0.00  0.00    +0.002 C 
ENDBRANCH  24  25
ENDBRANCH  15  24
ENDBRANCH  14  15
ENDBRANCH   1  14
BRANCH   5  27
ATOM     27  O   UNL     1      -4.102  -6.774   3.190  0.00  0.00    -0.434 OA
BRANCH  27  28
ATOM     28  C   UNL     1      -5.310  -7.124   3.705  0.00  0.00    +0.172 A 
ATOM     29  C   UNL     1      -6.095  -8.066   3.059  0.00  0.00    +0.050 A 
ATOM     30  C   UNL     1      -7.323  -8.421   3.584  0.00  0.00    +0.004 A 
ATOM     31  C   UNL     1      -7.772  -7.838   4.755  0.00  0.00    +0.004 A 
ATOM     32  C   UNL     1      -6.995  -6.897   5.404  0.00  0.00    +0.049 A 
ATOM     33  C   UNL     1      -5.761  -6.541   4.886  0.00  0.00    +0.162 A 
BRANCH  33  34
ATOM     34  O   UNL     1      -4.993  -5.620   5.527  0.00  0.00    -0.491 OA
ATOM     35  C   UNL     1      -5.519  -5.063   6.734  0.00  0.00    +0.277 C 
ENDBRANCH  33  34
ENDBRANCH  27  28
ENDBRANCH   5  27
TORSDOF 13
