REMARK  Name = ZINC36307989
REMARK  18 active torsions:
REMARK  status: ('A' for Active; 'I' for Inactive)
REMARK    1  A    between atoms: C_1  and  C_2
REMARK    2  A    between atoms: C_2  and  C_3
REMARK    3  A    between atoms: C_2  and  C_4
REMARK    4  A    between atoms: C_4  and  O_5
REMARK    5  A    between atoms: O_5  and  C_6
REMARK    6  A    between atoms: C_6  and  C_7
REMARK    7  A    between atoms: C_7  and  C_9
REMARK    8  A    between atoms: C_7  and  O_37
REMARK    9  A    between atoms: C_9  and  N_10
REMARK   10  A    between atoms: N_10  and  C_11
REMARK   11  A    between atoms: N_10  and  C_34
REMARK   12  A    between atoms: C_11  and  C_12
REMARK   13  A    between atoms: C_13  and  C_31
REMARK   14  A    between atoms: N_15  and  C_25
REMARK   15  A    between atoms: C_16  and  O_17
REMARK   16  A    between atoms: O_17  and  C_18
REMARK   17  A    between atoms: C_31  and  C_32
REMARK   18  A    between atoms: C_31  and  C_33
REMARK                            x       y       z     vdW  Elec       q    Type
REMARK                         _______ _______ _______ _____ _____    ______ ____
ROOT
ATOM      1  C   UNL     1      -5.081  -8.935   0.704  0.00  0.00    +0.021 A 
ATOM      2  C   UNL     1      -4.314  -9.597  -0.260  0.00  0.00    +0.071 A 
ATOM      3  N   UNL     1      -3.319 -10.196   0.343  0.00  0.00    -0.168 NA
ATOM      4  N   UNL     1      -3.415  -9.938   1.716  0.00  0.00    -0.200 N 
ATOM      5  C   UNL     1      -4.507  -9.153   1.917  0.00  0.00    +0.225 A 
ENDROOT
BRANCH   4   6
ATOM      6  C   UNL     1      -2.538 -10.402   2.707  0.00  0.00    +0.069 A 
ATOM      7  C   UNL     1      -2.164  -9.568   3.751  0.00  0.00    +0.028 A 
ATOM      8  C   UNL     1      -1.300 -10.028   4.726  0.00  0.00    +0.002 A 
ATOM      9  C   UNL     1      -0.808 -11.318   4.662  0.00  0.00    +0.000 A 
ATOM     10  C   UNL     1      -1.178 -12.152   3.623  0.00  0.00    +0.002 A 
ATOM     11  C   UNL     1      -2.046 -11.699   2.648  0.00  0.00    +0.028 A 
ENDBRANCH   4   6
BRANCH   2  12
ATOM     12  C   UNL     1      -4.587  -9.617  -1.742  0.00  0.00    +0.034 C 
ATOM     13  C   UNL     1      -3.283  -9.879  -2.497  0.00  0.00    +0.014 C 
ATOM     14  C   UNL     1      -5.593 -10.726  -2.060  0.00  0.00    +0.014 C 
ENDBRANCH   2  12
BRANCH   1  15
ATOM     15  C   UNL     1      -6.322  -8.119   0.444  0.00  0.00    -0.035 C 
BRANCH  15  16
ATOM     16  N   UNL     1      -6.042  -6.703   0.715  0.00  0.00    +0.386 N 
ATOM     17  H   UNL     1      -5.672  -6.606   1.649  0.00  0.00    -0.081 HD
BRANCH  16  18
ATOM     18  C   UNL     1      -5.059  -6.203  -0.255  0.00  0.00    -0.068 C 
ATOM     19  C   UNL     1      -3.609  -6.069   0.214  0.00  0.00    -0.017 C 
ATOM     20  C   UNL     1      -4.461  -4.817  -0.004  0.00  0.00    -0.017 C 
ENDBRANCH  16  18
BRANCH  16  21
ATOM     21  C   UNL     1      -7.284  -5.928   0.598  0.00  0.00    -0.044 C 
BRANCH  21  22
ATOM     22  C   UNL     1      -7.129  -4.600   1.343  0.00  0.00    +0.124 C 
BRANCH  22  23
ATOM     23  O   UNL     1      -6.456  -3.659   0.503  0.00  0.00    -0.391 OA
ATOM     24  H   UNL     1      -6.919  -3.470  -0.325  0.00  0.00    +0.210 HD
ENDBRANCH  22  23
BRANCH  22  25
ATOM     25  C   UNL     1      -8.511  -4.057   1.711  0.00  0.00    +0.189 C 
BRANCH  25  26
ATOM     26  O   UNL     1      -8.364  -2.879   2.507  0.00  0.00    -0.377 OA
BRANCH  26  27
ATOM     27  C   UNL     1      -9.602  -2.290   2.907  0.00  0.00    +0.163 C 
BRANCH  27  29
ATOM     28  C   UNL     1     -10.646  -0.341   4.073  0.00  0.00    +0.009 C 
ATOM     29  C   UNL     1      -9.325  -1.042   3.749  0.00  0.00    +0.009 C 
ATOM     30  C   UNL     1      -8.631  -1.449   5.050  0.00  0.00    +0.009 C 
ENDBRANCH  27  29
ENDBRANCH  26  27
ENDBRANCH  25  26
ENDBRANCH  22  25
ENDBRANCH  21  22
ENDBRANCH  16  21
ENDBRANCH  15  16
ENDBRANCH   1  15
BRANCH   5  31
ATOM     31  O   UNL     1      -4.945  -8.676   3.110  0.00  0.00    -0.438 OA
BRANCH  31  32
ATOM     32  C   UNL     1      -5.764  -9.468   3.851  0.00  0.00    +0.133 A 
ATOM     33  C   UNL     1      -6.039 -10.763   3.437  0.00  0.00    +0.046 A 
ATOM     34  C   UNL     1      -6.872 -11.567   4.191  0.00  0.00    +0.006 A 
ATOM     35  C   UNL     1      -7.431 -11.082   5.359  0.00  0.00    +0.038 A 
ATOM     36  C   UNL     1      -7.159  -9.790   5.775  0.00  0.00    +0.127 A 
ATOM     37  C   UNL     1      -6.320  -8.984   5.026  0.00  0.00    +0.084 A 
ATOM     38  F   UNL     1      -7.707  -9.318   6.916  0.00  0.00    -0.205 F 
ENDBRANCH  31  32
ENDBRANCH   5  31
TORSDOF 14
