REMARK  Name = ZINC21176340
REMARK  9 active torsions:
REMARK  status: ('A' for Active; 'I' for Inactive)
REMARK    1  A    between atoms: C_1  and  C_2
REMARK    2  A    between atoms: C_2  and  C_36
REMARK    3  A    between atoms: C_5  and  C_27
REMARK    4  A    between atoms: C_9  and  C_20
REMARK    5  A    between atoms: N_12  and  C_19
REMARK    6  A    between atoms: N_15  and  C_18
REMARK    7  A    between atoms: C_30  and  O_34
REMARK    8  A    between atoms: C_31  and  O_33
REMARK    9  A    between atoms: O_34  and  C_35
REMARK                            x       y       z     vdW  Elec       q    Type
REMARK                         _______ _______ _______ _____ _____    ______ ____
ROOT
ATOM      1  C   UNL     1       2.123  -1.031   1.166  0.00  0.00    +0.036 C 
ATOM      2  C   UNL     1       2.267   0.262   0.362  0.00  0.00    +0.064 C 
ATOM      3  C   UNL     1       3.253   1.202   1.066  0.00  0.00    +0.189 C 
ATOM      4  O   UNL     1       3.192   2.501   0.470  0.00  0.00    -0.364 OA
ATOM      5  C   UNL     1       1.984   3.218   0.757  0.00  0.00    +0.197 C 
ATOM      6  C   UNL     1       0.820   2.301   0.459  0.00  0.00    +0.078 A 
ATOM      7  N   UNL     1       0.966   0.942   0.277  0.00  0.00    -0.331 N 
ATOM      8  C   UNL     1      -0.240   0.372   0.021  0.00  0.00    +0.064 A 
ATOM      9  C   UNL     1      -1.193   1.377   0.037  0.00  0.00    +0.089 A 
ATOM     10  C   UNL     1      -0.472   2.628   0.326  0.00  0.00    +0.083 A 
ATOM     11  N   UNL     1      -1.220   3.810   0.392  0.00  0.00    -0.294 N 
ATOM     12  C   UNL     1      -2.551   3.781   0.204  0.00  0.00    +0.332 A 
ATOM     13  O   UNL     1      -3.163   4.829   0.275  0.00  0.00    -0.246 OA
ATOM     14  N   UNL     1      -3.239   2.663  -0.061  0.00  0.00    -0.263 N 
ATOM     15  C   UNL     1      -2.643   1.455  -0.157  0.00  0.00    +0.266 A 
ATOM     16  O   UNL     1      -3.293   0.456  -0.399  0.00  0.00    -0.267 OA
ATOM     17  C   UNL     1      -4.688   2.753  -0.254  0.00  0.00    +0.157 C 
ATOM     18  C   UNL     1      -0.551   5.082   0.678  0.00  0.00    +0.154 C 
ATOM     19  C   UNL     1       2.775  -0.058  -1.046  0.00  0.00    +0.036 C 
ENDROOT
BRANCH   8  20
ATOM     20  C   UNL     1      -0.491  -1.061  -0.228  0.00  0.00    -0.001 A 
ATOM     21  C   UNL     1      -1.162  -1.832   0.724  0.00  0.00    +0.011 A 
ATOM     22  C   UNL     1      -1.399  -3.168   0.482  0.00  0.00    +0.020 A 
ATOM     23  C   UNL     1      -0.961  -3.750  -0.697  0.00  0.00    +0.041 A 
ATOM     24  C   UNL     1      -0.290  -2.992  -1.642  0.00  0.00    +0.020 A 
ATOM     25  C   UNL     1      -0.053  -1.653  -1.415  0.00  0.00    +0.011 A 
ATOM     26 CL   UNL     1      -1.256  -5.435  -0.990  0.00  0.00    -0.084 Cl
ENDBRANCH   8  20
BRANCH   5  27
ATOM     27  C   UNL     1       1.901   4.447  -0.113  0.00  0.00    -0.009 A 
ATOM     28  C   UNL     1       1.750   4.315  -1.480  0.00  0.00    +0.010 A 
ATOM     29  C   UNL     1       1.668   5.439  -2.281  0.00  0.00    +0.050 A 
ATOM     30  C   UNL     1       1.749   6.701  -1.715  0.00  0.00    +0.161 A 
ATOM     31  C   UNL     1       1.907   6.833  -0.339  0.00  0.00    +0.159 A 
ATOM     32  C   UNL     1       1.983   5.703   0.459  0.00  0.00    +0.055 A 
BRANCH  31  33
ATOM     33  O   UNL     1       1.988   8.070   0.222  0.00  0.00    -0.503 OA
ATOM     34  H   UNL     1       2.113   8.173   1.310  0.00  0.00    +0.292 HD
ENDBRANCH  31  33
BRANCH  30  35
ATOM     35  O   UNL     1       1.674   7.807  -2.502  0.00  0.00    -0.491 OA
ATOM     36  C   UNL     1       1.512   7.595  -3.906  0.00  0.00    +0.277 C 
ENDBRANCH  30  35
ENDBRANCH   5  27
TORSDOF 4
