REMARK  Name = ZINC12035942
REMARK  10 active torsions:
REMARK  status: ('A' for Active; 'I' for Inactive)
REMARK    1  A    between atoms: C_1  and  N_68
REMARK    2  A    between atoms: C_2  and  N_68
REMARK    3  A    between atoms: C_3  and  C_4
REMARK    4  A    between atoms: C_3  and  N_68
REMARK    5  A    between atoms: C_4  and  N_5
REMARK    6  A    between atoms: C_8  and  C_12
REMARK    7  A    between atoms: C_8  and  C_20
REMARK    8  A    between atoms: C_12  and  C_13
REMARK    9  A    between atoms: C_13  and  C_14
REMARK   10  A    between atoms: C_26  and  C_28
REMARK                            x       y       z     vdW  Elec       q    Type
REMARK                         _______ _______ _______ _____ _____    ______ ____
ROOT
ATOM      1  N   UNL     1       0.789   0.378  -0.278  0.00  0.00    -0.226 N 
ATOM      2  C   UNL     1       1.751   1.318  -0.195  0.00  0.00    +0.247 C 
ATOM      3  O   UNL     1       2.946   1.156  -0.320  0.00  0.00    -0.273 OA
ATOM      4  C   UNL     1       1.029   2.621   0.086  0.00  0.00    +0.116 C 
ATOM      5  N   UNL     1      -0.390   2.227   0.133  0.00  0.00    -0.285 N 
ATOM      6  C   UNL     1      -0.428   0.901  -0.091  0.00  0.00    +0.309 C 
ATOM      7  O   UNL     1      -1.454   0.250  -0.119  0.00  0.00    -0.252 OA
ATOM      8  H   UNL     1      -1.148   2.810   0.290  0.00  0.00    +0.151 HD
ENDROOT
BRANCH   4   9
ATOM      9  C   UNL     1       1.471   3.202   1.430  0.00  0.00    +0.024 C 
ATOM     10  C   UNL     1       2.914   3.701   1.320  0.00  0.00    +0.025 C 
ATOM     11  C   UNL     1       3.341   4.314   2.658  0.00  0.00    +0.108 C 
ATOM     12  N   UNL     1       3.125   3.325   3.722  0.00  0.00    -0.297 N 
ATOM     13  C   UNL     1       1.796   2.713   3.858  0.00  0.00    +0.108 C 
ATOM     14  C   UNL     1       1.385   2.119   2.507  0.00  0.00    +0.025 C 
ATOM     15  C   UNL     1       4.126   2.984   4.557  0.00  0.00    +0.249 C 
ATOM     16  O   UNL     1       3.915   2.221   5.479  0.00  0.00    -0.270 OA
BRANCH  15  17
ATOM     17  C   UNL     1       5.480   3.537   4.351  0.00  0.00    +0.075 A 
ATOM     18  C   UNL     1       5.668   4.919   4.268  0.00  0.00    +0.016 A 
ATOM     19  C   UNL     1       6.934   5.430   4.075  0.00  0.00    +0.004 A 
ATOM     20  C   UNL     1       8.020   4.579   3.965  0.00  0.00    +0.041 A 
ATOM     21  C   UNL     1       7.845   3.209   4.046  0.00  0.00    +0.159 A 
ATOM     22  C   UNL     1       6.580   2.681   4.244  0.00  0.00    +0.170 A 
ATOM     23  F   UNL     1       6.408   1.344   4.328  0.00  0.00    -0.202 F 
ATOM     24  F   UNL     1       8.911   2.385   3.937  0.00  0.00    -0.202 F 
ENDBRANCH  15  17
ENDBRANCH   4   9
BRANCH   1  25
ATOM     25  C   UNL     1       1.044  -1.040  -0.542  0.00  0.00    +0.099 C 
BRANCH  25  26
ATOM     26  C   UNL     1       1.018  -1.290  -2.051  0.00  0.00    -0.060 C 
BRANCH  26  29
ATOM     27  C   UNL     1       1.025  -3.039  -3.726  0.00  0.00    -0.097 C 
ATOM     28  C   UNL     1       2.640  -3.084  -1.923  0.00  0.00    -0.097 C 
ATOM     29  N   UNL     1       1.256  -2.728  -2.300  0.00  0.00    +0.377 N 
ATOM     30  H   UNL     1       0.603  -3.278  -1.729  0.00  0.00    -0.083 HD
ENDBRANCH  26  29
ENDBRANCH  25  26
ENDBRANCH   1  25
BRANCH   4  31
ATOM     31  C   UNL     1       1.271   3.625  -1.043  0.00  0.00    +0.040 C 
BRANCH  31  32
ATOM     32  C   UNL     1       0.757   3.045  -2.361  0.00  0.00    +0.038 C 
BRANCH  32  33
ATOM     33  C   UNL     1       0.996   4.034  -3.473  0.00  0.00    -0.047 A 
ATOM     34  C   UNL     1       0.029   4.972  -3.782  0.00  0.00    +0.003 A 
ATOM     35  C   UNL     1       0.250   5.883  -4.799  0.00  0.00    +0.000 A 
ATOM     36  C   UNL     1       1.433   5.848  -5.512  0.00  0.00    +0.000 A 
ATOM     37  C   UNL     1       2.398   4.906  -5.206  0.00  0.00    +0.000 A 
ATOM     38  C   UNL     1       2.179   3.999  -4.186  0.00  0.00    +0.003 A 
ENDBRANCH  32  33
ENDBRANCH  31  32
ENDBRANCH   4  31
TORSDOF 8
