REMARK  Name = ZINC35457237
REMARK  10 active torsions:
REMARK  status: ('A' for Active; 'I' for Inactive)
REMARK    1  A    between atoms: C_1  and  C_2
REMARK    2  A    between atoms: C_5  and  N_9
REMARK    3  A    between atoms: C_6  and  C_8
REMARK    4  A    between atoms: C_10  and  C_12
REMARK    5  A    between atoms: C_12  and  N_13
REMARK    6  A    between atoms: C_19  and  C_20
REMARK    7  A    between atoms: C_20  and  C_21
REMARK    8  A    between atoms: C_20  and  C_22
REMARK    9  A    between atoms: N_24  and  C_27
REMARK   10  A    between atoms: C_27  and  C_28
REMARK                            x       y       z     vdW  Elec       q    Type
REMARK                         _______ _______ _______ _____ _____    ______ ____
ROOT
ATOM      1  N   UNL     1       0.396  -6.791  -2.579  0.00  0.00    -0.287 N 
ATOM      2  C   UNL     1      -0.713  -6.888  -3.342  0.00  0.00    +0.258 A 
ATOM      3  O   UNL     1      -1.803  -6.563  -2.899  0.00  0.00    -0.267 OA
ATOM      4  C   UNL     1      -0.588  -7.372  -4.662  0.00  0.00    +0.035 A 
ATOM      5  C   UNL     1       0.641  -7.720  -5.118  0.00  0.00    +0.035 A 
ATOM      6  N   UNL     1       1.703  -7.603  -4.308  0.00  0.00    -0.240 NA
ATOM      7  C   UNL     1       1.590  -7.151  -3.089  0.00  0.00    +0.115 A 
ATOM      8  C   UNL     1       0.853  -8.232  -6.518  0.00  0.00    -0.021 C 
ATOM      9  N   UNL     1      -0.410  -8.706  -7.091  0.00  0.00    +0.386 N 
ATOM     10  C   UNL     1      -1.415  -7.637  -6.988  0.00  0.00    -0.073 C 
ATOM     11  C   UNL     1      -1.819  -7.491  -5.519  0.00  0.00    +0.024 C 
ATOM     12  H   UNL     1      -0.727  -9.518  -6.583  0.00  0.00    -0.081 HD
ENDROOT
BRANCH   7  13
ATOM     13  C   UNL     1       2.823  -7.036  -2.230  0.00  0.00    +0.049 C 
ATOM     14  C   UNL     1       3.846  -8.088  -2.662  0.00  0.00    +0.015 C 
ATOM     15  C   UNL     1       3.428  -5.640  -2.390  0.00  0.00    +0.015 C 
ENDBRANCH   7  13
BRANCH   1  16
ATOM     16  C   UNL     1       0.303  -6.289  -1.206  0.00  0.00    +0.222 C 
BRANCH  16  18
ATOM     17  N   UNL     1       0.090  -7.230   1.072  0.00  0.00    -0.284 N 
ATOM     18  C   UNL     1       0.188  -7.452  -0.254  0.00  0.00    +0.237 C 
ATOM     19  O   UNL     1       0.183  -8.587  -0.680  0.00  0.00    -0.274 OA
ATOM     20  H   UNL     1       0.034  -6.322   1.409  0.00  0.00    +0.155 HD
BRANCH  17  25
ATOM     21  C   UNL     1       0.007 -11.606   4.682  0.00  0.00    +0.044 C 
ATOM     22  C   UNL     1       0.029 -10.443   3.723  0.00  0.00    -0.050 A 
ATOM     23  C   UNL     1      -0.564 -10.564   2.479  0.00  0.00    +0.005 A 
ATOM     24  C   UNL     1      -0.545  -9.500   1.598  0.00  0.00    +0.024 A 
ATOM     25  C   UNL     1       0.069  -8.309   1.963  0.00  0.00    +0.036 A 
ATOM     26  C   UNL     1       0.662  -8.191   3.212  0.00  0.00    -0.029 A 
ATOM     27  C   UNL     1       0.636  -9.257   4.091  0.00  0.00    +0.008 A 
ATOM     28  C   UNL     1       1.329  -6.901   3.612  0.00  0.00    +0.045 C 
ENDBRANCH  17  25
ENDBRANCH  16  18
ENDBRANCH   1  16
BRANCH   9  29
ATOM     29  C   UNL     1      -0.208  -9.056  -8.504  0.00  0.00    -0.042 C 
BRANCH  29  30
ATOM     30  C   UNL     1       0.738 -10.225  -8.602  0.00  0.00    -0.064 A 
ATOM     31  C   UNL     1       2.100 -10.007  -8.695  0.00  0.00    +0.002 A 
ATOM     32  C   UNL     1       2.967 -11.079  -8.785  0.00  0.00    +0.000 A 
ATOM     33  C   UNL     1       2.473 -12.370  -8.781  0.00  0.00    +0.000 A 
ATOM     34  C   UNL     1       1.111 -12.589  -8.687  0.00  0.00    +0.000 A 
ATOM     35  C   UNL     1       0.244 -11.516  -8.592  0.00  0.00    +0.002 A 
ENDBRANCH  29  30
ENDBRANCH   9  29
TORSDOF 6
