REMARK  Name = ZINC65182895
REMARK  8 active torsions:
REMARK  status: ('A' for Active; 'I' for Inactive)
REMARK    1  A    between atoms: C_1  and  N_2
REMARK    2  A    between atoms: N_2  and  C_3
REMARK    3  A    between atoms: C_3  and  C_4
REMARK    4  A    between atoms: C_4  and  C_5
REMARK    5  A    between atoms: C_8  and  C_11
REMARK    6  A    between atoms: C_16  and  O_21
REMARK    7  A    between atoms: O_21  and  C_22
REMARK    8  A    between atoms: C_23  and  C_25
REMARK                            x       y       z     vdW  Elec       q    Type
REMARK                         _______ _______ _______ _____ _____    ______ ____
ROOT
ATOM      1  C   UNL     1      -1.071  -1.794   3.140  0.00  0.00    +0.139 C 
ATOM      2  N   UNL     1       0.059  -2.126   3.651  0.00  0.00    -0.072 NA
ATOM      3  O   UNL     1      -0.120  -2.828   4.867  0.00  0.00    -0.367 OA
ATOM      4  C   UNL     1      -1.538  -2.910   5.080  0.00  0.00    +0.318 C 
ATOM      5  N   UNL     1      -2.121  -2.212   3.923  0.00  0.00    -0.291 N 
ATOM      6  H   UNL     1      -3.065  -2.075   3.745  0.00  0.00    +0.151 HD
ENDROOT
BRANCH   4   7
ATOM      7  C   UNL     1      -1.925  -2.201   6.380  0.00  0.00    +0.165 C 
ATOM      8  C   UNL     1      -1.270  -2.884   7.560  0.00  0.00    +0.013 C 
ATOM      9  C   UNL     1      -2.278  -3.320   8.348  0.00  0.00    -0.000 A 
ATOM     10  C   UNL     1      -2.303  -4.046   9.623  0.00  0.00    +0.055 A 
ATOM     11  C   UNL     1      -3.493  -4.355  10.192  0.00  0.00    +0.121 A 
ATOM     12  C   UNL     1      -4.720  -4.003   9.603  0.00  0.00    +0.047 A 
ATOM     13  C   UNL     1      -4.800  -3.334   8.433  0.00  0.00    +0.029 A 
ATOM     14  C   UNL     1      -3.572  -2.949   7.729  0.00  0.00    +0.043 A 
ATOM     15  N   UNL     1      -3.371  -2.308   6.603  0.00  0.00    -0.373 N 
ATOM     16  H   UNL     1      -4.062  -1.963   6.016  0.00  0.00    +0.160 HD
BRANCH  11  17
ATOM     17  O   UNL     1      -3.501  -5.029  11.372  0.00  0.00    -0.495 OA
ATOM     18  C   UNL     1      -4.777  -5.334  11.937  0.00  0.00    +0.277 C 
ENDBRANCH  11  17
ENDBRANCH   4   7
BRANCH   1  19
ATOM     19  C   UNL     1      -1.226  -1.035   1.847  0.00  0.00    +0.094 C 
BRANCH  19  20
ATOM     20  C   UNL     1       0.155  -0.742   1.259  0.00  0.00    +0.115 C 
BRANCH  20  22
ATOM     21  C   UNL     1      -0.032   1.460   0.012  0.00  0.00    +0.132 C 
ATOM     22  N   UNL     1       0.004  -0.004   0.002  0.00  0.00    -0.300 N 
ATOM     23  C   UNL     1      -0.102  -0.673  -1.163  0.00  0.00    +0.246 C 
ATOM     24  O   UNL     1      -0.179  -1.886  -1.163  0.00  0.00    -0.270 OA
BRANCH  23  25
ATOM     25  C   UNL     1      -0.124   0.069  -2.442  0.00  0.00    +0.037 A 
ATOM     26  C   UNL     1       0.639   1.228  -2.593  0.00  0.00    +0.014 A 
ATOM     27  C   UNL     1       0.615   1.915  -3.788  0.00  0.00    +0.021 A 
ATOM     28  C   UNL     1      -0.166   1.458  -4.837  0.00  0.00    +0.041 A 
ATOM     29  C   UNL     1      -0.925   0.308  -4.693  0.00  0.00    +0.021 A 
ATOM     30  C   UNL     1      -0.904  -0.391  -3.505  0.00  0.00    +0.014 A 
ATOM     31 CL   UNL     1      -0.192   2.329  -6.338  0.00  0.00    -0.084 Cl
ENDBRANCH  23  25
ENDBRANCH  20  22
ENDBRANCH  19  20
ENDBRANCH   1  19
TORSDOF 6
