REMARK  Name = ZINC35246887
REMARK  12 active torsions:
REMARK  status: ('A' for Active; 'I' for Inactive)
REMARK    1  A    between atoms: C_1  and  C_2
REMARK    2  A    between atoms: C_7  and  C_9
REMARK    3  A    between atoms: C_7  and  C_10
REMARK    4  A    between atoms: C_13  and  C_15
REMARK    5  A    between atoms: C_18  and  C_20
REMARK    6  A    between atoms: C_20  and  N_21
REMARK    7  A    between atoms: N_21  and  C_22
REMARK    8  A    between atoms: N_21  and  C_31
REMARK    9  A    between atoms: C_22  and  C_23
REMARK   10  A    between atoms: C_27  and  O_29
REMARK   11  A    between atoms: O_29  and  C_30
REMARK   12  A    between atoms: C_31  and  C_32
REMARK                            x       y       z     vdW  Elec       q    Type
REMARK                         _______ _______ _______ _____ _____    ______ ____
ROOT
ATOM      1  C   UNL     1      -6.398  -1.151   1.527  0.00  0.00    -0.002 C 
ENDROOT
BRANCH   1   5
ATOM      2  C   UNL     1      -3.526  -2.935   0.146  0.00  0.00    +0.190 A 
ATOM      3  C   UNL     1      -4.457  -3.933   0.092  0.00  0.00    +0.055 A 
ATOM      4  C   UNL     1      -5.651  -3.398   0.601  0.00  0.00    +0.043 A 
ATOM      5  C   UNL     1      -5.400  -2.114   0.939  0.00  0.00    +0.090 A 
ATOM      6  O   UNL     1      -4.117  -1.840   0.667  0.00  0.00    -0.457 OA
BRANCH   2  18
ATOM      7  C   UNL     1      -0.698   1.699   0.077  0.00  0.00    +0.013 C 
ATOM      8  C   UNL     1      -0.400   0.212   0.323  0.00  0.00    -0.014 C 
ATOM      9  C   UNL     1       0.403  -0.430  -0.841  0.00  0.00    +0.030 C 
ATOM     10  C   UNL     1       0.116  -1.926  -0.559  0.00  0.00    +0.078 C 
ATOM     11  C   UNL     1       0.974  -2.334   0.636  0.00  0.00    +0.029 C 
ATOM     12  C   UNL     1       0.760  -1.474   1.869  0.00  0.00    -0.033 C 
ATOM     13  C   UNL     1       0.392  -0.025   1.608  0.00  0.00    +0.014 C 
ATOM     14  C   UNL     1      -0.285  -2.128   2.784  0.00  0.00    +0.011 C 
ATOM     15  C   UNL     1       2.092  -1.472   2.660  0.00  0.00    +0.011 C 
ATOM     16  N   UNL     1      -1.308  -1.972  -0.171  0.00  0.00    -0.291 N 
ATOM     17  C   UNL     1      -1.684  -0.648   0.349  0.00  0.00    +0.115 C 
ATOM     18  C   UNL     1      -2.127  -3.037  -0.283  0.00  0.00    +0.282 C 
ATOM     19  O   UNL     1      -1.706  -4.083  -0.740  0.00  0.00    -0.267 OA
ENDBRANCH   2  18
ENDBRANCH   1   5
BRANCH   1  20
ATOM     20  N   UNL     1      -6.361  -1.243   2.993  0.00  0.00    +0.390 N 
ATOM     21  H   UNL     1      -6.512  -2.200   3.274  0.00  0.00    -0.080 HD
BRANCH  20  22
ATOM     22  C   UNL     1      -7.415  -0.393   3.563  0.00  0.00    -0.042 C 
BRANCH  22  23
ATOM     23  C   UNL     1      -8.765  -0.939   3.176  0.00  0.00    -0.060 A 
ATOM     24  C   UNL     1      -9.425  -0.429   2.072  0.00  0.00    +0.002 A 
ATOM     25  C   UNL     1     -10.664  -0.928   1.714  0.00  0.00    +0.004 A 
ATOM     26  C   UNL     1     -11.246  -1.936   2.458  0.00  0.00    +0.045 A 
ATOM     27  C   UNL     1     -10.586  -2.448   3.565  0.00  0.00    +0.120 A 
ATOM     28  C   UNL     1      -9.340  -1.951   3.919  0.00  0.00    +0.047 A 
BRANCH  27  29
ATOM     29  O   UNL     1     -11.156  -3.440   4.299  0.00  0.00    -0.495 OA
ATOM     30  C   UNL     1     -12.484  -3.829   3.942  0.00  0.00    +0.277 C 
ENDBRANCH  27  29
ENDBRANCH  22  23
ENDBRANCH  20  22
BRANCH  20  31
ATOM     31  C   UNL     1      -5.051  -0.791   3.479  0.00  0.00    -0.042 C 
BRANCH  31  32
ATOM     32  C   UNL     1      -4.968  -1.002   4.969  0.00  0.00    -0.061 A 
ATOM     33  C   UNL     1      -5.267   0.036   5.832  0.00  0.00    +0.002 A 
ATOM     34  C   UNL     1      -5.191  -0.157   7.199  0.00  0.00    +0.003 A 
ATOM     35  C   UNL     1      -4.816  -1.387   7.705  0.00  0.00    +0.038 A 
ATOM     36  C   UNL     1      -4.517  -2.427   6.841  0.00  0.00    +0.124 A 
ATOM     37  C   UNL     1      -4.599  -2.235   5.472  0.00  0.00    +0.040 A 
ATOM     38  F   UNL     1      -4.150  -3.630   7.334  0.00  0.00    -0.205 F 
ENDBRANCH  31  32
ENDBRANCH  20  31
ENDBRANCH   1  20
TORSDOF 8
