REMARK  Name = ZINC33792436
REMARK  13 active torsions:
REMARK  status: ('A' for Active; 'I' for Inactive)
REMARK    1  A    between atoms: C_1  and  C_2
REMARK    2  A    between atoms: C_2  and  C_3
REMARK    3  A    between atoms: C_3  and  C_5
REMARK    4  A    between atoms: C_3  and  O_6
REMARK    5  A    between atoms: O_6  and  C_7
REMARK    6  A    between atoms: C_7  and  C_9
REMARK    7  A    between atoms: C_10  and  C_40
REMARK    8  A    between atoms: C_14  and  C_16
REMARK    9  A    between atoms: C_22  and  C_27
REMARK   10  A    between atoms: C_30  and  C_36
REMARK   11  A    between atoms: C_32  and  C_35
REMARK   12  A    between atoms: C_36  and  O_38
REMARK   13  A    between atoms: O_38  and  C_39
REMARK                            x       y       z     vdW  Elec       q    Type
REMARK                         _______ _______ _______ _____ _____    ______ ____
ROOT
ATOM      1  C   UNL     1      -2.366   0.127  -1.204  0.00  0.00    +0.065 C 
ATOM      2  C   UNL     1      -2.156  -1.201  -1.199  0.00  0.00    +0.016 C 
ATOM      3  N   UNL     1      -1.999  -1.873  -0.019  0.00  0.00    -0.321 N 
ATOM      4  C   UNL     1      -2.437  -1.326   1.157  0.00  0.00    +0.016 C 
ATOM      5  C   UNL     1      -2.657   0.002   1.256  0.00  0.00    +0.025 C 
ATOM      6  C   UNL     1      -2.426   0.911   0.074  0.00  0.00    +0.099 C 
ATOM      7  C   UNL     1      -3.106   0.577   2.458  0.00  0.00    +0.176 C 
ATOM      8  O   UNL     1      -3.307   1.774   2.509  0.00  0.00    -0.291 OA
ATOM      9  C   UNL     1      -3.340  -0.264   3.683  0.00  0.00    +0.171 C 
ATOM     10  C   UNL     1      -2.411  -1.482   3.636  0.00  0.00    +0.013 C 
ATOM     11  C   UNL     1      -2.671  -2.241   2.333  0.00  0.00    +0.055 C 
ATOM     12  C   UNL     1      -0.953  -1.023   3.681  0.00  0.00    +0.009 C 
ATOM     13  C   UNL     1      -2.093  -1.953  -2.503  0.00  0.00    +0.061 C 
ATOM     14  H   UNL     1      -1.518  -2.861  -0.009  0.00  0.00    +0.152 HD
ENDROOT
BRANCH   6  15
ATOM     15  C   UNL     1      -1.125   1.647   0.264  0.00  0.00    +0.047 A 
ATOM     16  C   UNL     1       0.032   0.967   0.352  0.00  0.00    +0.204 A 
ATOM     17  O   UNL     1       1.216   1.566   0.515  0.00  0.00    -0.462 OA
ATOM     18  C   UNL     1       1.341   2.906   0.610  0.00  0.00    +0.138 A 
ATOM     19  C   UNL     1       2.587   3.499   0.779  0.00  0.00    +0.047 A 
ATOM     20  C   UNL     1       2.688   4.870   0.873  0.00  0.00    +0.007 A 
ATOM     21  C   UNL     1       1.557   5.671   0.800  0.00  0.00    -0.050 A 
ATOM     22  C   UNL     1       0.313   5.104   0.633  0.00  0.00    +0.018 A 
ATOM     23  C   UNL     1       0.197   3.718   0.537  0.00  0.00    +0.064 A 
ATOM     24  C   UNL     1      -1.114   3.064   0.357  0.00  0.00    +0.197 A 
ATOM     25  O   UNL     1      -2.143   3.714   0.287  0.00  0.00    -0.287 OA
ATOM     26  C   UNL     1       1.691   7.168   0.905  0.00  0.00    +0.044 C 
ENDBRANCH   6  15
BRANCH   1  27
ATOM     27  C   UNL     1      -2.533   0.799  -2.438  0.00  0.00    +0.338 C 
ATOM     28  O   UNL     1      -3.639   1.172  -2.782  0.00  0.00    -0.245 OA
BRANCH  27  29
ATOM     29  O   UNL     1      -1.466   1.025  -3.233  0.00  0.00    -0.458 OA
BRANCH  29  30
ATOM     30  C   UNL     1      -1.708   1.708  -4.464  0.00  0.00    +0.173 C 
ATOM     31  C   UNL     1      -1.572   3.216  -4.246  0.00  0.00    +0.052 C 
BRANCH  30  33
ATOM     32  C   UNL     1      -0.908  -0.232  -5.820  0.00  0.00    +0.007 C 
ATOM     33  C   UNL     1      -0.690   1.250  -5.510  0.00  0.00    +0.041 C 
ENDBRANCH  30  33
ENDBRANCH  29  30
ENDBRANCH  27  29
ENDBRANCH   1  27
BRANCH   9  34
ATOM     34  C   UNL     1      -3.045   0.548   4.917  0.00  0.00    +0.318 C 
ATOM     35  O   UNL     1      -2.181   0.192   5.683  0.00  0.00    -0.250 OA
BRANCH  34  36
ATOM     36  O   UNL     1      -3.743   1.668   5.166  0.00  0.00    -0.467 OA
ATOM     37  C   UNL     1      -3.405   2.401   6.373  0.00  0.00    +0.280 C 
ENDBRANCH  34  36
ENDBRANCH   9  34
TORSDOF 7
