REMARK  Name = ZINC50987583
REMARK  3 active torsions:
REMARK  status: ('A' for Active; 'I' for Inactive)
REMARK    1  A    between atoms: C_2  and  C_3
REMARK    2  A    between atoms: C_3  and  N_4
REMARK    3  A    between atoms: C_7  and  C_10
REMARK                            x       y       z     vdW  Elec       q    Type
REMARK                         _______ _______ _______ _____ _____    ______ ____
ROOT
ATOM      1  N   UNL     1       1.367  -1.676   1.111  0.00  0.00    -0.277 N 
ATOM      2  C   UNL     1       0.941  -2.973   1.071  0.00  0.00    +0.160 C 
ATOM      3  N   UNL     1       1.089  -3.594   2.187  0.00  0.00    -0.366 N 
ATOM      4  C   UNL     1       1.686  -2.661   3.155  0.00  0.00    +0.172 C 
ATOM      5  C   UNL     1       1.857  -1.377   2.365  0.00  0.00    +0.101 C 
ATOM      6  N   UNL     1       2.350  -0.255   2.775  0.00  0.00    -0.388 N 
ATOM      7  H   UNL     1       2.405   0.501   2.170  0.00  0.00    +0.157 HD
ATOM      8  H   UNL     1       2.665  -0.169   3.689  0.00  0.00    +0.157 HD
ATOM      9  H   UNL     1       0.848  -4.517   2.361  0.00  0.00    +0.161 HD
ENDROOT
BRANCH   4  10
ATOM     10  C   UNL     1       0.761  -2.448   4.325  0.00  0.00    -0.013 A 
ATOM     11  C   UNL     1       1.278  -2.333   5.602  0.00  0.00    +0.055 A 
ATOM     12  C   UNL     1       0.430  -2.137   6.680  0.00  0.00    +0.168 A 
ATOM     13  C   UNL     1      -0.945  -2.055   6.473  0.00  0.00    +0.184 A 
ATOM     14  C   UNL     1      -1.457  -2.171   5.191  0.00  0.00    +0.087 A 
ATOM     15  C   UNL     1      -0.603  -2.361   4.119  0.00  0.00    +0.030 A 
ATOM     16 CL   UNL     1      -3.170  -2.070   4.928  0.00  0.00    -0.080 Cl
ATOM     17  O   UNL     1      -1.556  -1.861   7.678  0.00  0.00    -0.451 OA
ATOM     18  C   UNL     1      -0.580  -2.233   8.669  0.00  0.00    +0.466 C 
ATOM     19  O   UNL     1       0.680  -1.994   8.014  0.00  0.00    -0.453 OA
ENDBRANCH   4  10
BRANCH   1  20
ATOM     20  C   UNL     1       1.317  -0.740  -0.015  0.00  0.00    +0.139 C 
BRANCH  20  22
ATOM     21  C   UNL     1      -0.016   1.306   0.009  0.00  0.00    +0.005 C 
ATOM     22  C   UNL     1       0.002  -0.004   0.002  0.00  0.00    -0.015 C 
ENDBRANCH  20  22
ENDBRANCH   1  20
TORSDOF 3
