REMARK  Name = ZINC38657479
REMARK  9 active torsions:
REMARK  status: ('A' for Active; 'I' for Inactive)
REMARK    1  A    between atoms: C_1  and  C_2
REMARK    2  A    between atoms: C_4  and  O_9
REMARK    3  A    between atoms: O_9  and  C_10
REMARK    4  A    between atoms: C_10  and  C_11
REMARK    5  A    between atoms: C_11  and  O_13
REMARK    6  A    between atoms: O_13  and  C_14
REMARK    7  A    between atoms: C_21  and  N_32
REMARK    8  A    between atoms: C_22  and  C_30
REMARK    9  A    between atoms: C_23  and  C_25
REMARK                            x       y       z     vdW  Elec       q    Type
REMARK                         _______ _______ _______ _____ _____    ______ ____
ROOT
ATOM      1  C   UNL     1       0.033  -6.638  -5.131  0.00  0.00    +0.135 A 
ATOM      2  C   UNL     1       0.059  -5.833  -6.261  0.00  0.00    +0.047 A 
ATOM      3  C   UNL     1       0.026  -6.405  -7.518  0.00  0.00    +0.012 A 
ATOM      4  C   UNL     1      -0.034  -7.780  -7.656  0.00  0.00    +0.011 A 
ATOM      5  C   UNL     1      -0.060  -8.590  -6.531  0.00  0.00    +0.138 A 
ATOM      6  C   UNL     1      -0.021  -8.016  -5.266  0.00  0.00    +0.093 A 
ATOM      7  O   UNL     1      -0.119  -9.939  -6.646  0.00  0.00    -0.441 OA
ATOM      8  C   UNL     1       0.230 -10.529  -7.801  0.00  0.00    +0.199 C 
ATOM      9  C   UNL     1       0.273  -9.847  -8.970  0.00  0.00    +0.101 C 
ATOM     10  C   UNL     1      -0.070  -8.385  -9.034  0.00  0.00    +0.134 C 
ENDROOT
BRANCH  10  11
ATOM     11  C   UNL     1       0.925  -7.677  -9.916  0.00  0.00    +0.117 A 
ATOM     12  C   UNL     1       0.638  -7.005 -11.046  0.00  0.00    +0.045 A 
ATOM     13  C   UNL     1       1.861  -6.503 -11.547  0.00  0.00    +0.041 A 
ATOM     14  C   UNL     1       2.823  -6.899 -10.694  0.00  0.00    +0.195 A 
ATOM     15  O   UNL     1       2.250  -7.605  -9.706  0.00  0.00    -0.467 OA
ENDBRANCH  10  11
BRANCH   8  16
ATOM     16  N   UNL     1       0.553 -11.863  -7.797  0.00  0.00    -0.328 N 
ATOM     17  H   UNL     1       0.527 -12.366  -6.968  0.00  0.00    +0.145 HD
ATOM     18  H   UNL     1       0.807 -12.303  -8.623  0.00  0.00    +0.145 HD
ENDBRANCH   8  16
BRANCH   9  19
ATOM     19  C   UNL     1       0.654 -10.531 -10.169  0.00  0.00    +0.101 C 
ATOM     20  N   UNL     1       0.956 -11.074 -11.120  0.00  0.00    -0.191 NA
ENDBRANCH   9  19
BRANCH   1  21
ATOM     21  O   UNL     1       0.065  -6.077  -3.894  0.00  0.00    -0.423 OA
BRANCH  21  22
ATOM     22  C   UNL     1      -1.065  -5.528  -3.421  0.00  0.00    +0.350 C 
ATOM     23  O   UNL     1      -2.046  -5.464  -4.124  0.00  0.00    -0.247 OA
BRANCH  22  24
ATOM     24  C   UNL     1      -1.111  -4.993  -2.013  0.00  0.00    +0.349 C 
BRANCH  24  25
ATOM     25  O   UNL     1      -2.412  -4.464  -1.747  0.00  0.00    -0.481 OA
BRANCH  25  29
ATOM     26  C   UNL     1      -5.422  -2.298   1.427  0.00  0.00    +0.045 C 
ATOM     27  C   UNL     1      -4.075  -2.874   1.071  0.00  0.00    -0.029 A 
ATOM     28  C   UNL     1      -3.863  -3.408  -0.185  0.00  0.00    +0.050 A 
ATOM     29  C   UNL     1      -2.623  -3.938  -0.511  0.00  0.00    +0.122 A 
ATOM     30  C   UNL     1      -1.599  -3.931   0.425  0.00  0.00    +0.047 A 
ATOM     31  C   UNL     1      -1.816  -3.396   1.680  0.00  0.00    +0.024 A 
ATOM     32  C   UNL     1      -3.051  -2.862   2.002  0.00  0.00    +0.044 A 
ATOM     33 CL   UNL     1      -3.319  -2.184   3.577  0.00  0.00    -0.083 Cl
ENDBRANCH  25  29
ENDBRANCH  24  25
ENDBRANCH  22  24
ENDBRANCH  21  22
ENDBRANCH   1  21
TORSDOF 8
