REMARK  Name = ZINC35573766
REMARK  8 active torsions:
REMARK  status: ('A' for Active; 'I' for Inactive)
REMARK    1  A    between atoms: C_1  and  C_2
REMARK    2  A    between atoms: C_5  and  C_8
REMARK    3  A    between atoms: C_8  and  C_9
REMARK    4  A    between atoms: C_13  and  C_22
REMARK    5  A    between atoms: N_15  and  C_16
REMARK    6  A    between atoms: C_23  and  N_25
REMARK    7  A    between atoms: N_28  and  C_31
REMARK    8  A    between atoms: C_31  and  C_32
REMARK                            x       y       z     vdW  Elec       q    Type
REMARK                         _______ _______ _______ _____ _____    ______ ____
ROOT
ATOM      1  C   UNL     1       1.490  -4.777  -0.035  0.00  0.00    +0.138 A 
ATOM      2  N   UNL     1       2.083  -4.961  -1.194  0.00  0.00    -0.212 NA
ATOM      3  C   UNL     1       3.345  -5.384  -1.252  0.00  0.00    +0.169 A 
ATOM      4  C   UNL     1       4.035  -5.631  -0.050  0.00  0.00    +0.082 A 
ATOM      5  C   UNL     1       5.333  -6.063  -0.399  0.00  0.00    +0.073 A 
ATOM      6  N   UNL     1       5.428  -6.079  -1.698  0.00  0.00    -0.169 NA
ATOM      7  N   UNL     1       4.217  -5.665  -2.266  0.00  0.00    -0.214 N 
ATOM      8  C   UNL     1       6.425  -6.442   0.569  0.00  0.00    +0.068 C 
ATOM      9  C   UNL     1       3.356  -5.418   1.165  0.00  0.00    +0.136 A 
ATOM     10  N   UNL     1       2.099  -4.990   1.119  0.00  0.00    -0.216 NA
ENDROOT
BRANCH   9  11
ATOM     11  N   UNL     1       3.982  -5.643   2.375  0.00  0.00    -0.318 N 
ATOM     12  C   UNL     1       4.023  -6.989   2.966  0.00  0.00    +0.088 C 
ATOM     13  C   UNL     1       3.550  -6.896   4.421  0.00  0.00    -0.059 C 
ATOM     14  N   UNL     1       4.356  -5.896   5.133  0.00  0.00    +0.385 N 
ATOM     15  C   UNL     1       4.126  -4.566   4.557  0.00  0.00    -0.059 C 
ATOM     16  C   UNL     1       4.632  -4.545   3.106  0.00  0.00    +0.088 C 
ATOM     17  H   UNL     1       5.333  -6.133   5.051  0.00  0.00    -0.081 HD
BRANCH  14  18
ATOM     18  C   UNL     1       3.976  -5.885   6.552  0.00  0.00    -0.022 C 
BRANCH  18  19
ATOM     19  C   UNL     1       4.884  -4.949   7.308  0.00  0.00    +0.025 A 
ATOM     20  C   UNL     1       4.486  -3.645   7.535  0.00  0.00    +0.021 A 
ATOM     21  C   UNL     1       5.329  -2.793   8.231  0.00  0.00    +0.003 A 
ATOM     22  C   UNL     1       6.547  -3.286   8.675  0.00  0.00    +0.020 A 
ATOM     23  C   UNL     1       6.877  -4.602   8.410  0.00  0.00    +0.111 A 
ATOM     24  N   UNL     1       6.048  -5.386   7.750  0.00  0.00    -0.262 NA
ENDBRANCH  18  19
ENDBRANCH  14  18
ENDBRANCH   9  11
BRANCH   7  25
ATOM     25  C   UNL     1       3.946  -5.557  -3.636  0.00  0.00    +0.068 A 
ATOM     26  C   UNL     1       2.677  -5.847  -4.119  0.00  0.00    +0.028 A 
ATOM     27  C   UNL     1       2.413  -5.739  -5.470  0.00  0.00    +0.002 A 
ATOM     28  C   UNL     1       3.411  -5.344  -6.342  0.00  0.00    +0.000 A 
ATOM     29  C   UNL     1       4.676  -5.055  -5.864  0.00  0.00    +0.002 A 
ATOM     30  C   UNL     1       4.945  -5.155  -4.513  0.00  0.00    +0.028 A 
ENDBRANCH   7  25
BRANCH   1  31
ATOM     31  C   UNL     1       0.062  -4.296  -0.021  0.00  0.00    +0.111 C 
BRANCH  31  36
ATOM     32  C   UNL     1      -0.030   1.481   0.035  0.00  0.00    +0.044 C 
ATOM     33  C   UNL     1      -0.006  -0.025   0.020  0.00  0.00    -0.050 A 
ATOM     34  C   UNL     1      -0.001  -0.705  -1.184  0.00  0.00    +0.003 A 
ATOM     35  C   UNL     1       0.021  -2.087  -1.197  0.00  0.00    +0.004 A 
ATOM     36  C   UNL     1       0.039  -2.789  -0.007  0.00  0.00    -0.040 A 
ATOM     37  C   UNL     1       0.035  -2.110   1.197  0.00  0.00    +0.004 A 
ATOM     38  C   UNL     1       0.017  -0.728   1.210  0.00  0.00    +0.003 A 
ENDBRANCH  31  36
ENDBRANCH   1  31
TORSDOF 6
