REMARK  Name = ZINC40267107
REMARK  6 active torsions:
REMARK  status: ('A' for Active; 'I' for Inactive)
REMARK    1  A    between atoms: C_1  and  C_2
REMARK    2  A    between atoms: C_2  and  C_4
REMARK    3  A    between atoms: C_2  and  N_8
REMARK    4  A    between atoms: C_4  and  O_6
REMARK    5  A    between atoms: O_6  and  C_7
REMARK    6  A    between atoms: C_20  and  C_22
REMARK                            x       y       z     vdW  Elec       q    Type
REMARK                         _______ _______ _______ _____ _____    ______ ____
ROOT
ATOM      1  N   UNL     1       3.090  -0.319   0.078  0.00  0.00    -0.286 N 
ATOM      2  C   UNL     1       2.229  -0.525  -0.937  0.00  0.00    +0.304 C 
ATOM      3  O   UNL     1       1.031  -0.438  -0.746  0.00  0.00    -0.253 OA
ATOM      4  N   UNL     1       2.695  -0.829  -2.165  0.00  0.00    -0.273 N 
ATOM      5  C   UNL     1       1.781  -0.941  -3.312  0.00  0.00    +0.116 C 
ATOM      6  C   UNL     1       1.793  -2.386  -3.827  0.00  0.00    +0.076 C 
ATOM      7  C   UNL     1       3.221  -2.862  -3.910  0.00  0.00    +0.066 A 
ATOM      8  C   UNL     1       4.258  -2.277  -3.272  0.00  0.00    +0.064 A 
ATOM      9  N   UNL     1       5.376  -2.987  -3.584  0.00  0.00    -0.346 N 
ATOM     10  H   UNL     1       6.277  -2.810  -3.274  0.00  0.00    +0.167 HD
ATOM     11  C   UNL     1       4.990  -3.987  -4.410  0.00  0.00    +0.197 A 
ATOM     12  N   UNL     1       3.699  -3.903  -4.599  0.00  0.00    -0.240 NA
ATOM     13  C   UNL     1       4.134  -1.052  -2.394  0.00  0.00    +0.156 C 
ATOM     14  H   UNL     1       4.041  -0.459  -0.056  0.00  0.00    +0.151 HD
ENDROOT
BRANCH  13  15
ATOM     15  C   UNL     1       4.735   0.144  -3.086  0.00  0.00    -0.020 A 
ATOM     16  C   UNL     1       4.314   0.489  -4.357  0.00  0.00    +0.009 A 
ATOM     17  C   UNL     1       4.864   1.586  -4.994  0.00  0.00    +0.040 A 
ATOM     18  C   UNL     1       5.836   2.339  -4.359  0.00  0.00    +0.142 A 
ATOM     19  C   UNL     1       6.257   1.993  -3.085  0.00  0.00    +0.076 A 
ATOM     20  C   UNL     1       5.702   0.898  -2.448  0.00  0.00    +0.028 A 
ATOM     21 CL   UNL     1       7.476   2.936  -2.287  0.00  0.00    -0.081 Cl
ATOM     22  F   UNL     1       6.374   3.411  -4.980  0.00  0.00    -0.204 F 
ENDBRANCH  13  15
BRANCH   1  24
ATOM     23  C   UNL     1       2.155  -1.104   2.197  0.00  0.00    +0.040 C 
ATOM     24  C   UNL     1       2.591   0.117   1.385  0.00  0.00    +0.180 C 
BRANCH  24  25
ATOM     25  C   UNL     1       3.684   0.847   2.122  0.00  0.00    +0.327 C 
ATOM     26  O   UNL     1       4.769   0.988   1.609  0.00  0.00    -0.249 OA
BRANCH  25  27
ATOM     27  O   UNL     1       3.453   1.340   3.349  0.00  0.00    -0.467 OA
ATOM     28  C   UNL     1       4.535   2.020   3.990  0.00  0.00    +0.280 C 
ENDBRANCH  25  27
ENDBRANCH  24  25
ENDBRANCH   1  24
TORSDOF 4
