REMARK  Name = ZINC09205985
REMARK  9 active torsions:
REMARK  status: ('A' for Active; 'I' for Inactive)
REMARK    1  A    between atoms: C_1  and  C_2
REMARK    2  A    between atoms: C_2  and  O_3
REMARK    3  A    between atoms: O_3  and  C_4
REMARK    4  A    between atoms: C_7  and  C_10
REMARK    5  A    between atoms: C_10  and  C_12
REMARK    6  A    between atoms: C_13  and  N_21
REMARK    7  A    between atoms: C_22  and  C_24
REMARK    8  A    between atoms: N_29  and  C_31
REMARK    9  A    between atoms: C_34  and  C_37
REMARK                            x       y       z     vdW  Elec       q    Type
REMARK                         _______ _______ _______ _____ _____    ______ ____
ROOT
ATOM      1  C   UNL     1      -0.314  -3.258  -0.449  0.00  0.00    +0.197 A 
ATOM      2  C   UNL     1       0.984  -2.992  -0.061  0.00  0.00    +0.091 A 
ATOM      3  C   UNL     1       0.995  -1.585   0.355  0.00  0.00    +0.042 A 
ATOM      4  C   UNL     1       1.981  -0.726   0.844  0.00  0.00    +0.013 A 
ATOM      5  C   UNL     1       1.663   0.568   1.148  0.00  0.00    +0.001 A 
ATOM      6  C   UNL     1       0.366   1.031   0.976  0.00  0.00    +0.004 A 
ATOM      7  C   UNL     1      -0.621   0.199   0.494  0.00  0.00    +0.047 A 
ATOM      8  C   UNL     1      -0.320  -1.122   0.178  0.00  0.00    +0.138 A 
ATOM      9  O   UNL     1      -1.062  -2.142  -0.299  0.00  0.00    -0.450 OA
ENDROOT
BRANCH   2  10
ATOM     10  N   UNL     1       2.056  -3.873  -0.064  0.00  0.00    -0.276 N 
ATOM     11  C   UNL     1       3.303  -3.417  -0.297  0.00  0.00    +0.272 C 
ATOM     12  O   UNL     1       3.500  -2.224  -0.421  0.00  0.00    -0.268 OA
ATOM     13  H   UNL     1       1.909  -4.817   0.103  0.00  0.00    +0.155 HD
BRANCH  11  14
ATOM     14  C   UNL     1       4.429  -4.366  -0.401  0.00  0.00    +0.193 A 
ATOM     15  C   UNL     1       5.794  -3.884  -0.662  0.00  0.00    +0.212 A 
ATOM     16  O   UNL     1       6.034  -2.694  -0.798  0.00  0.00    -0.285 OA
ATOM     17  C   UNL     1       6.822  -4.859  -0.743  0.00  0.00    +0.073 A 
ATOM     18  C   UNL     1       6.474  -6.158  -0.586  0.00  0.00    +0.117 A 
ATOM     19  N   UNL     1       5.186  -6.510  -0.354  0.00  0.00    -0.239 N 
ATOM     20  N   UNL     1       4.229  -5.661  -0.268  0.00  0.00    -0.158 NA
BRANCH  19  21
ATOM     21  C   UNL     1       4.885  -7.867  -0.200  0.00  0.00    +0.065 A 
ATOM     22  C   UNL     1       5.865  -8.827  -0.421  0.00  0.00    +0.028 A 
ATOM     23  C   UNL     1       5.566 -10.166  -0.263  0.00  0.00    +0.005 A 
ATOM     24  C   UNL     1       4.290 -10.552   0.104  0.00  0.00    -0.050 A 
ATOM     25  C   UNL     1       3.310  -9.600   0.319  0.00  0.00    +0.005 A 
ATOM     26  C   UNL     1       3.604  -8.259   0.168  0.00  0.00    +0.028 A 
ATOM     27  C   UNL     1       3.965 -12.014   0.270  0.00  0.00    +0.044 C 
ENDBRANCH  19  21
ENDBRANCH  11  14
ENDBRANCH   2  10
BRANCH   1  28
ATOM     28  C   UNL     1      -0.788  -4.504  -0.929  0.00  0.00    +0.230 C 
ATOM     29  O   UNL     1      -0.008  -5.420  -1.120  0.00  0.00    -0.283 OA
BRANCH  28  33
ATOM     30  C   UNL     1      -4.931  -5.047  -1.699  0.00  0.00    +0.121 A 
ATOM     31  C   UNL     1      -4.062  -6.128  -1.786  0.00  0.00    +0.046 A 
ATOM     32  C   UNL     1      -2.718  -5.956  -1.538  0.00  0.00    +0.015 A 
ATOM     33  C   UNL     1      -2.229  -4.693  -1.197  0.00  0.00    +0.026 A 
ATOM     34  C   UNL     1      -3.106  -3.609  -1.104  0.00  0.00    +0.015 A 
ATOM     35  C   UNL     1      -4.448  -3.788  -1.360  0.00  0.00    +0.046 A 
BRANCH  30  36
ATOM     36  O   UNL     1      -6.254  -5.220  -1.945  0.00  0.00    -0.492 OA
BRANCH  36  38
ATOM     37  C   UNL     1      -8.537  -4.455  -2.148  0.00  0.00    +0.048 C 
ATOM     38  C   UNL     1      -7.090  -4.066  -1.838  0.00  0.00    +0.225 C 
ENDBRANCH  36  38
ENDBRANCH  30  36
ENDBRANCH  28  33
ENDBRANCH   1  28
TORSDOF 7
