REMARK  Name = ZINC21992076
REMARK  11 active torsions:
REMARK  status: ('A' for Active; 'I' for Inactive)
REMARK    1  A    between atoms: C_1  and  C_2
REMARK    2  A    between atoms: C_3  and  C_23
REMARK    3  A    between atoms: C_4  and  C_14
REMARK    4  A    between atoms: C_7  and  O_9
REMARK    5  A    between atoms: O_9  and  C_10
REMARK    6  A    between atoms: C_11  and  C_13
REMARK    7  A    between atoms: C_18  and  N_20
REMARK    8  A    between atoms: C_23  and  O_25
REMARK    9  A    between atoms: O_25  and  C_26
REMARK   10  A    between atoms: N_31  and  C_33
REMARK   11  A    between atoms: C_33  and  C_34
REMARK                            x       y       z     vdW  Elec       q    Type
REMARK                         _______ _______ _______ _____ _____    ______ ____
ROOT
ATOM      1  C   UNL     1      -0.416   1.462   0.087  0.00  0.00    +0.066 C 
ATOM      2  C   UNL     1      -0.190  -0.027   0.039  0.00  0.00    +0.049 C 
ATOM      3  C   UNL     1      -1.275  -0.856   0.005  0.00  0.00    +0.069 C 
ATOM      4  C   UNL     1      -1.016  -2.350  -0.043  0.00  0.00    +0.096 C 
ATOM      5  C   UNL     1       0.443  -2.769  -0.050  0.00  0.00    +0.069 C 
ATOM      6  C   UNL     1       0.810  -4.097  -0.093  0.00  0.00    +0.338 C 
ATOM      7  O   UNL     1      -0.130  -5.059  -0.013  0.00  0.00    -0.245 OA
ATOM      8  C   UNL     1       1.397  -1.751  -0.011  0.00  0.00    +0.049 C 
ATOM      9  N   UNL     1       1.053  -0.484   0.025  0.00  0.00    -0.256 NA
ATOM     10  C   UNL     1       2.860  -2.114  -0.015  0.00  0.00    +0.066 C 
ENDROOT
BRANCH   4  11
ATOM     11  C   UNL     1      -1.678  -2.982   1.154  0.00  0.00    -0.033 A 
ATOM     12  C   UNL     1      -1.311  -2.597   2.430  0.00  0.00    +0.005 A 
ATOM     13  C   UNL     1      -1.918  -3.177   3.529  0.00  0.00    +0.003 A 
ATOM     14  C   UNL     1      -2.893  -4.141   3.351  0.00  0.00    +0.033 A 
ATOM     15  C   UNL     1      -3.260  -4.525   2.075  0.00  0.00    +0.126 A 
ATOM     16  C   UNL     1      -2.656  -3.943   0.977  0.00  0.00    +0.037 A 
BRANCH  15  17
ATOM     17  N   UNL     1      -4.303  -5.558   1.885  0.00  0.00    +0.056 N 
ATOM     18  O   UNL     1      -4.834  -6.066   2.846  0.00  0.00    -0.126 OA
ATOM     19  O   UNL     1      -4.625  -5.894   0.769  0.00  0.00    -0.126 OA
ENDBRANCH  15  17
ENDBRANCH   4  11
BRANCH   6  20
ATOM     20  O   UNL     1       2.109  -4.433  -0.215  0.00  0.00    -0.465 OA
ATOM     21  C   UNL     1       2.418  -5.828  -0.253  0.00  0.00    +0.280 C 
ENDBRANCH   6  20
BRANCH   3  22
ATOM     22  C   UNL     1      -2.584  -0.343   0.016  0.00  0.00    +0.338 C 
ATOM     23  O   UNL     1      -2.767   0.860   0.056  0.00  0.00    -0.245 OA
BRANCH  22  24
ATOM     24  O   UNL     1      -3.640  -1.185  -0.017  0.00  0.00    -0.460 OA
BRANCH  24  25
ATOM     25  C   UNL     1      -4.941  -0.595  -0.004  0.00  0.00    +0.160 C 
ATOM     26  C   UNL     1      -5.415  -0.435   1.444  0.00  0.00    +0.041 C 
ATOM     27  C   UNL     1      -6.840   0.125   1.445  0.00  0.00    -0.015 C 
ATOM     28  C   UNL     1      -7.748  -0.805   0.637  0.00  0.00    -0.078 C 
ATOM     29  N   UNL     1      -7.258  -0.896  -0.743  0.00  0.00    +0.385 N 
ATOM     30  C   UNL     1      -5.919  -1.498  -0.759  0.00  0.00    -0.033 C 
ATOM     31  H   UNL     1      -7.214   0.029  -1.145  0.00  0.00    -0.081 HD
BRANCH  29  32
ATOM     32  C   UNL     1      -8.176  -1.727  -1.534  0.00  0.00    -0.043 C 
BRANCH  32  33
ATOM     33  C   UNL     1      -9.515  -1.043  -1.630  0.00  0.00    -0.064 A 
ATOM     34  C   UNL     1     -10.484  -1.282  -0.673  0.00  0.00    +0.002 A 
ATOM     35  C   UNL     1     -11.713  -0.655  -0.761  0.00  0.00    +0.000 A 
ATOM     36  C   UNL     1     -11.973   0.211  -1.806  0.00  0.00    +0.000 A 
ATOM     37  C   UNL     1     -11.004   0.451  -2.763  0.00  0.00    +0.000 A 
ATOM     38  C   UNL     1      -9.774  -0.173  -2.672  0.00  0.00    +0.002 A 
ENDBRANCH  32  33
ENDBRANCH  29  32
ENDBRANCH  24  25
ENDBRANCH  22  24
ENDBRANCH   3  22
TORSDOF 8
