REMARK  Name = ZINC14248061
REMARK  9 active torsions:
REMARK  status: ('A' for Active; 'I' for Inactive)
REMARK    1  A    between atoms: C_1  and  C_2
REMARK    2  A    between atoms: C_5  and  N_9
REMARK    3  A    between atoms: C_6  and  C_8
REMARK    4  A    between atoms: C_10  and  S_14
REMARK    5  A    between atoms: S_14  and  C_15
REMARK    6  A    between atoms: C_15  and  C_16
REMARK    7  A    between atoms: N_18  and  C_19
REMARK    8  A    between atoms: C_24  and  C_25
REMARK    9  A    between atoms: C_24  and  N_56
REMARK                            x       y       z     vdW  Elec       q    Type
REMARK                         _______ _______ _______ _____ _____    ______ ____
ROOT
ATOM      1  C   UNL     1      -1.560   0.893   1.106  0.00  0.00    +0.223 C 
ATOM      2  O   UNL     1      -1.430   2.098   1.071  0.00  0.00    -0.275 OA
ATOM      3  N   UNL     1      -0.485   0.104   1.303  0.00  0.00    -0.314 N 
ATOM      4  H   UNL     1      -0.589  -0.860   1.332  0.00  0.00    +0.149 HD
ENDROOT
BRANCH   3   5
ATOM      5  C   UNL     1       0.842   0.703   1.469  0.00  0.00    +0.055 C 
ATOM      6  C   UNL     1       1.097   1.038   2.956  0.00  0.00    +0.002 C 
ATOM      7  C   UNL     1       1.911  -0.188   3.450  0.00  0.00    -0.077 C 
ATOM      8  C   UNL     1       1.937  -0.310   1.089  0.00  0.00    -0.056 C 
ATOM      9  N   UNL     1       2.759  -0.491   2.286  0.00  0.00    +0.384 N 
ATOM     10  H   UNL     1       3.556   0.155   2.260  0.00  0.00    -0.081 HD
BRANCH   9  11
ATOM     11  C   UNL     1       3.268  -1.893   2.364  0.00  0.00    -0.043 C 
BRANCH  11  12
ATOM     12  C   UNL     1       3.909  -2.127   3.707  0.00  0.00    -0.064 A 
ATOM     13  C   UNL     1       5.261  -1.890   3.878  0.00  0.00    +0.002 A 
ATOM     14  C   UNL     1       5.848  -2.100   5.112  0.00  0.00    +0.000 A 
ATOM     15  C   UNL     1       5.087  -2.555   6.172  0.00  0.00    +0.000 A 
ATOM     16  C   UNL     1       3.736  -2.796   5.999  0.00  0.00    +0.000 A 
ATOM     17  C   UNL     1       3.148  -2.583   4.767  0.00  0.00    +0.002 A 
ENDBRANCH  11  12
ENDBRANCH   9  11
ENDBRANCH   3   5
BRANCH   1  18
ATOM     18  C   UNL     1      -2.924   0.276   0.929  0.00  0.00    +0.173 C 
BRANCH  18  19
ATOM     19  S   UNL     1      -4.151   1.585   0.686  0.00  0.00    -0.075 S 
BRANCH  19  21
ATOM     20  N   UNL     1      -6.867   1.071   0.302  0.00  0.00    -0.187 N 
ATOM     21  C   UNL     1      -5.608   0.610   0.512  0.00  0.00    +0.214 A 
ATOM     22  N   UNL     1      -5.680  -0.703   0.555  0.00  0.00    -0.101 NA
ATOM     23  N   UNL     1      -6.894  -1.092   0.396  0.00  0.00    -0.022 NA
ATOM     24  N   UNL     1      -7.673  -0.078   0.233  0.00  0.00    -0.038 NA
BRANCH  20  29
ATOM     25  C   UNL     1      -8.520   6.479  -0.192  0.00  0.00    +0.044 C 
ATOM     26  C   UNL     1      -8.081   5.043  -0.060  0.00  0.00    -0.050 A 
ATOM     27  C   UNL     1      -7.253   4.667   0.982  0.00  0.00    +0.005 A 
ATOM     28  C   UNL     1      -6.849   3.352   1.104  0.00  0.00    +0.028 A 
ATOM     29  C   UNL     1      -7.275   2.407   0.180  0.00  0.00    +0.073 A 
ATOM     30  C   UNL     1      -8.102   2.788  -0.868  0.00  0.00    -0.025 A 
ATOM     31  C   UNL     1      -8.507   4.104  -0.982  0.00  0.00    +0.008 A 
ATOM     32  C   UNL     1      -8.561   1.768  -1.877  0.00  0.00    +0.046 C 
ENDBRANCH  20  29
ENDBRANCH  19  21
ENDBRANCH  18  19
ENDBRANCH   1  18
TORSDOF 7
