REMARK  Name = ZINC21080108
REMARK  10 active torsions:
REMARK  status: ('A' for Active; 'I' for Inactive)
REMARK    1  A    between atoms: C_1  and  C_2
REMARK    2  A    between atoms: C_5  and  N_9
REMARK    3  A    between atoms: C_6  and  C_8
REMARK    4  A    between atoms: C_10  and  C_12
REMARK    5  A    between atoms: C_12  and  C_13
REMARK    6  A    between atoms: C_13  and  S_14
REMARK    7  A    between atoms: S_14  and  C_15
REMARK    8  A    between atoms: N_20  and  N_21
REMARK    9  A    between atoms: C_22  and  C_23
REMARK   10  A    between atoms: C_28  and  O_29
REMARK                            x       y       z     vdW  Elec       q    Type
REMARK                         _______ _______ _______ _____ _____    ______ ____
ROOT
ATOM      1  C   UNL     1       1.306  -0.409  -0.044  0.00  0.00    +0.210 A 
ATOM      2  N   UNL     1       0.001  -0.005  -0.038  0.00  0.00    -0.186 NA
ATOM      3  C   UNL     1      -0.018   1.362  -0.028  0.00  0.00    +0.232 A 
ATOM      4  N   UNL     1       1.223   1.784  -0.026  0.00  0.00    -0.245 N 
ATOM      5  N   UNL     1       2.062   0.662  -0.037  0.00  0.00    -0.144 NA
ATOM      6  N   UNL     1      -1.151   2.162  -0.024  0.00  0.00    -0.205 N 
ATOM      7  H   UNL     1      -2.150   1.701  -0.031  0.00  0.00    +0.177 HD
ATOM      8  H   UNL     1       1.437   2.863  -0.018  0.00  0.00    +0.192 HD
ENDROOT
BRANCH   6   9
ATOM      9  N   UNL     1      -1.024   3.557  -0.013  0.00  0.00    -0.187 NA
ATOM     10  C   UNL     1      -2.085   4.306  -0.010  0.00  0.00    +0.142 C 
BRANCH  10  11
ATOM     11  C   UNL     1      -1.951   5.773   0.002  0.00  0.00    +0.037 A 
ATOM     12  C   UNL     1      -3.090   6.582   0.005  0.00  0.00    +0.028 A 
ATOM     13  C   UNL     1      -2.958   7.956   0.017  0.00  0.00    +0.019 A 
ATOM     14  C   UNL     1      -1.700   8.536   0.025  0.00  0.00    +0.019 A 
ATOM     15  C   UNL     1      -0.566   7.745   0.022  0.00  0.00    +0.047 A 
ATOM     16  C   UNL     1      -0.681   6.365   0.016  0.00  0.00    +0.126 A 
ATOM     17 BR   UNL     1      -4.499   9.051   0.021  0.00  0.00    -0.050 Br
BRANCH  16  18
ATOM     18  O   UNL     1       0.433   5.588   0.018  0.00  0.00    -0.506 OA
ATOM     19  H   UNL     1       1.429   6.054   0.029  0.00  0.00    +0.292 HD
ENDBRANCH  16  18
ENDBRANCH  10  11
ENDBRANCH   6   9
BRANCH   1  20
ATOM     20  S   UNL     1       1.873  -2.078  -0.058  0.00  0.00    -0.084 S 
BRANCH  20  21
ATOM     21  C   UNL     1       3.681  -1.926  -0.060  0.00  0.00    +0.086 C 
BRANCH  21  22
ATOM     22  C   UNL     1       4.309  -3.321  -0.073  0.00  0.00    +0.107 C 
BRANCH  22  24
ATOM     23  N   UNL     1       6.580  -4.303  -0.085  0.00  0.00    -0.285 N 
ATOM     24  C   UNL     1       5.811  -3.196  -0.074  0.00  0.00    +0.218 C 
ATOM     25  O   UNL     1       6.328  -2.098  -0.066  0.00  0.00    -0.275 OA
ATOM     26  H   UNL     1       6.115  -5.296  -0.000  0.00  0.00    +0.155 HD
BRANCH  23  31
ATOM     27  C   UNL     1      12.214  -3.839  -0.564  0.00  0.00    +0.044 C 
ATOM     28  C   UNL     1      10.717  -3.962  -0.436  0.00  0.00    -0.050 A 
ATOM     29  C   UNL     1       9.898  -2.959  -0.923  0.00  0.00    +0.005 A 
ATOM     30  C   UNL     1       8.527  -3.069  -0.808  0.00  0.00    +0.024 A 
ATOM     31  C   UNL     1       7.969  -4.188  -0.203  0.00  0.00    +0.036 A 
ATOM     32  C   UNL     1       8.794  -5.191   0.290  0.00  0.00    -0.029 A 
ATOM     33  C   UNL     1      10.165  -5.077   0.167  0.00  0.00    +0.008 A 
ATOM     34  C   UNL     1       8.194  -6.403   0.953  0.00  0.00    +0.045 C 
ENDBRANCH  23  31
ENDBRANCH  22  24
ENDBRANCH  21  22
ENDBRANCH  20  21
ENDBRANCH   1  20
TORSDOF 8
