REMARK  Name = ZINC03317586
REMARK  6 active torsions:
REMARK  status: ('A' for Active; 'I' for Inactive)
REMARK    1  A    between atoms: C_1  and  N_2
REMARK    2  A    between atoms: N_4  and  N_17
REMARK    3  A    between atoms: C_5  and  C_8
REMARK    4  A    between atoms: C_11  and  N_14
REMARK    5  A    between atoms: C_18  and  C_19
REMARK    6  A    between atoms: C_24  and  O_25
REMARK                            x       y       z     vdW  Elec       q    Type
REMARK                         _______ _______ _______ _____ _____    ______ ____
ROOT
ATOM      1  C   UNL     1      -0.073   6.869  -0.021  0.00  0.00    +0.173 C 
ATOM      2  N   UNL     1      -1.153   5.880  -0.012  0.00  0.00    -0.263 NA
ATOM      3  C   UNL     1      -0.883   4.623  -0.193  0.00  0.00    +0.189 A 
ATOM      4  N   UNL     1       0.357   3.997  -0.262  0.00  0.00    -0.208 N 
ATOM      5  C   UNL     1       0.393   2.691  -0.455  0.00  0.00    +0.082 A 
ATOM      6  C   UNL     1      -0.835   1.989  -0.582  0.00  0.00    +0.077 A 
ATOM      7  S   UNL     1      -2.009   3.257  -0.424  0.00  0.00    -0.056 S 
ENDROOT
BRANCH   5   8
ATOM      8  C   UNL     1       1.675   1.979  -0.536  0.00  0.00    +0.001 A 
ATOM      9  C   UNL     1       2.793   2.604  -1.108  0.00  0.00    +0.012 A 
ATOM     10  C   UNL     1       3.994   1.931  -1.175  0.00  0.00    +0.033 A 
ATOM     11  C   UNL     1       4.095   0.637  -0.691  0.00  0.00    +0.126 A 
ATOM     12  C   UNL     1       2.994   0.010  -0.130  0.00  0.00    +0.033 A 
ATOM     13  C   UNL     1       1.788   0.669  -0.049  0.00  0.00    +0.012 A 
BRANCH  11  14
ATOM     14  N   UNL     1       5.388  -0.080  -0.772  0.00  0.00    +0.056 N 
ATOM     15  O   UNL     1       5.489  -1.310  -0.313  0.00  0.00    -0.126 OA
ATOM     16  O   UNL     1       6.436   0.512  -1.305  0.00  0.00    -0.126 OA
ENDBRANCH  11  14
ENDBRANCH   5   8
BRANCH   4  17
ATOM     17  N   UNL     1       1.540   4.735  -0.130  0.00  0.00    -0.172 NA
ATOM     18  C   UNL     1       1.820   5.327   1.005  0.00  0.00    +0.145 C 
BRANCH  18  19
ATOM     19  C   UNL     1       0.984   5.085   2.183  0.00  0.00    +0.038 A 
ATOM     20  C   UNL     1       0.136   3.969   2.230  0.00  0.00    +0.028 A 
ATOM     21  C   UNL     1      -0.646   3.749   3.341  0.00  0.00    +0.020 A 
ATOM     22  C   UNL     1      -0.600   4.625   4.417  0.00  0.00    +0.034 A 
ATOM     23  C   UNL     1       0.230   5.730   4.386  0.00  0.00    +0.061 A 
ATOM     24  C   UNL     1       1.030   5.968   3.279  0.00  0.00    +0.139 A 
ATOM     25 BR   UNL     1       0.281   6.913   5.860  0.00  0.00    -0.046 Br
ATOM     26 BR   UNL     1      -1.789   2.243   3.403  0.00  0.00    -0.050 Br
BRANCH  24  27
ATOM     27  O   UNL     1       1.849   7.049   3.250  0.00  0.00    -0.505 OA
ATOM     28  H   UNL     1       1.418   7.862   2.952  0.00  0.00    +0.292 HD
ENDBRANCH  24  27
ENDBRANCH  18  19
ENDBRANCH   4  17
TORSDOF 5
