REMARK  Name = ZINC16440925
REMARK  10 active torsions:
REMARK  status: ('A' for Active; 'I' for Inactive)
REMARK    1  A    between atoms: C_1  and  C_2
REMARK    2  A    between atoms: C_5  and  C_8
REMARK    3  A    between atoms: C_8  and  N_9
REMARK    4  A    between atoms: C_11  and  C_15
REMARK    5  A    between atoms: C_12  and  C_14
REMARK    6  A    between atoms: C_16  and  C_17
REMARK    7  A    between atoms: C_16  and  C_19
REMARK    8  A    between atoms: N_21  and  C_22
REMARK    9  A    between atoms: C_25  and  S_28
REMARK   10  A    between atoms: S_28  and  N_31
REMARK                            x       y       z     vdW  Elec       q    Type
REMARK                         _______ _______ _______ _____ _____    ______ ____
ROOT
ATOM      1  C   UNL     1       2.089  -1.708   0.181  0.00  0.00    +0.036 C 
ATOM      2  C   UNL     1       1.487  -2.656   0.984  0.00  0.00    +0.114 C 
ENDROOT
BRANCH   1   5
ATOM      3  N   UNL     1       0.258   1.413   0.078  0.00  0.00    -0.248 N 
ATOM      4  C   UNL     1       0.274   0.071   0.021  0.00  0.00    +0.135 A 
ATOM      5  C   UNL     1       1.595  -0.332   0.177  0.00  0.00    +0.035 A 
ATOM      6  C   UNL     1       2.370   0.844   0.331  0.00  0.00    +0.069 A 
ATOM      7  N   UNL     1       1.567   1.868   0.271  0.00  0.00    -0.174 NA
ATOM      8  C   UNL     1       3.863   0.900   0.531  0.00  0.00    +0.068 C 
ATOM      9 CL   UNL     1      -1.099  -0.966  -0.206  0.00  0.00    -0.062 Cl
BRANCH   3  10
ATOM     10  C   UNL     1      -0.931   2.259  -0.046  0.00  0.00    +0.180 C 
BRANCH  10  15
ATOM     11  C   UNL     1      -3.231   3.132   5.183  0.00  0.00    +0.044 C 
ATOM     12  C   UNL     1      -2.631   2.905   3.819  0.00  0.00    -0.050 A 
ATOM     13  C   UNL     1      -1.676   3.776   3.330  0.00  0.00    +0.004 A 
ATOM     14  C   UNL     1      -1.126   3.567   2.079  0.00  0.00    +0.006 A 
ATOM     15  C   UNL     1      -1.531   2.487   1.317  0.00  0.00    -0.026 A 
ATOM     16  C   UNL     1      -2.490   1.619   1.804  0.00  0.00    +0.006 A 
ATOM     17  C   UNL     1      -3.038   1.825   3.057  0.00  0.00    +0.004 A 
ENDBRANCH  10  15
ENDBRANCH   3  10
ENDBRANCH   1   5
BRANCH   2  18
ATOM     18  C   UNL     1       1.984  -4.038   0.988  0.00  0.00    +0.259 C 
ATOM     19  O   UNL     1       2.927  -4.348   0.283  0.00  0.00    -0.269 OA
ATOM     20  N   UNL     1       1.396  -4.964   1.771  0.00  0.00    -0.281 N 
ATOM     21  H   UNL     1       0.696  -4.702   2.389  0.00  0.00    +0.155 HD
BRANCH  20  22
ATOM     22  C   UNL     1       1.796  -6.302   1.694  0.00  0.00    +0.034 A 
ATOM     23  C   UNL     1       2.211  -6.835   0.481  0.00  0.00    +0.025 A 
ATOM     24  C   UNL     1       2.610  -8.156   0.409  0.00  0.00    +0.030 A 
ATOM     25  C   UNL     1       2.587  -8.949   1.541  0.00  0.00    +0.105 A 
ATOM     26  C   UNL     1       2.169  -8.422   2.750  0.00  0.00    +0.030 A 
ATOM     27  C   UNL     1       1.774  -7.101   2.830  0.00  0.00    +0.025 A 
BRANCH  25  28
ATOM     28  S   UNL     1       3.090 -10.635   1.444  0.00  0.00    +0.056 S 
ATOM     29  O   UNL     1       3.953 -10.736   0.320  0.00  0.00    -0.153 OA
ATOM     30  O   UNL     1       3.496 -11.013   2.752  0.00  0.00    -0.153 OA
BRANCH  28  31
ATOM     31  N   UNL     1       1.742 -11.529   1.089  0.00  0.00    -0.204 NA
ATOM     32  H   UNL     1       0.885 -11.090   0.978  0.00  0.00    +0.144 HD
ATOM     33  H   UNL     1       1.811 -12.492   0.992  0.00  0.00    +0.144 HD
ENDBRANCH  28  31
ENDBRANCH  25  28
ENDBRANCH  20  22
ENDBRANCH   2  18
BRANCH   2  34
ATOM     34  C   UNL     1       0.378  -2.292   1.812  0.00  0.00    +0.104 C 
ATOM     35  N   UNL     1      -0.503  -2.002   2.470  0.00  0.00    -0.191 NA
ENDBRANCH   2  34
TORSDOF 8
