REMARK  Name = ZINC33887961
REMARK  12 active torsions:
REMARK  status: ('A' for Active; 'I' for Inactive)
REMARK    1  A    between atoms: C_1  and  C_2
REMARK    2  A    between atoms: C_2  and  C_3
REMARK    3  A    between atoms: C_3  and  C_4
REMARK    4  A    between atoms: C_4  and  N_5
REMARK    5  A    between atoms: C_10  and  C_28
REMARK    6  A    between atoms: C_13  and  C_18
REMARK    7  A    between atoms: C_13  and  C_25
REMARK    8  A    between atoms: C_18  and  C_19
REMARK    9  A    between atoms: C_19  and  C_20
REMARK   10  A    between atoms: C_20  and  N_21
REMARK   11  A    between atoms: C_31  and  O_38
REMARK   12  A    between atoms: O_38  and  C_39
REMARK                            x       y       z     vdW  Elec       q    Type
REMARK                         _______ _______ _______ _____ _____    ______ ____
ROOT
ATOM      1  N   UNL     1      -2.886  -2.585  -0.019  0.00  0.00    -0.242 N 
ATOM      2  C   UNL     1      -3.551  -2.854   1.152  0.00  0.00    +0.224 C 
ATOM      3  O   UNL     1      -3.245  -2.511   2.274  0.00  0.00    -0.275 OA
ATOM      4  C   UNL     1      -4.696  -3.637   0.750  0.00  0.00    +0.077 C 
ATOM      5  C   UNL     1      -6.011  -4.054   1.255  0.00  0.00    -0.026 C 
ATOM      6  N   UNL     1      -6.764  -4.475   0.028  0.00  0.00    +0.395 N 
ATOM      7  C   UNL     1      -5.899  -4.171  -1.159  0.00  0.00    +0.048 C 
ATOM      8  C   UNL     1      -5.054  -2.985  -0.645  0.00  0.00    +0.086 C 
ATOM      9  C   UNL     1      -3.635  -2.861  -1.127  0.00  0.00    +0.225 C 
ATOM     10  O   UNL     1      -3.237  -2.984  -2.266  0.00  0.00    -0.275 OA
ATOM     11  H   UNL     1      -6.955  -5.465   0.066  0.00  0.00    -0.083 HD
ATOM     12  H   UNL     1      -7.629  -3.960  -0.038  0.00  0.00    -0.083 HD
ENDROOT
BRANCH   5  13
ATOM     13  C   UNL     1      -6.705  -2.899   1.931  0.00  0.00    -0.053 A 
ATOM     14  C   UNL     1      -7.540  -2.092   1.219  0.00  0.00    +0.006 A 
ATOM     15  C   UNL     1      -8.191  -1.020   1.824  0.00  0.00    +0.046 A 
ATOM     16  C   UNL     1      -8.011  -0.748   3.151  0.00  0.00    +0.128 A 
ATOM     17  C   UNL     1      -7.155  -1.564   3.918  0.00  0.00    +0.024 A 
ATOM     18  C   UNL     1      -6.499  -2.656   3.300  0.00  0.00    -0.013 A 
ATOM     19  C   UNL     1      -5.649  -3.473   4.066  0.00  0.00    +0.009 A 
ATOM     20  C   UNL     1      -5.472  -3.207   5.389  0.00  0.00    +0.001 A 
ATOM     21  C   UNL     1      -6.123  -2.135   5.998  0.00  0.00    +0.001 A 
ATOM     22  C   UNL     1      -6.944  -1.317   5.285  0.00  0.00    +0.012 A 
BRANCH  16  23
ATOM     23  O   UNL     1      -8.653   0.301   3.726  0.00  0.00    -0.495 OA
ATOM     24  C   UNL     1      -9.504   1.082   2.884  0.00  0.00    +0.277 C 
ENDBRANCH  16  23
ENDBRANCH   5  13
BRANCH   7  25
ATOM     25  C   UNL     1      -6.738  -3.748  -2.337  0.00  0.00    +0.346 C 
ATOM     26  O   UNL     1      -7.953  -3.720  -2.241  0.00  0.00    -0.248 OA
ATOM     27  O   UNL     1      -6.202  -3.434  -3.386  0.00  0.00    -0.248 OA
ENDBRANCH   7  25
BRANCH   1  28
ATOM     28  C   UNL     1      -1.522  -2.053  -0.073  0.00  0.00    +0.116 C 
BRANCH  28  29
ATOM     29  C   UNL     1      -1.571  -0.524  -0.073  0.00  0.00    +0.019 C 
BRANCH  29  31
ATOM     30  C   UNL     1      -0.196   1.561  -0.131  0.00  0.00    +0.004 C 
ATOM     31  C   UNL     1      -0.147   0.032  -0.130  0.00  0.00    -0.002 C 
ENDBRANCH  29  31
ENDBRANCH  28  29
ENDBRANCH   1  28
BRANCH   7  32
ATOM     32  C   UNL     1      -5.026  -5.375  -1.517  0.00  0.00    +0.001 C 
BRANCH  32  33
ATOM     33  C   UNL     1      -5.918  -6.543  -1.941  0.00  0.00    +0.018 C 
BRANCH  33  34
ATOM     34  C   UNL     1      -5.045  -7.748  -2.299  0.00  0.00    +0.105 C 
BRANCH  34  35
ATOM     35  N   UNL     1      -5.900  -8.867  -2.705  0.00  0.00    -0.300 N 
ATOM     36  C   UNL     1      -5.346 -10.041  -3.067  0.00  0.00    +0.297 C 
ATOM     37  O   UNL     1      -4.137 -10.171  -3.057  0.00  0.00    -0.253 OA
ATOM     38  N   UNL     1      -6.132 -11.070  -3.440  0.00  0.00    -0.313 N 
ATOM     39  H   UNL     1      -6.864  -8.762  -2.713  0.00  0.00    +0.150 HD
ATOM     40  H   UNL     1      -7.096 -10.966  -3.448  0.00  0.00    +0.146 HD
ATOM     41  H   UNL     1      -5.733 -11.915  -3.701  0.00  0.00    +0.146 HD
ENDBRANCH  34  35
ENDBRANCH  33  34
ENDBRANCH  32  33
ENDBRANCH   7  32
TORSDOF 10
