REMARK  Name = ZINC12149301
REMARK  8 active torsions:
REMARK  status: ('A' for Active; 'I' for Inactive)
REMARK    1  A    between atoms: C_1  and  C_2
REMARK    2  A    between atoms: C_7  and  C_8
REMARK    3  A    between atoms: C_7  and  N_52
REMARK    4  A    between atoms: C_12  and  N_21
REMARK    5  A    between atoms: C_13  and  C_17
REMARK    6  A    between atoms: C_17  and  O_19
REMARK    7  A    between atoms: O_19  and  C_20
REMARK    8  A    between atoms: C_22  and  C_24
REMARK                            x       y       z     vdW  Elec       q    Type
REMARK                         _______ _______ _______ _____ _____    ______ ____
ROOT
ATOM      1  C   UNL     1       0.157   3.296   2.786  0.00  0.00    +0.026 A 
ATOM      2  C   UNL     1       0.499   1.985   3.085  0.00  0.00    +0.022 A 
ATOM      3  C   UNL     1       1.345   1.282   2.260  0.00  0.00    +0.014 A 
ATOM      4  C   UNL     1       1.853   1.913   1.097  0.00  0.00    +0.030 A 
ATOM      5  C   UNL     1       2.748   1.371   0.087  0.00  0.00    +0.064 A 
ATOM      6  C   UNL     1       3.109   2.180  -0.969  0.00  0.00    +0.120 A 
ATOM      7  S   UNL     1       2.250   3.705  -0.632  0.00  0.00    -0.060 S 
ATOM      8  C   UNL     1       1.440   3.247   0.880  0.00  0.00    +0.111 A 
ATOM      9  N   UNL     1       0.631   3.880   1.703  0.00  0.00    -0.246 NA
ENDROOT
BRANCH   5  10
ATOM     10  N   UNL     1       3.227   0.070   0.184  0.00  0.00    -0.277 N 
ATOM     11  C   UNL     1       2.413  -0.970  -0.086  0.00  0.00    +0.284 C 
ATOM     12  O   UNL     1       1.289  -0.769  -0.508  0.00  0.00    -0.266 OA
ATOM     13  H   UNL     1       4.147  -0.089   0.446  0.00  0.00    +0.155 HD
BRANCH  11  14
ATOM     14  C   UNL     1       2.881  -2.342   0.129  0.00  0.00    +0.189 A 
ATOM     15  C   UNL     1       2.163  -3.481  -0.103  0.00  0.00    +0.054 A 
ATOM     16  C   UNL     1       2.995  -4.559   0.237  0.00  0.00    +0.042 A 
ATOM     17  C   UNL     1       4.170  -4.037   0.656  0.00  0.00    +0.196 A 
ATOM     18  O   UNL     1       4.099  -2.702   0.584  0.00  0.00    -0.458 OA
ENDBRANCH  11  14
ENDBRANCH   5  10
BRANCH   6  19
ATOM     19  C   UNL     1       3.959   1.873  -2.059  0.00  0.00    +0.348 C 
ATOM     20  O   UNL     1       4.400   0.746  -2.189  0.00  0.00    -0.244 OA
BRANCH  19  21
ATOM     21  O   UNL     1       4.281   2.830  -2.955  0.00  0.00    -0.464 OA
ATOM     22  C   UNL     1       5.143   2.451  -4.029  0.00  0.00    +0.280 C 
ENDBRANCH  19  21
ENDBRANCH   6  19
BRANCH   1  23
ATOM     23  C   UNL     1      -0.767   4.056   3.703  0.00  0.00    -0.022 C 
BRANCH  23  30
ATOM     24  C   UNL     1       2.028   7.907   6.869  0.00  0.00    +0.007 C 
ATOM     25  C   UNL     1       1.156   7.248   5.798  0.00  0.00    -0.018 C 
ATOM     26  C   UNL     1       0.007   6.490   6.469  0.00  0.00    -0.016 C 
ATOM     27  C   UNL     1      -0.826   5.784   5.397  0.00  0.00    -0.078 C 
ATOM     28  C   UNL     1       1.110   5.564   3.956  0.00  0.00    -0.078 C 
ATOM     29  C   UNL     1       2.001   6.264   4.985  0.00  0.00    -0.016 C 
ATOM     30  N   UNL     1       0.039   4.833   4.667  0.00  0.00    +0.383 N 
ATOM     31  H   UNL     1       0.467   4.187   5.341  0.00  0.00    -0.081 HD
ENDBRANCH  23  30
ENDBRANCH   1  23
TORSDOF 6
