REMARK  Name = ZINC05523583
REMARK  5 active torsions:
REMARK  status: ('A' for Active; 'I' for Inactive)
REMARK    1  A    between atoms: C_1  and  C_2
REMARK    2  A    between atoms: C_3  and  C_15
REMARK    3  A    between atoms: C_4  and  C_9
REMARK    4  A    between atoms: N_17  and  C_18
REMARK    5  A    between atoms: C_22  and  N_24
REMARK                            x       y       z     vdW  Elec       q    Type
REMARK                         _______ _______ _______ _____ _____    ______ ____
ROOT
ATOM      1  C   UNL     1       0.677   1.550  -1.530  0.00  0.00    +0.061 C 
ATOM      2  C   UNL     1       0.613   0.215  -0.832  0.00  0.00    +0.017 C 
ATOM      3  C   UNL     1      -0.522  -0.148  -0.198  0.00  0.00    +0.056 C 
ATOM      4  C   UNL     1      -0.544  -1.498   0.491  0.00  0.00    +0.139 C 
ATOM      5  N   UNL     1       0.683  -2.308   0.410  0.00  0.00    -0.315 N 
ATOM      6  C   UNL     1       1.739  -1.808  -0.262  0.00  0.00    +0.135 C 
ATOM      7  S   UNL     1       3.172  -2.738  -0.364  0.00  0.00    -0.019 S 
ATOM      8  N   UNL     1       1.701  -0.609  -0.857  0.00  0.00    -0.300 N 
ATOM      9  H   UNL     1       0.731  -3.180   0.831  0.00  0.00    +0.149 HD
ATOM     10  H   UNL     1       2.493  -0.307  -1.329  0.00  0.00    +0.154 HD
ENDROOT
BRANCH   4  11
ATOM     11  C   UNL     1      -1.672  -2.303  -0.101  0.00  0.00    -0.023 A 
ATOM     12  C   UNL     1      -1.518  -2.904  -1.336  0.00  0.00    +0.006 A 
ATOM     13  C   UNL     1      -2.552  -3.643  -1.879  0.00  0.00    +0.000 A 
ATOM     14  C   UNL     1      -3.741  -3.781  -1.187  0.00  0.00    +0.000 A 
ATOM     15  C   UNL     1      -3.894  -3.181   0.049  0.00  0.00    +0.000 A 
ATOM     16  C   UNL     1      -2.858  -2.445   0.594  0.00  0.00    +0.006 A 
ENDBRANCH   4  11
BRANCH   3  17
ATOM     17  C   UNL     1      -1.653   0.703  -0.176  0.00  0.00    +0.248 C 
ATOM     18  O   UNL     1      -1.916   1.342   0.828  0.00  0.00    -0.270 OA
ATOM     19  N   UNL     1      -2.440   0.807  -1.265  0.00  0.00    -0.282 N 
ATOM     20  H   UNL     1      -2.280   0.238  -2.035  0.00  0.00    +0.155 HD
BRANCH  19  21
ATOM     21  C   UNL     1      -3.486   1.735  -1.286  0.00  0.00    +0.036 A 
ATOM     22  C   UNL     1      -4.234   1.967  -0.139  0.00  0.00    +0.023 A 
ATOM     23  C   UNL     1      -5.267   2.884  -0.163  0.00  0.00    +0.004 A 
ATOM     24  C   UNL     1      -5.557   3.570  -1.329  0.00  0.00    +0.033 A 
ATOM     25  C   UNL     1      -4.815   3.341  -2.473  0.00  0.00    +0.128 A 
ATOM     26  C   UNL     1      -3.776   2.430  -2.453  0.00  0.00    +0.056 A 
BRANCH  25  27
ATOM     27  N   UNL     1      -5.130   4.077  -3.718  0.00  0.00    +0.056 N 
ATOM     28  O   UNL     1      -6.035   4.878  -3.734  0.00  0.00    -0.126 OA
ATOM     29  O   UNL     1      -4.481   3.877  -4.718  0.00  0.00    -0.126 OA
ENDBRANCH  25  27
ENDBRANCH  19  21
ENDBRANCH   3  17
TORSDOF 4
