REMARK  Name = ZINC20375183
REMARK  7 active torsions:
REMARK  status: ('A' for Active; 'I' for Inactive)
REMARK    1  A    between atoms: C_1  and  C_2
REMARK    2  A    between atoms: C_3  and  C_17
REMARK    3  A    between atoms: C_7  and  C_16
REMARK    4  A    between atoms: C_17  and  O_19
REMARK    5  A    between atoms: O_19  and  C_20
REMARK    6  A    between atoms: C_20  and  C_21
REMARK    7  A    between atoms: C_20  and  C_22
REMARK                            x       y       z     vdW  Elec       q    Type
REMARK                         _______ _______ _______ _____ _____    ______ ____
ROOT
ATOM      1  C   UNL     1       2.866   1.736  -3.309  0.00  0.00    +0.061 C 
ATOM      2  C   UNL     1       2.495   1.429  -1.881  0.00  0.00    +0.014 C 
ATOM      3  C   UNL     1       2.891   0.264  -1.343  0.00  0.00    +0.061 C 
ATOM      4  C   UNL     1       2.497  -0.107   0.071  0.00  0.00    +0.066 C 
ATOM      5  C   UNL     1       2.369   1.179   0.906  0.00  0.00    +0.081 C 
ATOM      6  C   UNL     1       1.311   2.055   0.179  0.00  0.00    +0.174 C 
ATOM      7  N   UNL     1       1.766   2.343  -1.178  0.00  0.00    -0.310 N 
ATOM      8  O   UNL     1       0.055   1.400   0.204  0.00  0.00    -0.468 OA
ATOM      9  C   UNL     1      -0.013   0.055   0.044  0.00  0.00    +0.127 A 
ATOM     10  C   UNL     1       1.121  -0.735  -0.016  0.00  0.00    +0.002 A 
ATOM     11  C   UNL     1       1.013  -2.104  -0.164  0.00  0.00    +0.008 A 
ATOM     12  C   UNL     1      -0.235  -2.693  -0.263  0.00  0.00    +0.001 A 
ATOM     13  C   UNL     1      -1.372  -1.910  -0.213  0.00  0.00    +0.004 A 
ATOM     14  C   UNL     1      -1.266  -0.542  -0.060  0.00  0.00    +0.046 A 
ATOM     15  C   UNL     1       1.194   3.374   0.946  0.00  0.00    +0.078 C 
ATOM     16  H   UNL     1       1.523   3.308  -1.647  0.00  0.00    +0.149 HD
ENDROOT
BRANCH   3  17
ATOM     17  C   UNL     1       3.683  -0.624  -2.102  0.00  0.00    +0.337 C 
ATOM     18  O   UNL     1       3.919  -0.381  -3.271  0.00  0.00    -0.245 OA
BRANCH  17  19
ATOM     19  O   UNL     1       4.180  -1.742  -1.532  0.00  0.00    -0.459 OA
BRANCH  19  20
ATOM     20  C   UNL     1       4.973  -2.595  -2.360  0.00  0.00    +0.171 C 
ATOM     21  C   UNL     1       6.011  -3.319  -1.499  0.00  0.00    +0.052 C 
ATOM     22  C   UNL     1       4.072  -3.624  -3.044  0.00  0.00    +0.052 C 
ENDBRANCH  19  20
ENDBRANCH  17  19
ENDBRANCH   3  17
TORSDOF 3
