REMARK  Name = ZINC14157180
REMARK  7 active torsions:
REMARK  status: ('A' for Active; 'I' for Inactive)
REMARK    1  A    between atoms: C_1  and  C_2
REMARK    2  A    between atoms: C_4  and  C_29
REMARK    3  A    between atoms: N_10  and  C_11
REMARK    4  A    between atoms: C_11  and  N_13
REMARK    5  A    between atoms: N_13  and  C_14
REMARK    6  A    between atoms: N_22  and  C_23
REMARK    7  A    between atoms: C_23  and  C_24
REMARK                            x       y       z     vdW  Elec       q    Type
REMARK                         _______ _______ _______ _____ _____    ______ ____
ROOT
ATOM      1  C   UNL     1       1.188   1.423  -0.686  0.00  0.00    +0.066 C 
ATOM      2  C   UNL     1       0.920  -0.058  -0.610  0.00  0.00    +0.044 A 
ATOM      3  C   UNL     1       0.783  -0.806  -1.769  0.00  0.00    +0.046 A 
ATOM      4  C   UNL     1       0.536  -2.165  -1.654  0.00  0.00    +0.044 A 
ATOM      5  N   UNL     1       0.440  -2.704  -0.450  0.00  0.00    -0.217 NA
ATOM      6  C   UNL     1       0.575  -1.960   0.638  0.00  0.00    +0.231 A 
ATOM      7  N   UNL     1       0.817  -0.660   0.563  0.00  0.00    -0.217 NA
ATOM      8  N   UNL     1       0.468  -2.559   1.886  0.00  0.00    -0.297 N 
ATOM      9  C   UNL     1       0.655  -1.816   3.020  0.00  0.00    +0.196 C 
ATOM     10  N   UNL     1       0.675  -2.407   4.202  0.00  0.00    -0.159 NA
ATOM     11  N   UNL     1       0.822  -0.464   2.930  0.00  0.00    -0.353 N 
ATOM     12  C   UNL     1       0.380  -3.019  -2.886  0.00  0.00    +0.066 C 
ATOM     13  H   UNL     1       0.259  -3.504   1.954  0.00  0.00    +0.171 HD
ATOM     14  H   UNL     1       0.700  -0.015   2.079  0.00  0.00    +0.163 HD
ENDROOT
BRANCH  10  15
ATOM     15  C   UNL     1       0.372  -1.709   5.306  0.00  0.00    +0.162 C 
ATOM     16  S   UNL     1      -1.200  -1.063   5.506  0.00  0.00    -0.016 S 
BRANCH  15  17
ATOM     17  N   UNL     1       1.307  -1.515   6.258  0.00  0.00    -0.294 N 
ATOM     18  H   UNL     1       2.218  -1.813   6.111  0.00  0.00    +0.154 HD
BRANCH  17  19
ATOM     19  C   UNL     1       0.962  -0.885   7.459  0.00  0.00    +0.051 A 
ATOM     20  C   UNL     1      -0.208  -1.237   8.118  0.00  0.00    +0.026 A 
ATOM     21  C   UNL     1      -0.546  -0.614   9.304  0.00  0.00    +0.022 A 
ATOM     22  C   UNL     1       0.280   0.361   9.835  0.00  0.00    +0.042 A 
ATOM     23  C   UNL     1       1.447   0.715   9.180  0.00  0.00    +0.041 A 
ATOM     24  C   UNL     1       1.793   0.091   7.997  0.00  0.00    +0.063 A 
ATOM     25 CL   UNL     1       3.260   0.530   7.179  0.00  0.00    -0.082 Cl
ATOM     26 CL   UNL     1      -0.149   1.143  11.324  0.00  0.00    -0.083 Cl
ENDBRANCH  17  19
ENDBRANCH  15  17
ENDBRANCH  10  15
BRANCH  11  27
ATOM     27  C   UNL     1       1.185   0.310   4.120  0.00  0.00    +0.158 C 
BRANCH  27  28
ATOM     28  C   UNL     1       1.504   1.728   3.719  0.00  0.00    +0.009 A 
ATOM     29  C   UNL     1       0.675   2.797   3.634  0.00  0.00    +0.013 A 
ATOM     30  C   UNL     1       1.193   4.017   3.240  0.00  0.00    +0.008 A 
ATOM     31  C   UNL     1       2.514   4.107   2.952  0.00  0.00    +0.045 A 
ATOM     32  S   UNL     1       3.071   2.436   3.242  0.00  0.00    -0.100 S 
ENDBRANCH  27  28
ENDBRANCH  11  27
TORSDOF 5
