REMARK  Name = ZINC39948157
REMARK  2 active torsions:
REMARK  status: ('A' for Active; 'I' for Inactive)
REMARK    1  A    between atoms: C_5  and  O_20
REMARK    2  A    between atoms: C_6  and  C_7
REMARK                            x       y       z     vdW  Elec       q    Type
REMARK                         _______ _______ _______ _____ _____    ______ ____
ROOT
ATOM      1  C   UNL     1      -1.262  -0.763   0.010  0.00  0.00    +0.254 C 
ATOM      2  O   UNL     1      -1.242  -1.978   0.003  0.00  0.00    -0.270 OA
ATOM      3  N   UNL     1      -2.441  -0.109   0.025  0.00  0.00    -0.251 N 
ATOM      4  C   UNL     1      -3.629  -0.822   0.032  0.00  0.00    +0.218 C 
ATOM      5  N   UNL     1      -4.812  -0.257   0.041  0.00  0.00    -0.238 NA
ATOM      6  C   UNL     1      -5.780  -1.345  -0.058  0.00  0.00    +0.180 C 
ATOM      7  C   UNL     1      -6.811  -1.366   1.033  0.00  0.00    +0.006 C 
ATOM      8  C   UNL     1      -7.199  -2.543   1.536  0.00  0.00    -0.002 C 
ATOM      9  C   UNL     1      -6.654  -3.785   1.133  0.00  0.00    +0.002 C 
ATOM     10  C   UNL     1      -5.476  -3.835   0.438  0.00  0.00    +0.026 C 
ATOM     11  C   UNL     1      -4.915  -2.586   0.095  0.00  0.00    +0.073 C 
ATOM     12  N   UNL     1      -3.688  -2.167   0.025  0.00  0.00    -0.217 NA
ATOM     13  H   UNL     1      -2.457   0.861   0.030  0.00  0.00    +0.158 HD
ENDROOT
BRANCH   1  19
ATOM     14  C   UNL     1      -0.017   1.393   0.010  0.00  0.00    +0.032 A 
ATOM     15  C   UNL     1       1.169   2.097   0.002  0.00  0.00    +0.020 A 
ATOM     16  C   UNL     1       2.381   1.425  -0.013  0.00  0.00    +0.034 A 
ATOM     17  C   UNL     1       2.413   0.043  -0.021  0.00  0.00    +0.061 A 
ATOM     18  C   UNL     1       1.230  -0.680  -0.014  0.00  0.00    +0.143 A 
ATOM     19  C   UNL     1       0.002  -0.004   0.002  0.00  0.00    +0.081 A 
ATOM     20 BR   UNL     1       4.074  -0.862  -0.042  0.00  0.00    -0.046 Br
ATOM     21 BR   UNL     1       1.141   3.987   0.012  0.00  0.00    -0.050 Br
BRANCH  18  22
ATOM     22  O   UNL     1       1.260  -2.037  -0.022  0.00  0.00    -0.505 OA
ATOM     23  H   UNL     1       1.278  -2.435   0.859  0.00  0.00    +0.292 HD
ENDBRANCH  18  22
ENDBRANCH   1  19
TORSDOF 2
