REMARK  Name = ZINC10092397
REMARK  12 active torsions:
REMARK  status: ('A' for Active; 'I' for Inactive)
REMARK    1  A    between atoms: C_1  and  C_2
REMARK    2  A    between atoms: C_5  and  S_8
REMARK    3  A    between atoms: S_8  and  N_11
REMARK    4  A    between atoms: N_11  and  C_12
REMARK    5  A    between atoms: N_11  and  C_13
REMARK    6  A    between atoms: C_16  and  C_19
REMARK    7  A    between atoms: N_21  and  C_22
REMARK    8  A    between atoms: C_22  and  C_23
REMARK    9  A    between atoms: C_23  and  C_25
REMARK   10  A    between atoms: C_23  and  N_61
REMARK   11  A    between atoms: C_32  and  N_61
REMARK   12  A    between atoms: C_33  and  N_61
REMARK                            x       y       z     vdW  Elec       q    Type
REMARK                         _______ _______ _______ _____ _____    ______ ____
ROOT
ATOM      1  C   UNL     1       3.222   8.309   0.700  0.00  0.00    +0.051 A 
ATOM      2  C   UNL     1       2.825   8.098   2.018  0.00  0.00    +0.025 A 
ATOM      3  C   UNL     1       1.812   7.212   2.299  0.00  0.00    +0.015 A 
ATOM      4  C   UNL     1       1.180   6.521   1.261  0.00  0.00    +0.037 A 
ATOM      5  C   UNL     1       1.585   6.730  -0.061  0.00  0.00    +0.015 A 
ATOM      6  C   UNL     1       2.595   7.622  -0.337  0.00  0.00    +0.025 A 
ENDROOT
BRANCH   4   7
ATOM      7  C   UNL     1       0.093   5.570   1.559  0.00  0.00    +0.244 C 
ATOM      8  O   UNL     1      -0.254   5.385   2.710  0.00  0.00    -0.270 OA
ATOM      9  N   UNL     1      -0.515   4.905   0.557  0.00  0.00    -0.313 N 
ATOM     10  H   UNL     1      -0.237   5.052  -0.361  0.00  0.00    +0.149 HD
BRANCH   9  11
ATOM     11  C   UNL     1      -1.594   3.960   0.854  0.00  0.00    +0.094 C 
BRANCH  11  12
ATOM     12  C   UNL     1      -1.987   3.217  -0.425  0.00  0.00    -0.020 C 
BRANCH  12  13
ATOM     13  C   UNL     1      -3.199   2.361  -0.157  0.00  0.00    -0.041 A 
ATOM     14  C   UNL     1      -3.059   0.996   0.004  0.00  0.00    +0.003 A 
ATOM     15  C   UNL     1      -4.170   0.211   0.251  0.00  0.00    +0.000 A 
ATOM     16  C   UNL     1      -5.422   0.791   0.331  0.00  0.00    +0.001 A 
ATOM     17  C   UNL     1      -5.563   2.157   0.176  0.00  0.00    +0.020 A 
ATOM     18  C   UNL     1      -4.451   2.943  -0.071  0.00  0.00    +0.043 A 
ATOM     19 CL   UNL     1      -4.627   4.658  -0.274  0.00  0.00    -0.083 Cl
ENDBRANCH  12  13
BRANCH  12  22
ATOM     20  C   UNL     1       0.097   3.129  -1.655  0.00  0.00    -0.096 C 
ATOM     21  C   UNL     1      -0.220   1.725   0.293  0.00  0.00    -0.096 C 
ATOM     22  N   UNL     1      -0.883   2.343  -0.875  0.00  0.00    +0.382 N 
ATOM     23  H   UNL     1      -1.266   1.602  -1.472  0.00  0.00    -0.082 HD
ENDBRANCH  12  22
ENDBRANCH  11  12
ENDBRANCH   9  11
ENDBRANCH   4   7
BRANCH   1  24
ATOM     24  N   UNL     1       4.247   9.205   0.418  0.00  0.00    -0.206 N 
ATOM     25  C   UNL     1       4.483  10.349   1.303  0.00  0.00    +0.157 C 
BRANCH  24  26
ATOM     26  S   UNL     1       5.201   8.980  -0.916  0.00  0.00    +0.074 S 
ATOM     27  O   UNL     1       6.473   9.532  -0.605  0.00  0.00    -0.150 OA
ATOM     28  O   UNL     1       5.035   7.625  -1.310  0.00  0.00    -0.150 OA
BRANCH  26  33
ATOM     29  C   UNL     1       2.894  12.359  -5.351  0.00  0.00    +0.044 C 
ATOM     30  C   UNL     1       3.470  11.515  -4.243  0.00  0.00    -0.050 A 
ATOM     31  C   UNL     1       4.332  12.079  -3.321  0.00  0.00    +0.005 A 
ATOM     32  C   UNL     1       4.861  11.305  -2.305  0.00  0.00    +0.029 A 
ATOM     33  C   UNL     1       4.527   9.967  -2.211  0.00  0.00    +0.109 A 
ATOM     34  C   UNL     1       3.669   9.401  -3.136  0.00  0.00    +0.029 A 
ATOM     35  C   UNL     1       3.137  10.177  -4.149  0.00  0.00    +0.005 A 
ENDBRANCH  26  33
ENDBRANCH  24  26
ENDBRANCH   1  24
TORSDOF 8
