REMARK  Name = ZINC35002657
REMARK  6 active torsions:
REMARK  status: ('A' for Active; 'I' for Inactive)
REMARK    1  A    between atoms: C_1  and  C_2
REMARK    2  A    between atoms: C_5  and  C_8
REMARK    3  A    between atoms: C_9  and  C_19
REMARK    4  A    between atoms: N_11  and  C_13
REMARK    5  A    between atoms: C_27  and  C_29
REMARK    6  A    between atoms: C_30  and  C_38
REMARK                            x       y       z     vdW  Elec       q    Type
REMARK                         _______ _______ _______ _____ _____    ______ ____
ROOT
ATOM      1  C   UNL     1       1.549  -4.699   2.093  0.00  0.00    +0.032 C 
ATOM      2  C   UNL     1       2.129  -5.629   2.898  0.00  0.00    +0.082 A 
ATOM      3  C   UNL     1       2.957  -5.441   4.095  0.00  0.00    +0.288 A 
ATOM      4  O   UNL     1       3.221  -4.326   4.508  0.00  0.00    -0.265 OA
ATOM      5  N   UNL     1       3.413  -6.536   4.717  0.00  0.00    -0.169 N 
ATOM      6  C   UNL     1       3.089  -7.764   4.214  0.00  0.00    +0.200 A 
ATOM      7  S   UNL     1       2.083  -7.412   2.791  0.00  0.00    -0.044 S 
ATOM      8  N   UNL     1       3.622  -8.697   4.952  0.00  0.00    -0.197 NA
ATOM      9  C   UNL     1       4.309  -8.129   5.956  0.00  0.00    +0.218 A 
ATOM     10  N   UNL     1       4.213  -6.824   5.857  0.00  0.00    -0.138 NA
ENDROOT
BRANCH   9  11
ATOM     11  C   UNL     1       5.054  -8.857   7.005  0.00  0.00    +0.178 A 
ATOM     12  C   UNL     1       5.154 -10.204   7.096  0.00  0.00    +0.006 A 
ATOM     13  C   UNL     1       5.979 -10.472   8.276  0.00  0.00    +0.024 A 
ATOM     14  C   UNL     1       6.440 -11.633   8.898  0.00  0.00    +0.012 A 
ATOM     15  C   UNL     1       7.215 -11.538  10.020  0.00  0.00    +0.001 A 
ATOM     16  C   UNL     1       7.544 -10.296  10.543  0.00  0.00    +0.004 A 
ATOM     17  C   UNL     1       7.097  -9.138   9.943  0.00  0.00    +0.047 A 
ATOM     18  C   UNL     1       6.309  -9.210   8.802  0.00  0.00    +0.136 A 
ATOM     19  O   UNL     1       5.741  -8.279   8.010  0.00  0.00    -0.451 OA
ATOM     20  C   UNL     1       4.539 -11.223   6.170  0.00  0.00    +0.048 C 
ENDBRANCH   9  11
BRANCH   1  22
ATOM     21  C   UNL     1       0.060  -4.254  -0.021  0.00  0.00    +0.100 A 
ATOM     22  C   UNL     1       0.749  -5.124   0.941  0.00  0.00    +0.022 A 
ATOM     23  C   UNL     1       0.492  -6.423   0.543  0.00  0.00    +0.123 A 
ATOM     24  N   UNL     1      -0.281  -6.372  -0.558  0.00  0.00    -0.239 N 
ATOM     25  N   UNL     1      -0.541  -5.039  -0.888  0.00  0.00    -0.166 NA
BRANCH  21  30
ATOM     26  C   UNL     1      -0.018   1.503   0.010  0.00  0.00    +0.044 C 
ATOM     27  C   UNL     1       0.002  -0.004   0.002  0.00  0.00    -0.050 A 
ATOM     28  C   UNL     1       0.006  -0.686  -1.201  0.00  0.00    +0.004 A 
ATOM     29  C   UNL     1       0.024  -2.066  -1.215  0.00  0.00    +0.010 A 
ATOM     30  C   UNL     1       0.040  -2.772  -0.013  0.00  0.00    +0.003 A 
ATOM     31  C   UNL     1       0.037  -2.079   1.196  0.00  0.00    +0.010 A 
ATOM     32  C   UNL     1       0.023  -0.699   1.198  0.00  0.00    +0.004 A 
ENDBRANCH  21  30
BRANCH  24  33
ATOM     33  C   UNL     1      -0.756  -7.485  -1.262  0.00  0.00    +0.065 A 
ATOM     34  C   UNL     1      -0.441  -8.767  -0.833  0.00  0.00    +0.028 A 
ATOM     35  C   UNL     1      -0.911  -9.863  -1.530  0.00  0.00    +0.002 A 
ATOM     36  C   UNL     1      -1.696  -9.684  -2.654  0.00  0.00    +0.000 A 
ATOM     37  C   UNL     1      -2.012  -8.408  -3.084  0.00  0.00    +0.002 A 
ATOM     38  C   UNL     1      -1.549  -7.309  -2.389  0.00  0.00    +0.028 A 
ENDBRANCH  24  33
ENDBRANCH   1  22
TORSDOF 4
