REMARK  Name = ZINC18199453
REMARK  1 active torsions:
REMARK  status: ('A' for Active; 'I' for Inactive)
REMARK    1  A    between atoms: C_3  and  C_9
REMARK                            x       y       z     vdW  Elec       q    Type
REMARK                         _______ _______ _______ _____ _____    ______ ____
ROOT
ATOM      1  C   UNL     1      -1.286  -0.773   0.001  0.00  0.00    +0.094 C 
ATOM      2  C   UNL     1       0.002  -0.004   0.002  0.00  0.00    +0.067 A 
ATOM      3  C   UNL     1       1.202  -0.648  -0.008  0.00  0.00    +0.113 A 
ATOM      4  N   UNL     1       2.365   0.083  -0.018  0.00  0.00    -0.295 N 
ATOM      5  H   UNL     1       3.248  -0.386  -0.028  0.00  0.00    +0.172 HD
ATOM      6  C   UNL     1       2.322   1.429  -0.012  0.00  0.00    +0.328 A 
ATOM      7  O   UNL     1       3.360   2.062  -0.021  0.00  0.00    -0.247 OA
ATOM      8  N   UNL     1       1.146   2.083   0.002  0.00  0.00    -0.275 N 
ATOM      9  H   UNL     1       1.136   3.083   0.008  0.00  0.00    +0.173 HD
ATOM     10  C   UNL     1      -0.017   1.403   0.010  0.00  0.00    +0.260 A 
ATOM     11  O   UNL     1      -1.078   2.002   0.018  0.00  0.00    -0.267 OA
ATOM     12  N   UNL     1       1.248  -2.020  -0.009  0.00  0.00    -0.303 N 
ATOM     13  C   UNL     1       0.165  -2.755   0.392  0.00  0.00    +0.017 C 
ATOM     14  C   UNL     1      -1.068  -2.207   0.414  0.00  0.00    +0.024 C 
ATOM     15  C   UNL     1      -2.187  -2.955   0.821  0.00  0.00    +0.162 C 
ATOM     16  O   UNL     1      -3.281  -2.427   0.845  0.00  0.00    -0.292 OA
ATOM     17  C   UNL     1      -2.054  -4.398   1.227  0.00  0.00    +0.080 C 
ATOM     18  C   UNL     1      -0.861  -5.015   0.490  0.00  0.00    +0.014 C 
ATOM     19  C   UNL     1       0.386  -4.188   0.810  0.00  0.00    +0.051 C 
ATOM     20  H   UNL     1       2.056  -2.473  -0.296  0.00  0.00    +0.153 HD
ENDROOT
BRANCH   1  23
ATOM     21  C   UNL     1      -1.710  -1.242  -3.722  0.00  0.00    +0.002 A 
ATOM     22  C   UNL     1      -1.169  -1.268  -2.450  0.00  0.00    +0.006 A 
ATOM     23  C   UNL     1      -1.877  -0.744  -1.385  0.00  0.00    -0.015 A 
ATOM     24  C   UNL     1      -3.132  -0.198  -1.591  0.00  0.00    +0.063 A 
ATOM     25  C   UNL     1      -3.672  -0.168  -2.865  0.00  0.00    +0.060 A 
ATOM     26  C   UNL     1      -2.961  -0.692  -3.930  0.00  0.00    +0.021 A 
ATOM     27 CL   UNL     1      -5.243   0.523  -3.126  0.00  0.00    -0.082 Cl
ATOM     28 CL   UNL     1      -4.025   0.453  -0.253  0.00  0.00    -0.082 Cl
ENDBRANCH   1  23
TORSDOF 1
