REMARK  Name = ZINC40083051
REMARK  18 active torsions:
REMARK  status: ('A' for Active; 'I' for Inactive)
REMARK    1  A    between atoms: C_1  and  C_2
REMARK    2  A    between atoms: C_2  and  N_3
REMARK    3  A    between atoms: N_3  and  C_4
REMARK    4  A    between atoms: N_3  and  C_6
REMARK    5  A    between atoms: C_4  and  C_5
REMARK    6  A    between atoms: C_9  and  C_12
REMARK    7  A    between atoms: C_14  and  C_26
REMARK    8  A    between atoms: N_18  and  C_19
REMARK    9  A    between atoms: C_19  and  C_20
REMARK   10  A    between atoms: C_20  and  O_21
REMARK   11  A    between atoms: O_21  and  C_22
REMARK   12  A    between atoms: C_22  and  C_23
REMARK   13  A    between atoms: C_23  and  O_24
REMARK   14  A    between atoms: C_26  and  C_28
REMARK   15  A    between atoms: C_31  and  O_35
REMARK   16  A    between atoms: C_33  and  C_34
REMARK   17  A    between atoms: O_35  and  C_36
REMARK   18  A    between atoms: C_36  and  C_37
REMARK                            x       y       z     vdW  Elec       q    Type
REMARK                         _______ _______ _______ _____ _____    ______ ____
ROOT
ATOM      1  C   UNL     1      -4.030  -1.453   4.623  0.00  0.00    +0.145 C 
ATOM      2  C   UNL     1      -4.862  -0.356   5.245  0.00  0.00    +0.076 C 
ATOM      3  C   UNL     1      -6.089  -0.878   5.476  0.00  0.00    +0.249 C 
ATOM      4  C   UNL     1      -6.108  -2.288   5.031  0.00  0.00    +0.288 C 
ATOM      5  O   UNL     1      -7.067  -3.029   5.104  0.00  0.00    -0.266 OA
ATOM      6  N   UNL     1      -4.904  -2.629   4.531  0.00  0.00    -0.281 N 
ATOM      7  O   UNL     1      -7.132  -0.216   6.028  0.00  0.00    -0.282 OA
ENDROOT
BRANCH   1  11
ATOM      8  C   UNL     1      -2.730  -0.283   0.723  0.00  0.00    +0.030 A 
ATOM      9  C   UNL     1      -1.816  -0.368   1.766  0.00  0.00    +0.023 A 
ATOM     10  C   UNL     1      -2.239  -0.746   3.024  0.00  0.00    +0.007 A 
ATOM     11  C   UNL     1      -3.572  -1.040   3.248  0.00  0.00    -0.022 A 
ATOM     12  C   UNL     1      -4.485  -0.956   2.212  0.00  0.00    +0.007 A 
ATOM     13  C   UNL     1      -4.069  -0.573   0.952  0.00  0.00    +0.023 A 
BRANCH   8  14
ATOM     14  N   UNL     1      -2.305   0.100  -0.551  0.00  0.00    -0.330 N 
BRANCH  14  16
ATOM     15  C   UNL     1      -0.644   1.895  -0.541  0.00  0.00    +0.024 C 
ATOM     16  C   UNL     1      -0.893   0.406  -0.791  0.00  0.00    +0.102 C 
ENDBRANCH  14  16
BRANCH  14  17
ATOM     17  C   UNL     1      -3.272   0.195  -1.648  0.00  0.00    +0.102 C 
ATOM     18  C   UNL     1      -3.366  -1.154  -2.364  0.00  0.00    +0.024 C 
ENDBRANCH  14  17
ENDBRANCH   8  14
ENDBRANCH   1  11
BRANCH   2  19
ATOM     19  C   UNL     1      -4.425   1.012   5.541  0.00  0.00    +0.195 C 
ATOM     20  O   UNL     1      -5.222   1.828   5.964  0.00  0.00    -0.287 OA
BRANCH  19  21
ATOM     21  C   UNL     1      -3.017   1.400   5.325  0.00  0.00    +0.025 A 
ATOM     22  C   UNL     1      -2.674   2.231   4.254  0.00  0.00    +0.015 A 
ATOM     23  C   UNL     1      -1.360   2.590   4.056  0.00  0.00    +0.046 A 
ATOM     24  C   UNL     1      -0.374   2.127   4.920  0.00  0.00    +0.121 A 
ATOM     25  C   UNL     1      -0.709   1.300   5.986  0.00  0.00    +0.049 A 
ATOM     26  C   UNL     1      -2.022   0.941   6.194  0.00  0.00    -0.036 A 
ATOM     27  C   UNL     1      -2.386   0.050   7.353  0.00  0.00    +0.044 C 
BRANCH  24  28
ATOM     28  O   UNL     1       0.921   2.483   4.721  0.00  0.00    -0.488 OA
BRANCH  28  29
ATOM     29  C   UNL     1       1.196   3.335   3.607  0.00  0.00    +0.256 C 
BRANCH  29  30
ATOM     30  C   UNL     1       2.674   3.621   3.547  0.00  0.00    +0.006 C 
ATOM     31  C   UNL     1       3.308   3.555   2.403  0.00  0.00    +0.007 C 
ENDBRANCH  29  30
ENDBRANCH  28  29
ENDBRANCH  24  28
ENDBRANCH  19  21
ENDBRANCH   2  19
BRANCH   6  32
ATOM     32  C   UNL     1      -4.533  -3.939   3.991  0.00  0.00    +0.137 C 
BRANCH  32  33
ATOM     33  C   UNL     1      -3.977  -4.815   5.116  0.00  0.00    +0.179 C 
BRANCH  33  34
ATOM     34  O   UNL     1      -5.009  -5.077   6.070  0.00  0.00    -0.376 OA
BRANCH  34  35
ATOM     35  C   UNL     1      -4.592  -5.891   7.168  0.00  0.00    +0.187 C 
BRANCH  35  36
ATOM     36  C   UNL     1      -5.770  -6.106   8.120  0.00  0.00    +0.184 C 
BRANCH  36  37
ATOM     37  O   UNL     1      -6.788  -6.858   7.456  0.00  0.00    -0.393 OA
ATOM     38  H   UNL     1      -7.567  -7.032   8.002  0.00  0.00    +0.209 HD
ENDBRANCH  36  37
ENDBRANCH  35  36
ENDBRANCH  34  35
ENDBRANCH  33  34
ENDBRANCH  32  33
ENDBRANCH   6  32
TORSDOF 15
