REMARK  Name = ZINC64600499
REMARK  10 active torsions:
REMARK  status: ('A' for Active; 'I' for Inactive)
REMARK    1  A    between atoms: C_1  and  C_2
REMARK    2  A    between atoms: C_2  and  N_20
REMARK    3  A    between atoms: C_4  and  C_15
REMARK    4  A    between atoms: N_6  and  C_9
REMARK    5  A    between atoms: C_15  and  C_16
REMARK    6  A    between atoms: C_16  and  O_18
REMARK    7  A    between atoms: O_18  and  C_19
REMARK    8  A    between atoms: N_20  and  C_21
REMARK    9  A    between atoms: C_21  and  C_22
REMARK   10  A    between atoms: C_22  and  C_23
REMARK                            x       y       z     vdW  Elec       q    Type
REMARK                         _______ _______ _______ _____ _____    ______ ____
ROOT
ATOM      1  C   UNL     1      -0.005   1.503   0.009  0.00  0.00    +0.061 C 
ATOM      2  C   UNL     1      -0.001  -0.004   0.002  0.00  0.00    +0.015 C 
ATOM      3  C   UNL     1       0.126  -0.701   1.192  0.00  0.00    +0.079 C 
ATOM      4  C   UNL     1       0.144  -0.150   2.555  0.00  0.00    +0.084 C 
ATOM      5  N   UNL     1       0.279  -1.145   3.378  0.00  0.00    -0.176 NA
ATOM      6  N   UNL     1       0.358  -2.360   2.696  0.00  0.00    -0.156 N 
ATOM      7  C   UNL     1       0.266  -2.152   1.367  0.00  0.00    +0.274 C 
ATOM      8  O   UNL     1       0.294  -2.998   0.489  0.00  0.00    -0.268 OA
ENDROOT
BRANCH   6   9
ATOM      9  C   UNL     1       0.507  -3.612   3.305  0.00  0.00    +0.060 A 
ATOM     10  C   UNL     1       0.581  -4.760   2.526  0.00  0.00    +0.025 A 
ATOM     11  C   UNL     1       0.728  -5.994   3.128  0.00  0.00    +0.002 A 
ATOM     12  C   UNL     1       0.800  -6.088   4.506  0.00  0.00    +0.000 A 
ATOM     13  C   UNL     1       0.727  -4.947   5.285  0.00  0.00    +0.002 A 
ATOM     14  C   UNL     1       0.586  -3.709   4.688  0.00  0.00    +0.025 A 
ENDBRANCH   6   9
BRANCH   2  15
ATOM     15  N   UNL     1      -0.121  -0.674  -1.162  0.00  0.00    -0.346 N 
ATOM     16  H   UNL     1      -0.118  -1.644  -1.166  0.00  0.00    +0.146 HD
BRANCH  15  17
ATOM     17  C   UNL     1      -0.255   0.064  -2.421  0.00  0.00    +0.105 C 
BRANCH  17  18
ATOM     18  C   UNL     1      -0.373  -0.926  -3.582  0.00  0.00    +0.052 C 
BRANCH  18  19
ATOM     19  C   UNL     1      -0.511  -0.167  -4.877  0.00  0.00    -0.040 C 
ATOM     20  C   UNL     1       0.480   0.159  -5.737  0.00  0.00    -0.001 A 
ATOM     21  C   UNL     1       1.927  -0.084  -5.725  0.00  0.00    +0.010 A 
ATOM     22  C   UNL     1       2.678   0.377  -6.752  0.00  0.00    +0.001 A 
ATOM     23  C   UNL     1       2.110   1.079  -7.823  0.00  0.00    +0.002 A 
ATOM     24  C   UNL     1       0.788   1.341  -7.905  0.00  0.00    +0.026 A 
ATOM     25  C   UNL     1      -0.096   0.903  -6.880  0.00  0.00    +0.043 A 
ATOM     26  N   UNL     1      -1.392   1.032  -6.732  0.00  0.00    -0.380 N 
ATOM     27  C   UNL     1      -1.787   0.377  -5.480  0.00  0.00    +0.144 C 
ATOM     28  H   UNL     1      -1.990   1.480  -7.350  0.00  0.00    +0.160 HD
ENDBRANCH  18  19
ENDBRANCH  17  18
ENDBRANCH  15  17
ENDBRANCH   2  15
BRANCH   4  29
ATOM     29  C   UNL     1       0.026   1.305   2.929  0.00  0.00    +0.178 C 
BRANCH  29  30
ATOM     30  C   UNL     1       0.211   1.457   4.417  0.00  0.00    +0.313 C 
ATOM     31  O   UNL     1       0.416   0.484   5.103  0.00  0.00    -0.250 OA
BRANCH  30  32
ATOM     32  O   UNL     1       0.146   2.674   4.980  0.00  0.00    -0.468 OA
ATOM     33  C   UNL     1       0.330   2.745   6.395  0.00  0.00    +0.280 C 
ENDBRANCH  30  32
ENDBRANCH  29  30
ENDBRANCH   4  29
TORSDOF 8
