REMARK  Name = ZINC10536677
REMARK  9 active torsions:
REMARK  status: ('A' for Active; 'I' for Inactive)
REMARK    1  A    between atoms: C_1  and  C_2
REMARK    2  A    between atoms: C_4  and  C_36
REMARK    3  A    between atoms: C_6  and  N_8
REMARK    4  A    between atoms: C_18  and  S_19
REMARK    5  A    between atoms: S_19  and  C_20
REMARK    6  A    between atoms: C_20  and  C_21
REMARK    7  A    between atoms: N_23  and  C_24
REMARK    8  A    between atoms: C_24  and  C_26
REMARK    9  A    between atoms: C_24  and  C_27
REMARK                            x       y       z     vdW  Elec       q    Type
REMARK                         _______ _______ _______ _____ _____    ______ ____
ROOT
ATOM      1  N   UNL     1       0.037  -2.767  -0.014  0.00  0.00    -0.255 N 
ATOM      2  C   UNL     1       1.135  -2.144   0.473  0.00  0.00    +0.267 A 
ATOM      3  O   UNL     1       2.079  -2.778   0.908  0.00  0.00    -0.267 OA
ATOM      4  C   UNL     1       1.146  -0.676   0.458  0.00  0.00    +0.065 A 
ATOM      5  C   UNL     1       2.230   0.058   0.938  0.00  0.00    +0.015 A 
ATOM      6  C   UNL     1       2.189   1.424   0.901  0.00  0.00    +0.001 A 
ATOM      7  C   UNL     1       1.081   2.087   0.389  0.00  0.00    +0.002 A 
ATOM      8  C   UNL     1       0.004   1.393  -0.087  0.00  0.00    +0.028 A 
ATOM      9  C   UNL     1       0.016  -0.004  -0.062  0.00  0.00    +0.079 A 
ATOM     10  N   UNL     1      -1.029  -0.731  -0.523  0.00  0.00    -0.223 NA
ATOM     11  C   UNL     1      -1.016  -2.041  -0.499  0.00  0.00    +0.177 A 
ENDROOT
BRANCH   1  17
ATOM     12  C   UNL     1      -1.177  -6.966   2.240  0.00  0.00    +0.044 C 
ATOM     13  C   UNL     1      -0.605  -6.227   1.057  0.00  0.00    -0.048 A 
ATOM     14  C   UNL     1      -0.139  -6.931  -0.038  0.00  0.00    +0.006 A 
ATOM     15  C   UNL     1       0.386  -6.257  -1.125  0.00  0.00    -0.048 A 
ATOM     16  C   UNL     1       0.446  -4.877  -1.120  0.00  0.00    +0.029 A 
ATOM     17  C   UNL     1      -0.022  -4.167  -0.022  0.00  0.00    +0.052 A 
ATOM     18  C   UNL     1      -0.543  -4.847   1.070  0.00  0.00    +0.029 A 
ATOM     19  C   UNL     1       0.893  -7.028  -2.316  0.00  0.00    +0.044 C 
ENDBRANCH   1  17
BRANCH  11  20
ATOM     20  S   UNL     1      -2.419  -2.907  -1.121  0.00  0.00    -0.078 S 
BRANCH  20  21
ATOM     21  C   UNL     1      -3.459  -1.509  -1.610  0.00  0.00    +0.173 C 
BRANCH  21  22
ATOM     22  C   UNL     1      -4.753  -2.023  -2.187  0.00  0.00    +0.224 C 
ATOM     23  O   UNL     1      -4.952  -3.218  -2.260  0.00  0.00    -0.275 OA
ATOM     24  N   UNL     1      -5.689  -1.157  -2.622  0.00  0.00    -0.308 N 
ATOM     25  H   UNL     1      -5.530  -0.202  -2.563  0.00  0.00    +0.149 HD
BRANCH  24  26
ATOM     26  C   UNL     1      -6.947  -1.657  -3.183  0.00  0.00    +0.100 C 
ATOM     27  C   UNL     1      -6.754  -1.967  -4.668  0.00  0.00    +0.033 C 
BRANCH  26  28
ATOM     28  C   UNL     1      -8.019  -0.611  -3.022  0.00  0.00    -0.024 A 
ATOM     29  C   UNL     1      -7.717   0.724  -3.222  0.00  0.00    +0.009 A 
ATOM     30  C   UNL     1      -8.698   1.687  -3.081  0.00  0.00    +0.050 A 
ATOM     31  C   UNL     1      -9.987   1.317  -2.729  0.00  0.00    +0.166 A 
ATOM     32  C   UNL     1     -10.290  -0.026  -2.523  0.00  0.00    +0.167 A 
ATOM     33  C   UNL     1      -9.302  -0.987  -2.671  0.00  0.00    +0.055 A 
ATOM     34  O   UNL     1     -11.610  -0.129  -2.189  0.00  0.00    -0.453 OA
ATOM     35  C   UNL     1     -12.206   1.118  -2.591  0.00  0.00    +0.466 C 
ATOM     36  O   UNL     1     -11.116   2.056  -2.524  0.00  0.00    -0.453 OA
ENDBRANCH  26  28
ENDBRANCH  24  26
ENDBRANCH  21  22
ENDBRANCH  20  21
ENDBRANCH  11  20
TORSDOF 6
