REMARK  Name = ZINC16953296
REMARK  16 active torsions:
REMARK  status: ('A' for Active; 'I' for Inactive)
REMARK    1  A    between atoms: C_1  and  C_2
REMARK    2  A    between atoms: C_2  and  C_26
REMARK    3  A    between atoms: C_5  and  C_22
REMARK    4  A    between atoms: C_6  and  C_18
REMARK    5  A    between atoms: C_7  and  N_17
REMARK    6  A    between atoms: N_10  and  C_11
REMARK    7  A    between atoms: C_18  and  O_20
REMARK    8  A    between atoms: O_20  and  C_21
REMARK    9  A    between atoms: C_22  and  O_24
REMARK   10  A    between atoms: O_24  and  C_25
REMARK   11  A    between atoms: C_26  and  C_32
REMARK   12  A    between atoms: C_27  and  C_28
REMARK   13  A    between atoms: C_28  and  O_30
REMARK   14  A    between atoms: O_30  and  C_31
REMARK   15  A    between atoms: C_32  and  O_34
REMARK   16  A    between atoms: O_34  and  C_35
REMARK                            x       y       z     vdW  Elec       q    Type
REMARK                         _______ _______ _______ _____ _____    ______ ____
ROOT
ATOM      1  C   UNL     1      -2.994   7.287   1.551  0.00  0.00    +0.043 C 
ATOM      2  C   UNL     1      -3.514   6.817   0.191  0.00  0.00    +0.096 C 
ATOM      3  C   UNL     1      -2.926   5.470  -0.150  0.00  0.00    -0.006 A 
ATOM      4  C   UNL     1      -1.627   5.041  -0.330  0.00  0.00    +0.022 A 
ATOM      5  C   UNL     1      -1.363   3.712  -0.647  0.00  0.00    +0.075 A 
ATOM      6  C   UNL     1      -2.427   2.800  -0.790  0.00  0.00    +0.094 A 
ATOM      7  C   UNL     1      -3.744   3.236  -0.600  0.00  0.00    +0.050 A 
ATOM      8  C   UNL     1      -3.993   4.582  -0.282  0.00  0.00    +0.040 A 
ATOM      9  C   UNL     1      -5.250   5.318  -0.035  0.00  0.00    +0.107 C 
ATOM     10  N   UNL     1      -4.969   6.636   0.244  0.00  0.00    -0.272 N 
ATOM     11  H   UNL     1      -6.655   3.855  -0.216  0.00  0.00    +0.157 HD
ATOM     12  N   UNL     1      -6.489   4.850  -0.066  0.00  0.00    -0.386 N 
ATOM     13  H   UNL     1      -7.282   5.490   0.062  0.00  0.00    +0.157 HD
ENDROOT
BRANCH  10  14
ATOM     14  C   UNL     1      -5.909   7.631   0.529  0.00  0.00    +0.036 A 
ATOM     15  C   UNL     1      -5.489   8.928   0.801  0.00  0.00    +0.023 A 
ATOM     16  C   UNL     1      -6.420   9.909   1.077  0.00  0.00    +0.002 A 
ATOM     17  C   UNL     1      -7.768   9.601   1.094  0.00  0.00    +0.000 A 
ATOM     18  C   UNL     1      -8.189   8.310   0.829  0.00  0.00    +0.002 A 
ATOM     19  C   UNL     1      -7.263   7.325   0.547  0.00  0.00    +0.023 A 
ENDBRANCH  10  14
BRANCH   7  20
ATOM     20  N   UNL     1      -4.795   2.348  -0.733  0.00  0.00    -0.357 N 
ATOM     21  H   UNL     1      -4.676   1.526  -1.234  0.00  0.00    +0.142 HD
ATOM     22  H   UNL     1      -5.653   2.547  -0.326  0.00  0.00    +0.142 HD
ENDBRANCH   7  20
BRANCH   6  23
ATOM     23  C   UNL     1      -2.155   1.392  -1.131  0.00  0.00    +0.342 C 
ATOM     24  O   UNL     1      -1.978   0.576  -0.248  0.00  0.00    -0.245 OA
BRANCH  23  25
ATOM     25  O   UNL     1      -2.102   1.010  -2.422  0.00  0.00    -0.464 OA
ATOM     26  C   UNL     1      -1.829  -0.392  -2.683  0.00  0.00    +0.280 C 
ENDBRANCH  23  25
ENDBRANCH   6  23
BRANCH   5  27
ATOM     27  C   UNL     1       0.032   3.259  -0.838  0.00  0.00    +0.340 C 
ATOM     28  O   UNL     1       0.262   2.099  -1.114  0.00  0.00    -0.245 OA
BRANCH  27  29
ATOM     29  O   UNL     1       1.048   4.135  -0.712  0.00  0.00    -0.464 OA
ATOM     30  C   UNL     1       2.390   3.621  -0.920  0.00  0.00    +0.280 C 
ENDBRANCH  27  29
ENDBRANCH   5  27
BRANCH   2  31
ATOM     31  C   UNL     1      -3.157   7.822  -0.874  0.00  0.00    +0.071 C 
ATOM     32  C   UNL     1      -4.116   8.336  -1.661  0.00  0.00    +0.104 C 
BRANCH  32  33
ATOM     33  C   UNL     1      -3.787   9.409  -2.619  0.00  0.00    +0.332 C 
ATOM     34  O   UNL     1      -2.637   9.778  -2.747  0.00  0.00    -0.246 OA
BRANCH  33  35
ATOM     35  O   UNL     1      -4.763   9.981  -3.351  0.00  0.00    -0.465 OA
ATOM     36  C   UNL     1      -4.367  11.030  -4.273  0.00  0.00    +0.280 C 
ENDBRANCH  33  35
ENDBRANCH  32  33
BRANCH  31  37
ATOM     37  C   UNL     1      -1.753   8.240  -1.052  0.00  0.00    +0.338 C 
ATOM     38  O   UNL     1      -1.267   9.070  -0.311  0.00  0.00    -0.245 OA
BRANCH  37  39
ATOM     39  O   UNL     1      -1.009   7.700  -2.038  0.00  0.00    -0.465 OA
ATOM     40  C   UNL     1       0.363   8.158  -2.155  0.00  0.00    +0.280 C 
ENDBRANCH  37  39
ENDBRANCH  31  37
ENDBRANCH   2  31
TORSDOF 11
