REMARK  Name = ZINC12833007
REMARK  18 active torsions:
REMARK  status: ('A' for Active; 'I' for Inactive)
REMARK    1  A    between atoms: C_1  and  C_2
REMARK    2  A    between atoms: C_2  and  C_3
REMARK    3  A    between atoms: C_3  and  C_4
REMARK    4  A    between atoms: C_3  and  C_5
REMARK    5  A    between atoms: C_3  and  N_6
REMARK    6  A    between atoms: C_7  and  C_11
REMARK    7  A    between atoms: C_11  and  N_76
REMARK    8  A    between atoms: C_12  and  C_13
REMARK    9  A    between atoms: C_12  and  N_76
REMARK   10  A    between atoms: C_13  and  C_14
REMARK   11  A    between atoms: C_17  and  O_22
REMARK   12  A    between atoms: C_18  and  O_20
REMARK   13  A    between atoms: O_20  and  C_21
REMARK   14  A    between atoms: O_22  and  C_23
REMARK   15  A    between atoms: C_24  and  C_25
REMARK   16  A    between atoms: C_24  and  N_76
REMARK   17  A    between atoms: C_29  and  C_38
REMARK   18  A    between atoms: C_31  and  C_37
REMARK                            x       y       z     vdW  Elec       q    Type
REMARK                         _______ _______ _______ _____ _____    ______ ____
ROOT
ATOM      1  N   UNL     1      -1.317   8.591  -1.115  0.00  0.00    +0.387 N 
ATOM      2  H   UNL     1      -0.606   8.674  -1.851  0.00  0.00    -0.081 HD
ENDROOT
BRANCH   1   3
ATOM      3  C   UNL     1      -2.324   7.592  -1.531  0.00  0.00    +0.001 C 
BRANCH   3   5
ATOM      4  N   UNL     1      -4.545   6.756  -0.597  0.00  0.00    -0.226 N 
ATOM      5  C   UNL     1      -3.411   7.474  -0.494  0.00  0.00    +0.136 A 
ATOM      6  N   UNL     1      -3.439   8.055   0.680  0.00  0.00    -0.115 NA
ATOM      7  N   UNL     1      -4.530   7.708   1.270  0.00  0.00    -0.023 NA
ATOM      8  N   UNL     1      -5.200   6.921   0.503  0.00  0.00    -0.043 NA
BRANCH   4   9
ATOM      9  C   UNL     1      -4.957   5.939  -1.741  0.00  0.00    +0.061 C 
ATOM     10  C   UNL     1      -5.106   6.829  -2.976  0.00  0.00    +0.036 C 
ATOM     11  C   UNL     1      -3.898   4.867  -2.009  0.00  0.00    +0.036 C 
BRANCH   9  13
ATOM     12  C   UNL     1      -6.668   4.320  -2.575  0.00  0.00    +0.006 C 
ATOM     13  C   UNL     1      -6.296   5.267  -1.432  0.00  0.00    +0.026 C 
ENDBRANCH   9  13
ENDBRANCH   4   9
ENDBRANCH   3   5
ENDBRANCH   1   3
BRANCH   1  14
ATOM     14  C   UNL     1      -1.962   9.907  -0.921  0.00  0.00    -0.073 C 
BRANCH  14  15
ATOM     15  C   UNL     1      -2.398  10.449  -2.283  0.00  0.00    +0.017 C 
BRANCH  15  16
ATOM     16  C   UNL     1      -2.913  11.856  -2.123  0.00  0.00    -0.045 A 
ATOM     17  C   UNL     1      -4.234  12.072  -1.776  0.00  0.00    +0.007 A 
ATOM     18  C   UNL     1      -4.710  13.360  -1.622  0.00  0.00    +0.049 A 
ATOM     19  C   UNL     1      -3.866  14.440  -1.827  0.00  0.00    +0.161 A 
ATOM     20  C   UNL     1      -2.538  14.223  -2.182  0.00  0.00    +0.162 A 
ATOM     21  C   UNL     1      -2.066  12.929  -2.329  0.00  0.00    +0.053 A 
BRANCH  20  22
ATOM     22  O   UNL     1      -1.705  15.279  -2.384  0.00  0.00    -0.491 OA
ATOM     23  C   UNL     1      -0.355  14.981  -2.746  0.00  0.00    +0.277 C 
ENDBRANCH  20  22
BRANCH  19  24
ATOM     24  O   UNL     1      -4.334  15.708  -1.681  0.00  0.00    -0.491 OA
ATOM     25  C   UNL     1      -5.707  15.855  -1.315  0.00  0.00    +0.277 C 
ENDBRANCH  19  24
ENDBRANCH  15  16
ENDBRANCH  14  15
ENDBRANCH   1  14
BRANCH   1  26
ATOM     26  C   UNL     1      -0.664   8.159   0.138  0.00  0.00    -0.037 C 
BRANCH  26  27
ATOM     27  C   UNL     1       0.166   6.933  -0.145  0.00  0.00    +0.001 A 
ATOM     28  C   UNL     1       1.484   7.062  -0.436  0.00  0.00    +0.017 A 
ATOM     29  C   UNL     1       2.263   5.852  -0.706  0.00  0.00    -0.001 A 
ATOM     30  C   UNL     1       3.626   5.921  -1.013  0.00  0.00    +0.013 A 
ATOM     31  C   UNL     1       4.324   4.774  -1.260  0.00  0.00    -0.050 A 
ATOM     32  C   UNL     1       3.692   3.538  -1.210  0.00  0.00    +0.008 A 
ATOM     33  C   UNL     1       2.349   3.446  -0.915  0.00  0.00    -0.026 A 
ATOM     34  C   UNL     1       1.619   4.601  -0.654  0.00  0.00    +0.052 A 
ATOM     35  N   UNL     1       0.275   4.538  -0.352  0.00  0.00    -0.322 N 
ATOM     36  H   UNL     1      -0.166   3.675  -0.316  0.00  0.00    +0.169 HD
ATOM     37  C   UNL     1      -0.431   5.655  -0.105  0.00  0.00    +0.251 A 
ATOM     38  O   UNL     1      -1.617   5.561   0.159  0.00  0.00    -0.268 OA
ATOM     39  C   UNL     1       1.675   2.099  -0.869  0.00  0.00    +0.046 C 
ATOM     40  C   UNL     1       5.792   4.849  -1.590  0.00  0.00    +0.044 C 
ENDBRANCH  26  27
ENDBRANCH   1  26
TORSDOF 11
