REMARK  Name = ZINC02757484
REMARK  8 active torsions:
REMARK  status: ('A' for Active; 'I' for Inactive)
REMARK    1  A    between atoms: C_1  and  C_2
REMARK    2  A    between atoms: C_3  and  C_29
REMARK    3  A    between atoms: C_4  and  C_22
REMARK    4  A    between atoms: C_10  and  C_15
REMARK    5  A    between atoms: C_29  and  O_31
REMARK    6  A    between atoms: O_31  and  C_32
REMARK    7  A    between atoms: C_32  and  C_33
REMARK    8  A    between atoms: C_32  and  C_34
REMARK                            x       y       z     vdW  Elec       q    Type
REMARK                         _______ _______ _______ _____ _____    ______ ____
ROOT
ATOM      1  C   UNL     1      -1.232  -3.720  -2.496  0.00  0.00    +0.061 C 
ATOM      2  C   UNL     1      -1.139  -2.923  -1.220  0.00  0.00    +0.016 C 
ATOM      3  C   UNL     1      -1.382  -1.601  -1.239  0.00  0.00    +0.065 C 
ATOM      4  C   UNL     1      -1.293  -0.775   0.010  0.00  0.00    +0.092 C 
ATOM      5  C   UNL     1      -1.342  -1.647   1.240  0.00  0.00    +0.024 C 
ATOM      6  C   UNL     1      -1.094  -2.971   1.156  0.00  0.00    +0.016 C 
ATOM      7  N   UNL     1      -0.808  -3.550  -0.051  0.00  0.00    -0.321 N 
ATOM      8  C   UNL     1      -1.129  -3.847   2.384  0.00  0.00    +0.059 C 
ATOM      9  C   UNL     1      -2.141  -3.287   3.386  0.00  0.00    +0.032 C 
ATOM     10  C   UNL     1      -1.735  -1.852   3.736  0.00  0.00    +0.088 C 
ATOM     11  C   UNL     1      -1.654  -1.043   2.471  0.00  0.00    +0.162 C 
ATOM     12  O   UNL     1      -1.861   0.153   2.513  0.00  0.00    -0.292 OA
ATOM     13  H   UNL     1      -0.306  -4.528  -0.075  0.00  0.00    +0.152 HD
ENDROOT
BRANCH   9  14
ATOM     14  C   UNL     1      -2.139  -4.133   4.634  0.00  0.00    -0.043 A 
ATOM     15  C   UNL     1      -0.977  -4.274   5.371  0.00  0.00    +0.005 A 
ATOM     16  C   UNL     1      -0.976  -5.045   6.518  0.00  0.00    +0.020 A 
ATOM     17  C   UNL     1      -2.134  -5.684   6.923  0.00  0.00    +0.041 A 
ATOM     18  C   UNL     1      -3.295  -5.547   6.182  0.00  0.00    +0.020 A 
ATOM     19  C   UNL     1      -3.296  -4.771   5.038  0.00  0.00    +0.005 A 
ATOM     20 CL   UNL     1      -2.132  -6.658   8.360  0.00  0.00    -0.084 Cl
ENDBRANCH   9  14
BRANCH   4  21
ATOM     21  C   UNL     1       0.002  -0.004   0.002  0.00  0.00    -0.035 A 
ATOM     22  C   UNL     1      -0.017   1.378   0.010  0.00  0.00    +0.005 A 
ATOM     23  C   UNL     1       1.171   2.086   0.002  0.00  0.00    +0.015 A 
ATOM     24  C   UNL     1       2.378   1.411  -0.013  0.00  0.00    +0.018 A 
ATOM     25  C   UNL     1       2.396   0.027  -0.021  0.00  0.00    +0.015 A 
ATOM     26  C   UNL     1       1.208  -0.679  -0.013  0.00  0.00    +0.005 A 
ATOM     27 BR   UNL     1       4.003   2.378  -0.024  0.00  0.00    -0.050 Br
ENDBRANCH   4  21
BRANCH   3  28
ATOM     28  C   UNL     1      -1.730  -0.977  -2.460  0.00  0.00    +0.338 C 
ATOM     29  O   UNL     1      -1.805  -1.636  -3.480  0.00  0.00    -0.245 OA
BRANCH  28  30
ATOM     30  O   UNL     1      -1.977   0.349  -2.494  0.00  0.00    -0.459 OA
BRANCH  30  31
ATOM     31  C   UNL     1      -2.322   0.913  -3.761  0.00  0.00    +0.171 C 
ATOM     32  C   UNL     1      -3.840   0.861  -3.946  0.00  0.00    +0.052 C 
ATOM     33  C   UNL     1      -1.851   2.368  -3.817  0.00  0.00    +0.052 C 
ENDBRANCH  30  31
ENDBRANCH  28  30
ENDBRANCH   3  28
TORSDOF 5
