REMARK  Name = ZINC54201301
REMARK  9 active torsions:
REMARK  status: ('A' for Active; 'I' for Inactive)
REMARK    1  A    between atoms: C_1  and  N_2
REMARK    2  A    between atoms: N_2  and  C_3
REMARK    3  A    between atoms: N_2  and  C_4
REMARK    4  A    between atoms: C_7  and  C_10
REMARK    5  A    between atoms: C_18  and  C_31
REMARK    6  A    between atoms: C_21  and  C_23
REMARK    7  A    between atoms: C_26  and  O_29
REMARK    8  A    between atoms: O_29  and  C_30
REMARK    9  A    between atoms: C_36  and  O_37
REMARK                            x       y       z     vdW  Elec       q    Type
REMARK                         _______ _______ _______ _____ _____    ______ ____
ROOT
ATOM      1  C   UNL     1      -0.006  -2.788  -4.880  0.00  0.00    +0.026 C 
ATOM      2  C   UNL     1      -0.123  -2.106  -6.053  0.00  0.00    +0.057 C 
ATOM      3  C   UNL     1      -0.254  -2.613  -7.430  0.00  0.00    +0.149 C 
ATOM      4  N   UNL     1      -0.352  -1.727  -8.378  0.00  0.00    -0.153 NA
ATOM      5  C   UNL     1      -0.335  -0.411  -8.129  0.00  0.00    +0.302 C 
ATOM      6  O   UNL     1      -0.418   0.513  -8.921  0.00  0.00    -0.260 OA
ATOM      7  S   UNL     1      -0.170  -0.343  -6.351  0.00  0.00    -0.026 S 
ATOM      8  N   UNL     1      -0.272  -3.960  -7.701  0.00  0.00    -0.200 N 
ATOM      9  C   UNL     1      -0.393  -4.562  -9.038  0.00  0.00    +0.139 C 
ATOM     10  C   UNL     1      -0.358  -6.077  -8.756  0.00  0.00    +0.087 C 
ATOM     11  C   UNL     1      -0.218  -6.166  -7.253  0.00  0.00    +0.069 C 
ATOM     12  N   UNL     1      -0.173  -4.978  -6.755  0.00  0.00    -0.182 NA
ENDROOT
BRANCH   1  16
ATOM     13  C   UNL     1      -0.175  -0.712  -1.200  0.00  0.00    +0.029 A 
ATOM     14  C   UNL     1      -0.468  -0.045  -2.387  0.00  0.00    +0.023 A 
ATOM     15  C   UNL     1      -0.414  -0.711  -3.578  0.00  0.00    +0.010 A 
ATOM     16  C   UNL     1      -0.064  -2.068  -3.604  0.00  0.00    -0.024 A 
ATOM     17  C   UNL     1       0.230  -2.735  -2.407  0.00  0.00    +0.010 A 
ATOM     18  C   UNL     1       0.179  -2.059  -1.221  0.00  0.00    +0.023 A 
BRANCH  13  20
ATOM     19  C   UNL     1       0.082  -0.727   1.260  0.00  0.00    +0.129 C 
ATOM     20  N   UNL     1      -0.231  -0.029   0.011  0.00  0.00    -0.336 N 
ATOM     21  C   UNL     1      -0.603   1.388   0.036  0.00  0.00    +0.129 C 
ENDBRANCH  13  20
ENDBRANCH   1  16
BRANCH  11  22
ATOM     22  C   UNL     1      -0.139  -7.417  -6.479  0.00  0.00    -0.002 A 
ATOM     23  C   UNL     1      -0.187  -8.651  -7.133  0.00  0.00    +0.013 A 
ATOM     24  C   UNL     1      -0.112  -9.819  -6.405  0.00  0.00    +0.046 A 
ATOM     25  C   UNL     1       0.009  -9.770  -5.022  0.00  0.00    +0.120 A 
ATOM     26  C   UNL     1       0.057  -8.546  -4.367  0.00  0.00    +0.046 A 
ATOM     27  C   UNL     1      -0.010  -7.374  -5.088  0.00  0.00    +0.013 A 
BRANCH  25  28
ATOM     28  O   UNL     1       0.081 -10.924  -4.308  0.00  0.00    -0.495 OA
ATOM     29  C   UNL     1       0.206 -10.802  -2.890  0.00  0.00    +0.277 C 
ENDBRANCH  25  28
ENDBRANCH  11  22
BRANCH   9  30
ATOM     30  C   UNL     1       0.767  -4.155  -9.909  0.00  0.00    +0.017 A 
ATOM     31  C   UNL     1       1.960  -3.763  -9.334  0.00  0.00    +0.009 A 
ATOM     32  C   UNL     1       3.024  -3.389 -10.133  0.00  0.00    +0.001 A 
ATOM     33  C   UNL     1       2.897  -3.405 -11.510  0.00  0.00    +0.004 A 
ATOM     34  C   UNL     1       1.707  -3.796 -12.090  0.00  0.00    +0.046 A 
ATOM     35  C   UNL     1       0.639  -4.178 -11.290  0.00  0.00    +0.122 A 
BRANCH  35  36
ATOM     36  O   UNL     1      -0.532  -4.569 -11.859  0.00  0.00    -0.506 OA
ATOM     37  H   UNL     1      -1.156  -3.845 -12.011  0.00  0.00    +0.292 HD
ENDBRANCH  35  36
ENDBRANCH   9  30
TORSDOF 6
