REMARK  Name = ZINC48835391
REMARK  2 active torsions:
REMARK  status: ('A' for Active; 'I' for Inactive)
REMARK    1  A    between atoms: C_10  and  C_22
REMARK    2  A    between atoms: N_15  and  C_16
REMARK                            x       y       z     vdW  Elec       q    Type
REMARK                         _______ _______ _______ _____ _____    ______ ____
ROOT
ATOM      1  C   UNL     1      -0.019   1.522   0.010  0.00  0.00    +0.000 C 
ATOM      2  C   UNL     1       1.426   2.033  -0.001  0.00  0.00    +0.002 C 
ATOM      3  C   UNL     1       2.112   1.570   1.285  0.00  0.00    +0.023 C 
ATOM      4  C   UNL     1       2.103   0.063   1.398  0.00  0.00    +0.082 C 
ATOM      5  C   UNL     1       0.694  -0.542   1.256  0.00  0.00    +0.012 C 
ATOM      6  C   UNL     1       0.002  -0.004   0.002  0.00  0.00    +0.005 C 
ATOM      7  C   UNL     1       1.052  -2.031   0.962  0.00  0.00    +0.039 C 
ATOM      8  C   UNL     1       2.320  -1.908   0.087  0.00  0.00    +0.191 C 
ATOM      9  N   UNL     1       2.908  -0.594   0.364  0.00  0.00    -0.269 N 
ATOM     10  C   UNL     1       4.007  -0.085  -0.227  0.00  0.00    +0.303 C 
ATOM     11  O   UNL     1       4.412   1.016   0.089  0.00  0.00    -0.253 OA
ATOM     12  N   UNL     1       4.656  -0.798  -1.169  0.00  0.00    -0.297 N 
ATOM     13  H   UNL     1       4.333  -1.677  -1.421  0.00  0.00    +0.151 HD
ENDROOT
BRANCH  12  14
ATOM     14  C   UNL     1       5.851  -0.245  -1.811  0.00  0.00    +0.071 C 
ATOM     15  C   UNL     1       5.435   0.639  -2.990  0.00  0.00    +0.003 C 
ATOM     16  C   UNL     1       6.689   1.149  -3.705  0.00  0.00    -0.081 C 
ATOM     17  N   UNL     1       7.473   0.010  -4.198  0.00  0.00    +0.379 N 
ATOM     18  C   UNL     1       7.935  -0.803  -3.067  0.00  0.00    -0.081 C 
ATOM     19  C   UNL     1       6.730  -1.388  -2.328  0.00  0.00    +0.003 C 
ATOM     20  H   UNL     1       6.897  -0.555  -4.805  0.00  0.00    -0.086 HD
ATOM     21  H   UNL     1       8.270   0.351  -4.715  0.00  0.00    -0.086 HD
ENDBRANCH  12  14
BRANCH   8  22
ATOM     22  C   UNL     1       3.291  -3.007   0.433  0.00  0.00    +0.376 C 
ATOM     23  O   UNL     1       3.241  -4.073  -0.155  0.00  0.00    -0.244 OA
ATOM     24  O   UNL     1       4.127  -2.829   1.303  0.00  0.00    -0.244 OA
ENDBRANCH   8  22
TORSDOF 2
