REMARK  Name = ZINC63625075
REMARK  4 active torsions:
REMARK  status: ('A' for Active; 'I' for Inactive)
REMARK    1  A    between atoms: C_1  and  C_2
REMARK    2  A    between atoms: C_5  and  C_8
REMARK    3  A    between atoms: N_23  and  S_24
REMARK    4  A    between atoms: S_24  and  C_27
REMARK                            x       y       z     vdW  Elec       q    Type
REMARK                         _______ _______ _______ _____ _____    ______ ____
ROOT
ATOM      1  C   UNL     1       0.059  -4.275  -0.021  0.00  0.00    +0.136 C 
ATOM      2  C   UNL     1      -1.319  -4.814   0.375  0.00  0.00    +0.129 C 
ATOM      3  C   UNL     1      -1.492  -4.516   1.859  0.00  0.00    -0.035 C 
ATOM      4  C   UNL     1      -2.612  -3.813   1.973  0.00  0.00    +0.001 A 
ATOM      5  C   UNL     1      -3.331  -3.299   3.150  0.00  0.00    +0.030 A 
ATOM      6  C   UNL     1      -4.466  -2.593   2.899  0.00  0.00    +0.042 A 
ATOM      7  C   UNL     1      -4.951  -2.350   1.609  0.00  0.00    +0.022 A 
ATOM      8  C   UNL     1      -4.357  -2.789   0.471  0.00  0.00    +0.027 A 
ATOM      9  C   UNL     1      -3.158  -3.547   0.607  0.00  0.00    +0.043 A 
ATOM     10  N   UNL     1      -2.399  -4.109  -0.318  0.00  0.00    -0.376 N 
ATOM     11 CL   UNL     1      -5.358  -1.960   4.247  0.00  0.00    -0.084 Cl
ATOM     12  C   UNL     1      -0.472  -4.927   2.892  0.00  0.00    +0.050 C 
ATOM     13  C   UNL     1       0.895  -4.434   2.385  0.00  0.00    +0.114 C 
ATOM     14  N   UNL     1       1.037  -4.766   0.962  0.00  0.00    -0.167 NA
ATOM     15  H   UNL     1      -2.522  -4.065  -1.279  0.00  0.00    +0.160 HD
ENDROOT
BRANCH   1  20
ATOM     16  C   UNL     1      -0.018   1.503   0.010  0.00  0.00    +0.044 C 
ATOM     17  C   UNL     1       0.002  -0.004   0.002  0.00  0.00    -0.050 A 
ATOM     18  C   UNL     1       0.246  -0.686  -1.176  0.00  0.00    +0.003 A 
ATOM     19  C   UNL     1       0.265  -2.068  -1.183  0.00  0.00    +0.005 A 
ATOM     20  C   UNL     1       0.040  -2.768  -0.013  0.00  0.00    -0.026 A 
ATOM     21  C   UNL     1      -0.203  -2.087   1.165  0.00  0.00    +0.005 A 
ATOM     22  C   UNL     1      -0.217  -0.705   1.173  0.00  0.00    +0.003 A 
ENDBRANCH   1  20
BRANCH  14  23
ATOM     23  S   UNL     1       2.307  -5.703   0.460  0.00  0.00    +0.064 S 
ATOM     24  O   UNL     1       2.722  -6.462   1.587  0.00  0.00    -0.153 OA
ATOM     25  O   UNL     1       1.906  -6.309  -0.761  0.00  0.00    -0.153 OA
BRANCH  23  26
ATOM     26  C   UNL     1       3.635  -4.614   0.069  0.00  0.00    +0.134 A 
ATOM     27  C   UNL     1       4.777  -4.654   0.794  0.00  0.00    +0.031 A 
ATOM     28  C   UNL     1       5.850  -3.807   0.513  0.00  0.00    +0.004 A 
ATOM     29  C   UNL     1       5.794  -2.908  -0.497  0.00  0.00    +0.031 A 
ATOM     30  C   UNL     1       4.627  -2.809  -1.301  0.00  0.00    +0.102 A 
ATOM     31  C   UNL     1       3.508  -3.699  -1.011  0.00  0.00    +0.126 A 
ATOM     32  N   UNL     1       2.471  -3.522  -1.831  0.00  0.00    -0.189 NA
ATOM     33  S   UNL     1       2.913  -2.353  -2.844  0.00  0.00    +0.117 S 
ATOM     34  N   UNL     1       4.394  -1.992  -2.329  0.00  0.00    -0.191 NA
ENDBRANCH  23  26
ENDBRANCH  14  23
TORSDOF 3
