REMARK  Name = ZINC12098188
REMARK  7 active torsions:
REMARK  status: ('A' for Active; 'I' for Inactive)
REMARK    1  A    between atoms: C_5  and  C_7
REMARK    2  A    between atoms: C_7  and  C_8
REMARK    3  A    between atoms: C_8  and  C_19
REMARK    4  A    between atoms: N_11  and  C_15
REMARK    5  A    between atoms: C_15  and  C_16
REMARK    6  A    between atoms: C_24  and  C_25
REMARK    7  A    between atoms: C_24  and  N_65
REMARK                            x       y       z     vdW  Elec       q    Type
REMARK                         _______ _______ _______ _____ _____    ______ ____
ROOT
ATOM      1  C   UNL     1       0.273  -0.520   1.417  0.00  0.00    +0.119 C 
ATOM      2  C   UNL     1       1.478   0.177   2.017  0.00  0.00    +0.247 C 
ATOM      3  O   UNL     1       2.618   0.156   1.603  0.00  0.00    -0.273 OA
ATOM      4  N   UNL     1       1.020   0.824   3.106  0.00  0.00    -0.224 N 
ATOM      5  C   UNL     1      -0.294   0.635   3.276  0.00  0.00    +0.309 C 
ATOM      6  O   UNL     1      -0.933   1.119   4.190  0.00  0.00    -0.252 OA
ATOM      7  N   UNL     1      -0.828  -0.149   2.323  0.00  0.00    -0.284 N 
ATOM      8  H   UNL     1      -1.757  -0.418   2.247  0.00  0.00    +0.151 HD
ENDROOT
BRANCH   1   9
ATOM      9  C   UNL     1       0.474  -2.036   1.406  0.00  0.00    +0.018 C 
ATOM     10  C   UNL     1      -0.787  -2.716   0.866  0.00  0.00    -0.013 C 
ATOM     11  C   UNL     1      -0.604  -4.234   0.916  0.00  0.00    -0.078 C 
ATOM     12  C   UNL     1       0.880  -4.051   2.823  0.00  0.00    -0.078 C 
ATOM     13  C   UNL     1       0.740  -2.527   2.832  0.00  0.00    -0.013 C 
ATOM     14  N   UNL     1      -0.376  -4.646   2.318  0.00  0.00    +0.382 N 
ATOM     15  H   UNL     1      -1.158  -4.312   2.894  0.00  0.00    -0.081 HD
BRANCH  14  16
ATOM     16  C   UNL     1      -0.309  -6.119   2.407  0.00  0.00    -0.043 C 
BRANCH  16  17
ATOM     17  C   UNL     1      -1.467  -6.713   1.646  0.00  0.00    -0.060 A 
ATOM     18  C   UNL     1      -2.670  -6.939   2.288  0.00  0.00    +0.005 A 
ATOM     19  C   UNL     1      -3.736  -7.479   1.594  0.00  0.00    +0.050 A 
ATOM     20  C   UNL     1      -3.598  -7.805   0.254  0.00  0.00    +0.166 A 
ATOM     21  C   UNL     1      -2.384  -7.582  -0.391  0.00  0.00    +0.166 A 
ATOM     22  C   UNL     1      -1.321  -7.036   0.310  0.00  0.00    +0.051 A 
ATOM     23  O   UNL     1      -2.501  -7.983  -1.690  0.00  0.00    -0.453 OA
ATOM     24  C   UNL     1      -3.916  -8.072  -1.940  0.00  0.00    +0.466 C 
ATOM     25  O   UNL     1      -4.475  -8.345  -0.641  0.00  0.00    -0.453 OA
ENDBRANCH  16  17
ENDBRANCH  14  16
ENDBRANCH   1   9
BRANCH   1  26
ATOM     26  C   UNL     1       0.002  -0.004   0.002  0.00  0.00    +0.072 C 
BRANCH  26  31
ATOM     27  C   UNL     1      -1.758   3.313   0.390  0.00  0.00    +0.000 A 
ATOM     28  C   UNL     1      -0.731   4.203   0.135  0.00  0.00    +0.001 A 
ATOM     29  C   UNL     1       0.534   3.732  -0.164  0.00  0.00    +0.020 A 
ATOM     30  C   UNL     1       0.772   2.369  -0.206  0.00  0.00    +0.044 A 
ATOM     31  C   UNL     1      -0.256   1.480   0.049  0.00  0.00    -0.027 A 
ATOM     32  C   UNL     1      -1.522   1.952   0.342  0.00  0.00    +0.005 A 
ATOM     33 CL   UNL     1       2.360   1.777  -0.580  0.00  0.00    -0.083 Cl
ENDBRANCH  26  31
ENDBRANCH   1  26
BRANCH   4  34
ATOM     34  C   UNL     1       1.857   1.634   3.995  0.00  0.00    +0.121 C 
BRANCH  34  35
ATOM     35  C   UNL     1       2.419   0.751   5.111  0.00  0.00    +0.007 C 
ATOM     36  C   UNL     1       1.992   1.067   6.545  0.00  0.00    +0.005 C 
ATOM     37  C   UNL     1       3.416   1.388   6.082  0.00  0.00    +0.005 C 
ENDBRANCH  34  35
ENDBRANCH   4  34
TORSDOF 7
