REMARK  Name = ZINC38891088
REMARK  14 active torsions:
REMARK  status: ('A' for Active; 'I' for Inactive)
REMARK    1  A    between atoms: C_1  and  C_2
REMARK    2  A    between atoms: C_2  and  O_3
REMARK    3  A    between atoms: O_3  and  C_4
REMARK    4  A    between atoms: C_7  and  C_13
REMARK    5  A    between atoms: C_9  and  O_10
REMARK    6  A    between atoms: O_10  and  C_11
REMARK    7  A    between atoms: C_11  and  C_12
REMARK    8  A    between atoms: C_13  and  C_15
REMARK    9  A    between atoms: C_13  and  N_16
REMARK   10  A    between atoms: C_17  and  C_19
REMARK   11  A    between atoms: N_24  and  C_26
REMARK   12  A    between atoms: C_26  and  C_27
REMARK   13  A    between atoms: C_29  and  C_32
REMARK   14  A    between atoms: C_35  and  C_38
REMARK                            x       y       z     vdW  Elec       q    Type
REMARK                         _______ _______ _______ _____ _____    ______ ____
ROOT
ATOM      1  C   UNL     1      -0.207  -8.541   2.329  0.00  0.00    +0.058 C 
ATOM      2  C   UNL     1       1.099  -8.743   1.557  0.00  0.00    +0.009 C 
ATOM      3  C   UNL     1       2.111  -9.453   2.461  0.00  0.00    -0.018 C 
ATOM      4  C   UNL     1       1.513 -10.776   2.946  0.00  0.00    -0.078 C 
ATOM      5  N   UNL     1       0.281 -10.513   3.700  0.00  0.00    +0.386 N 
ATOM      6  C   UNL     1      -0.720  -9.897   2.820  0.00  0.00    -0.065 C 
ATOM      7  H   UNL     1       0.483  -9.888   4.466  0.00  0.00    -0.081 HD
ENDROOT
BRANCH   1   9
ATOM      8  N   UNL     1      -0.997  -6.708   0.869  0.00  0.00    -0.309 N 
ATOM      9  C   UNL     1      -1.235  -7.913   1.424  0.00  0.00    +0.215 C 
ATOM     10  O   UNL     1      -2.276  -8.491   1.195  0.00  0.00    -0.276 OA
ATOM     11  H   UNL     1      -0.165  -6.245   1.052  0.00  0.00    +0.149 HD
BRANCH   8  12
ATOM     12  C   UNL     1      -1.996  -6.097  -0.011  0.00  0.00    +0.100 C 
ATOM     13  C   UNL     1      -1.813  -6.625  -1.435  0.00  0.00    +0.033 C 
BRANCH  12  17
ATOM     14  C   UNL     1      -1.498  -1.849   0.006  0.00  0.00    +0.162 A 
ATOM     15  C   UNL     1      -0.389  -2.680  -0.003  0.00  0.00    +0.050 A 
ATOM     16  C   UNL     1      -0.553  -4.052  -0.008  0.00  0.00    +0.009 A 
ATOM     17  C   UNL     1      -1.823  -4.600  -0.005  0.00  0.00    -0.024 A 
ATOM     18  C   UNL     1      -2.934  -3.777   0.004  0.00  0.00    +0.055 A 
ATOM     19  C   UNL     1      -2.776  -2.400   0.016  0.00  0.00    +0.162 A 
BRANCH  14  20
ATOM     20  O   UNL     1      -1.339  -0.499   0.012  0.00  0.00    -0.489 OA
BRANCH  20  22
ATOM     21  C   UNL     1      -0.019   1.526   0.010  0.00  0.00    +0.048 C 
ATOM     22  C   UNL     1       0.002  -0.004   0.002  0.00  0.00    +0.226 C 
ENDBRANCH  20  22
ENDBRANCH  14  20
BRANCH  19  23
ATOM     23  O   UNL     1      -3.868  -1.589   0.030  0.00  0.00    -0.489 OA
BRANCH  23  24
ATOM     24  C   UNL     1      -5.148  -2.225   0.039  0.00  0.00    +0.226 C 
ATOM     25  C   UNL     1      -6.246  -1.159   0.055  0.00  0.00    +0.048 C 
ENDBRANCH  23  24
ENDBRANCH  19  23
ENDBRANCH  12  17
ENDBRANCH   8  12
ENDBRANCH   1   9
BRANCH   5  26
ATOM     26  C   UNL     1      -0.246 -11.778   4.229  0.00  0.00    +0.022 C 
BRANCH  26  27
ATOM     27  C   UNL     1       0.723 -12.345   5.234  0.00  0.00    +0.211 A 
ATOM     28  N   UNL     1       0.718 -12.107   6.514  0.00  0.00    -0.193 NA
ATOM     29  C   UNL     1       1.721 -12.776   7.111  0.00  0.00    +0.202 A 
ATOM     30  N   UNL     1       2.375 -13.450   6.198  0.00  0.00    -0.056 NA
ATOM     31  O   UNL     1       1.731 -13.183   4.962  0.00  0.00    -0.340 OA
BRANCH  29  32
ATOM     32  C   UNL     1       2.034 -12.753   8.562  0.00  0.00    +0.022 A 
ATOM     33  C   UNL     1       1.254 -11.996   9.434  0.00  0.00    +0.012 A 
ATOM     34  C   UNL     1       1.550 -11.979  10.781  0.00  0.00    +0.004 A 
ATOM     35  C   UNL     1       2.619 -12.710  11.267  0.00  0.00    -0.050 A 
ATOM     36  C   UNL     1       3.396 -13.464  10.406  0.00  0.00    +0.004 A 
ATOM     37  C   UNL     1       3.105 -13.493   9.057  0.00  0.00    +0.012 A 
ATOM     38  C   UNL     1       2.937 -12.686  12.740  0.00  0.00    +0.044 C 
ENDBRANCH  29  32
ENDBRANCH  26  27
ENDBRANCH   5  26
TORSDOF 10
