REMARK  Name = ZINC28368076
REMARK  3 active torsions:
REMARK  status: ('A' for Active; 'I' for Inactive)
REMARK    1  A    between atoms: C_5  and  C_7
REMARK    2  A    between atoms: C_7  and  C_8
REMARK    3  A    between atoms: N_11  and  C_14
REMARK                            x       y       z     vdW  Elec       q    Type
REMARK                         _______ _______ _______ _____ _____    ______ ____
ROOT
ATOM      1  C   UNL     1      -3.352   4.700   0.065  0.00  0.00    -0.068 C 
ATOM      2  C   UNL     1      -2.804   3.989   1.303  0.00  0.00    -0.011 C 
ATOM      3  C   UNL     1      -1.275   4.048   1.290  0.00  0.00    +0.051 C 
ATOM      4  C   UNL     1      -0.748   3.366   0.027  0.00  0.00    +0.139 C 
ATOM      5  C   UNL     1      -1.302   4.064  -1.215  0.00  0.00    +0.051 C 
ATOM      6  C   UNL     1      -2.831   4.005  -1.195  0.00  0.00    -0.011 C 
ATOM      7  C   UNL     1       0.758   3.403   0.012  0.00  0.00    +0.014 A 
ATOM      8  C   UNL     1       1.678   4.423   0.007  0.00  0.00    +0.012 A 
ATOM      9  C   UNL     1       3.034   4.137  -0.007  0.00  0.00    +0.050 A 
ATOM     10  C   UNL     1       3.473   2.821  -0.016  0.00  0.00    +0.163 A 
ATOM     11  C   UNL     1       2.552   1.780  -0.010  0.00  0.00    +0.176 A 
ATOM     12  C   UNL     1       1.181   2.068   0.002  0.00  0.00    +0.111 A 
ATOM     13  C   UNL     1      -0.014   1.211   0.009  0.00  0.00    +0.344 C 
ATOM     14  O   UNL     1       0.002  -0.004   0.002  0.00  0.00    -0.245 OA
ATOM     15  O   UNL     1      -1.128   1.964   0.018  0.00  0.00    -0.450 OA
ATOM     16  O   UNL     1       2.964   0.486  -0.010  0.00  0.00    -0.484 OA
ATOM     17  C   UNL     1       4.320   0.241  -0.396  0.00  0.00    +0.270 C 
ATOM     18  C   UNL     1       5.218   1.245   0.340  0.00  0.00    +0.270 C 
ATOM     19  O   UNL     1       4.811   2.566  -0.032  0.00  0.00    -0.485 OA
ENDROOT
BRANCH   1  23
ATOM     20  C   UNL     1      -7.461   4.041  -0.916  0.00  0.00    -0.010 C 
ATOM     21  C   UNL     1      -6.910   5.469  -0.900  0.00  0.00    -0.015 C 
ATOM     22  C   UNL     1      -5.386   5.424  -1.032  0.00  0.00    -0.078 C 
ATOM     23  N   UNL     1      -4.820   4.649   0.080  0.00  0.00    +0.382 N 
ATOM     24  C   UNL     1      -5.299   3.261   0.058  0.00  0.00    -0.078 C 
ATOM     25  C   UNL     1      -6.820   3.242   0.222  0.00  0.00    -0.015 C 
ATOM     26  H   UNL     1      -5.166   5.108   1.018  0.00  0.00    -0.081 HD
BRANCH  20  27
ATOM     27  C   UNL     1      -8.979   4.077  -0.725  0.00  0.00    +0.039 C 
BRANCH  27  32
ATOM     28  C   UNL     1     -10.353   0.669   0.139  0.00  0.00    +0.000 A 
ATOM     29  C   UNL     1     -10.559   0.127  -1.116  0.00  0.00    +0.001 A 
ATOM     30  C   UNL     1     -10.254   0.863  -2.245  0.00  0.00    +0.015 A 
ATOM     31  C   UNL     1      -9.746   2.144  -2.119  0.00  0.00    +0.021 A 
ATOM     32  C   UNL     1      -9.536   2.684  -0.863  0.00  0.00    -0.033 A 
ATOM     33  C   UNL     1      -9.841   1.947   0.266  0.00  0.00    +0.005 A 
ATOM     34 BR   UNL     1      -9.335   3.155  -3.664  0.00  0.00    -0.050 Br
ENDBRANCH  27  32
ENDBRANCH  20  27
ENDBRANCH   1  23
TORSDOF 3
