REMARK  Name = ZINC13192354
REMARK  8 active torsions:
REMARK  status: ('A' for Active; 'I' for Inactive)
REMARK    1  A    between atoms: C_3  and  C_6
REMARK    2  A    between atoms: C_9  and  S_15
REMARK    3  A    between atoms: N_10  and  C_11
REMARK    4  A    between atoms: C_11  and  C_12
REMARK    5  A    between atoms: C_12  and  C_13
REMARK    6  A    between atoms: S_15  and  C_16
REMARK    7  A    between atoms: C_16  and  C_17
REMARK    8  A    between atoms: N_22  and  C_23
REMARK                            x       y       z     vdW  Elec       q    Type
REMARK                         _______ _______ _______ _____ _____    ______ ____
ROOT
ATOM      1  C   UNL     1       4.832  -4.006   0.226  0.00  0.00    +0.231 C 
ATOM      2  O   UNL     1       3.790  -4.627   0.235  0.00  0.00    -0.274 OA
ATOM      3  N   UNL     1       4.814  -2.662   0.133  0.00  0.00    -0.239 N 
ATOM      4  C   UNL     1       3.639  -2.008   0.049  0.00  0.00    +0.310 C 
ATOM      5  O   UNL     1       2.595  -2.630   0.058  0.00  0.00    -0.252 OA
ATOM      6  N   UNL     1       3.622  -0.663  -0.045  0.00  0.00    -0.269 N 
ATOM      7  H   UNL     1       5.647  -2.166   0.125  0.00  0.00    +0.159 HD
ATOM      8  H   UNL     1       4.454  -0.172  -0.130  0.00  0.00    +0.156 HD
ENDROOT
BRANCH   6   9
ATOM      9  C   UNL     1       2.401   0.025  -0.019  0.00  0.00    +0.038 A 
ATOM     10  C   UNL     1       1.346  -0.460   0.741  0.00  0.00    +0.027 A 
ATOM     11  C   UNL     1       0.142   0.218   0.766  0.00  0.00    +0.051 A 
ATOM     12  C   UNL     1      -0.016   1.384   0.032  0.00  0.00    +0.162 A 
ATOM     13  C   UNL     1       1.040   1.873  -0.728  0.00  0.00    +0.164 A 
ATOM     14  C   UNL     1       2.247   1.192  -0.754  0.00  0.00    +0.072 A 
ATOM     15  O   UNL     1       0.906   3.021  -1.448  0.00  0.00    -0.485 OA
ATOM     16  C   UNL     1      -0.429   3.474  -1.696  0.00  0.00    +0.270 C 
ATOM     17  C   UNL     1      -1.215   3.396  -0.380  0.00  0.00    +0.270 C 
ATOM     18  O   UNL     1      -1.212   2.034   0.062  0.00  0.00    -0.485 OA
ENDBRANCH   6   9
BRANCH   1  19
ATOM     19  C   UNL     1       6.146  -4.738   0.320  0.00  0.00    +0.173 C 
BRANCH  19  20
ATOM     20  S   UNL     1       5.838  -6.518   0.433  0.00  0.00    -0.077 S 
BRANCH  20  24
ATOM     21  C   UNL     1       9.262  -8.390   0.673  0.00  0.00    +0.172 A 
ATOM     22  N   UNL     1       9.625  -7.129   0.597  0.00  0.00    -0.128 NA
ATOM     23  N   UNL     1       8.586  -6.378   0.507  0.00  0.00    -0.122 NA
ATOM     24  C   UNL     1       7.495  -7.110   0.528  0.00  0.00    +0.192 A 
ATOM     25  N   UNL     1       7.885  -8.416   0.631  0.00  0.00    -0.301 N 
BRANCH  21  28
ATOM     26  C   UNL     1      12.138 -10.842   0.724  0.00  0.00    +0.008 A 
ATOM     27  C   UNL     1      11.506  -9.631   0.549  0.00  0.00    +0.019 A 
ATOM     28  C   UNL     1      10.156  -9.554   0.782  0.00  0.00    +0.056 A 
ATOM     29  S   UNL     1       9.766 -11.233   1.246  0.00  0.00    -0.094 S 
ATOM     30  C   UNL     1      11.408 -11.921   1.108  0.00  0.00    +0.046 A 
ENDBRANCH  21  28
BRANCH  25  31
ATOM     31  C   UNL     1       7.020  -9.597   0.685  0.00  0.00    +0.137 C 
BRANCH  31  32
ATOM     32  C   UNL     1       6.765 -10.108  -0.734  0.00  0.00    +0.147 C 
BRANCH  32  33
ATOM     33  C   UNL     1       5.875 -11.323  -0.678  0.00  0.00    +0.358 C 
ATOM     34  O   UNL     1       5.484 -11.737   0.388  0.00  0.00    -0.246 OA
ATOM     35  O   UNL     1       5.516 -11.945  -1.812  0.00  0.00    -0.246 OA
ENDBRANCH  32  33
ENDBRANCH  31  32
ENDBRANCH  25  31
ENDBRANCH  20  24
ENDBRANCH  19  20
ENDBRANCH   1  19
TORSDOF 8
