REMARK  Name = ZINC08622897
REMARK  7 active torsions:
REMARK  status: ('A' for Active; 'I' for Inactive)
REMARK    1  A    between atoms: C_1  and  C_2
REMARK    2  A    between atoms: C_4  and  C_29
REMARK    3  A    between atoms: C_6  and  C_8
REMARK    4  A    between atoms: C_16  and  C_18
REMARK    5  A    between atoms: C_18  and  O_19
REMARK    6  A    between atoms: O_19  and  C_20
REMARK    7  A    between atoms: N_22  and  C_23
REMARK                            x       y       z     vdW  Elec       q    Type
REMARK                         _______ _______ _______ _____ _____    ______ ____
ROOT
ATOM      1  C   UNL     1       1.358   3.190   2.450  0.00  0.00    +0.024 C 
ATOM      2  C   UNL     1       0.521   3.533   1.215  0.00  0.00    -0.068 C 
ATOM      3  C   UNL     1      -1.514   3.544   2.527  0.00  0.00    -0.078 C 
ATOM      4  C   UNL     1      -0.726   3.209   3.817  0.00  0.00    -0.015 C 
ATOM      5  C   UNL     1       0.497   2.371   3.420  0.00  0.00    -0.007 C 
ATOM      6  C   UNL     1       0.027   1.099   2.703  0.00  0.00    -0.008 C 
ATOM      7  C   UNL     1      -0.772   1.499   1.460  0.00  0.00    -0.030 C 
ATOM      8  N   UNL     1      -0.841   2.972   1.342  0.00  0.00    +0.384 N 
ATOM      9  H   UNL     1      -1.381   3.214   0.502  0.00  0.00    -0.081 HD
ENDROOT
BRANCH   1  15
ATOM     10  C   UNL     1       4.598   1.913  -0.982  0.00  0.00    +0.088 C 
ATOM     11  C   UNL     1       4.091   1.773   0.431  0.00  0.00    +0.127 A 
ATOM     12  N   UNL     1       4.712   0.955   1.255  0.00  0.00    -0.232 NA
ATOM     13  C   UNL     1       4.292   0.807   2.510  0.00  0.00    +0.075 A 
ATOM     14  C   UNL     1       3.182   1.540   2.942  0.00  0.00    +0.052 A 
ATOM     15  C   UNL     1       2.561   2.382   2.038  0.00  0.00    +0.047 A 
ATOM     16  N   UNL     1       3.039   2.474   0.806  0.00  0.00    -0.237 NA
BRANCH  13  17
ATOM     17  C   UNL     1       4.993  -0.114   3.436  0.00  0.00    +0.001 A 
ATOM     18  C   UNL     1       4.483  -0.344   4.713  0.00  0.00    +0.013 A 
ATOM     19  C   UNL     1       5.136  -1.205   5.569  0.00  0.00    +0.039 A 
ATOM     20  C   UNL     1       6.303  -1.835   5.166  0.00  0.00    +0.123 A 
ATOM     21  C   UNL     1       6.816  -1.606   3.899  0.00  0.00    +0.039 A 
ATOM     22  C   UNL     1       6.167  -0.750   3.034  0.00  0.00    +0.013 A 
ATOM     23  F   UNL     1       6.942  -2.674   6.009  0.00  0.00    -0.205 F 
ENDBRANCH  13  17
ENDBRANCH   1  15
BRANCH   7  24
ATOM     24  C   UNL     1      -0.094   0.931   0.212  0.00  0.00    +0.218 C 
BRANCH  24  25
ATOM     25  O   UNL     1      -0.877   1.273  -0.962  0.00  0.00    -0.452 OA
BRANCH  25  26
ATOM     26  C   UNL     1      -0.362   0.934  -2.160  0.00  0.00    +0.400 C 
ATOM     27  O   UNL     1       0.664   0.286  -2.219  0.00  0.00    -0.226 OA
ATOM     28  N   UNL     1      -0.986   1.313  -3.293  0.00  0.00    -0.278 N 
ATOM     29  H   UNL     1      -1.805   1.830  -3.246  0.00  0.00    +0.152 HD
BRANCH  28  30
ATOM     30  C   UNL     1      -0.426   0.944  -4.595  0.00  0.00    +0.076 C 
ATOM     31  C   UNL     1       0.630   1.973  -5.006  0.00  0.00    +0.022 C 
ATOM     32  C   UNL     1       1.214   1.588  -6.367  0.00  0.00    +0.002 C 
ATOM     33  C   UNL     1       0.097   1.558  -7.412  0.00  0.00    +0.000 C 
ATOM     34  C   UNL     1      -0.959   0.530  -7.001  0.00  0.00    +0.002 C 
ATOM     35  C   UNL     1      -1.543   0.915  -5.641  0.00  0.00    +0.022 C 
ENDBRANCH  28  30
ENDBRANCH  25  26
ENDBRANCH  24  25
ENDBRANCH   7  24
TORSDOF 6
