REMARK  Name = ZINC40679764
REMARK  7 active torsions:
REMARK  status: ('A' for Active; 'I' for Inactive)
REMARK    1  A    between atoms: C_1  and  C_2
REMARK    2  A    between atoms: C_2  and  N_3
REMARK    3  A    between atoms: N_3  and  C_4
REMARK    4  A    between atoms: C_11  and  N_30
REMARK    5  A    between atoms: C_12  and  N_16
REMARK    6  A    between atoms: N_16  and  C_17
REMARK    7  A    between atoms: C_17  and  C_18
REMARK                            x       y       z     vdW  Elec       q    Type
REMARK                         _______ _______ _______ _____ _____    ______ ____
ROOT
ATOM      1  N   UNL     1       0.852  -0.502  -1.568  0.00  0.00    -0.285 N 
ATOM      2  C   UNL     1       0.059  -0.782  -2.675  0.00  0.00    +0.129 A 
ATOM      3  C   UNL     1       0.600  -1.426  -3.790  0.00  0.00    +0.104 A 
ATOM      4  C   UNL     1      -0.240  -1.683  -4.875  0.00  0.00    +0.153 A 
ATOM      5  N   UNL     1      -1.515  -1.307  -4.806  0.00  0.00    -0.220 NA
ATOM      6  C   UNL     1      -1.986  -0.702  -3.735  0.00  0.00    +0.200 A 
ATOM      7  N   UNL     1      -1.228  -0.446  -2.688  0.00  0.00    -0.332 N 
ATOM      8  H   UNL     1      -1.614  -0.002  -1.916  0.00  0.00    +0.168 HD
ENDROOT
BRANCH   4   9
ATOM      9  N   UNL     1       0.248  -2.321  -6.011  0.00  0.00    -0.264 N 
ATOM     10  C   UNL     1       0.682  -1.570  -7.099  0.00  0.00    +0.127 A 
ATOM     11  C   UNL     1       0.800  -0.189  -6.980  0.00  0.00    +0.044 A 
ATOM     12  C   UNL     1       1.233   0.545  -8.069  0.00  0.00    +0.005 A 
ATOM     13  C   UNL     1       1.535  -0.129  -9.245  0.00  0.00    +0.020 A 
ATOM     14  C   UNL     1       1.395  -1.501  -9.293  0.00  0.00    +0.113 A 
ATOM     15  N   UNL     1       0.985  -2.177  -8.236  0.00  0.00    -0.240 NA
BRANCH   9  16
ATOM     16  C   UNL     1       0.305  -3.784  -6.061  0.00  0.00    +0.149 C 
BRANCH  16  17
ATOM     17  C   UNL     1      -0.987  -4.318  -6.624  0.00  0.00    -0.030 A 
ATOM     18  C   UNL     1      -2.039  -4.614  -5.778  0.00  0.00    +0.005 A 
ATOM     19  C   UNL     1      -3.224  -5.104  -6.294  0.00  0.00    +0.000 A 
ATOM     20  C   UNL     1      -3.357  -5.298  -7.657  0.00  0.00    +0.000 A 
ATOM     21  C   UNL     1      -2.305  -5.001  -8.503  0.00  0.00    +0.000 A 
ATOM     22  C   UNL     1      -1.121  -4.507  -7.987  0.00  0.00    +0.005 A 
ENDBRANCH  16  17
ENDBRANCH   9  16
ENDBRANCH   4   9
BRANCH   1  23
ATOM     23  C   UNL     1       1.452   0.753  -1.438  0.00  0.00    +0.035 A 
ATOM     24  C   UNL     1       1.352   1.683  -2.465  0.00  0.00    +0.023 A 
ATOM     25  C   UNL     1       1.946   2.922  -2.333  0.00  0.00    +0.002 A 
ATOM     26  C   UNL     1       2.641   3.238  -1.180  0.00  0.00    +0.000 A 
ATOM     27  C   UNL     1       2.743   2.315  -0.155  0.00  0.00    +0.002 A 
ATOM     28  C   UNL     1       2.145   1.076  -0.278  0.00  0.00    +0.023 A 
ENDBRANCH   1  23
BRANCH   3  29
ATOM     29  N   UNL     1       1.952  -1.804  -3.819  0.00  0.00    -0.353 N 
ATOM     30  H   UNL     1       2.505  -1.685  -3.032  0.00  0.00    +0.143 HD
ATOM     31  H   UNL     1       2.332  -2.184  -4.627  0.00  0.00    +0.143 HD
ENDBRANCH   3  29
BRANCH   1  33
ATOM     32  C   UNL     1      -0.032  -1.397   0.530  0.00  0.00    +0.025 C 
ATOM     33  C   UNL     1       1.057  -1.523  -0.538  0.00  0.00    +0.109 C 
ENDBRANCH   1  33
TORSDOF 6
