REMARK  Name = ZINC27015972
REMARK  7 active torsions:
REMARK  status: ('A' for Active; 'I' for Inactive)
REMARK    1  A    between atoms: C_1  and  C_2
REMARK    2  A    between atoms: C_2  and  C_3
REMARK    3  A    between atoms: N_5  and  C_6
REMARK    4  A    between atoms: C_7  and  C_22
REMARK    5  A    between atoms: N_8  and  C_19
REMARK    6  A    between atoms: N_10  and  C_11
REMARK    7  A    between atoms: C_19  and  C_20
REMARK                            x       y       z     vdW  Elec       q    Type
REMARK                         _______ _______ _______ _____ _____    ______ ____
ROOT
ATOM      1  C   UNL     1       5.446   3.634  -0.411  0.00  0.00    +0.099 A 
ATOM      2  C   UNL     1       5.815   2.329  -0.348  0.00  0.00    +0.080 A 
ATOM      3  N   UNL     1       4.846   1.362  -0.233  0.00  0.00    -0.315 N 
ATOM      4  C   UNL     1       3.530   1.750  -0.184  0.00  0.00    +0.154 A 
ATOM      5  N   UNL     1       2.446   1.005  -0.077  0.00  0.00    -0.336 N 
ATOM      6  S   UNL     1       3.667   3.526  -0.312  0.00  0.00    -0.036 S 
ATOM      7  H   UNL     1       2.538  -0.082   0.070  0.00  0.00    +0.168 HD
ENDROOT
BRANCH   5   8
ATOM      8  C   UNL     1       1.209   1.583  -0.149  0.00  0.00    +0.041 A 
ATOM      9  C   UNL     1       0.612   1.810  -1.392  0.00  0.00    +0.027 A 
ATOM     10  C   UNL     1      -0.634   2.398  -1.458  0.00  0.00    +0.017 A 
ATOM     11  C   UNL     1      -1.297   2.755  -0.296  0.00  0.00    +0.018 A 
ATOM     12  C   UNL     1      -0.711   2.532   0.939  0.00  0.00    +0.017 A 
ATOM     13  C   UNL     1       0.536   1.949   1.019  0.00  0.00    +0.027 A 
ATOM     14 BR   UNL     1      -3.007   3.555  -0.396  0.00  0.00    -0.050 Br
ENDBRANCH   5   8
BRANCH   2  15
ATOM     15  C   UNL     1       7.241   1.953  -0.404  0.00  0.00    +0.001 A 
ATOM     16  C   UNL     1       7.788   1.129   0.584  0.00  0.00    +0.010 A 
ATOM     17  C   UNL     1       9.121   0.779   0.524  0.00  0.00    +0.001 A 
ATOM     18  C   UNL     1       9.918   1.249  -0.506  0.00  0.00    +0.000 A 
ATOM     19  C   UNL     1       9.383   2.069  -1.484  0.00  0.00    +0.001 A 
ATOM     20  C   UNL     1       8.051   2.424  -1.440  0.00  0.00    +0.010 A 
ENDBRANCH   2  15
BRANCH   1  23
ATOM     21  C   UNL     1       5.697   5.994  -0.469  0.00  0.00    +0.217 C 
ATOM     22  O   UNL     1       4.500   6.113  -0.316  0.00  0.00    -0.275 OA
ATOM     23  N   UNL     1       6.250   4.766  -0.527  0.00  0.00    -0.278 N 
ATOM     24  H   UNL     1       7.336   4.658  -0.666  0.00  0.00    +0.155 HD
BRANCH  21  26
ATOM     25  C   UNL     1       5.696   8.473  -0.496  0.00  0.00    +0.013 C 
ATOM     26  C   UNL     1       6.566   7.218  -0.594  0.00  0.00    +0.093 C 
ENDBRANCH  21  26
ENDBRANCH   1  23
BRANCH   3  27
ATOM     27  C   UNL     1       5.211  -0.055  -0.164  0.00  0.00    +0.151 C 
BRANCH  27  28
ATOM     28  C   UNL     1       5.385  -0.598  -1.559  0.00  0.00    -0.013 C 
ATOM     29  C   UNL     1       6.532  -1.114  -1.922  0.00  0.00    +0.005 C 
ENDBRANCH  27  28
ENDBRANCH   3  27
TORSDOF 6
