REMARK  Name = ZINC64540093
REMARK  8 active torsions:
REMARK  status: ('A' for Active; 'I' for Inactive)
REMARK    1  A    between atoms: C_1  and  O_2
REMARK    2  A    between atoms: O_2  and  C_3
REMARK    3  A    between atoms: C_9  and  C_12
REMARK    4  A    between atoms: C_12  and  C_13
REMARK    5  A    between atoms: C_13  and  N_14
REMARK    6  A    between atoms: C_15  and  C_17
REMARK    7  A    between atoms: C_21  and  N_23
REMARK    8  A    between atoms: C_24  and  C_26
REMARK                            x       y       z     vdW  Elec       q    Type
REMARK                         _______ _______ _______ _____ _____    ______ ____
ROOT
ATOM      1  C   UNL     1      -2.449  -8.454  -0.889  0.00  0.00    +0.038 A 
ATOM      2  C   UNL     1      -1.571  -9.032   0.029  0.00  0.00    +0.013 A 
ATOM      3  C   UNL     1      -1.897 -10.227   0.637  0.00  0.00    +0.003 A 
ATOM      4  C   UNL     1      -3.091 -10.856   0.340  0.00  0.00    +0.023 A 
ATOM      5  C   UNL     1      -3.972 -10.289  -0.574  0.00  0.00    +0.034 A 
ATOM      6  C   UNL     1      -3.656  -9.086  -1.185  0.00  0.00    +0.036 A 
ENDROOT
BRANCH   1   8
ATOM      7  N   UNL     1      -0.934  -6.565  -1.255  0.00  0.00    -0.311 N 
ATOM      8  C   UNL     1      -2.102  -7.174  -1.542  0.00  0.00    +0.244 C 
ATOM      9  O   UNL     1      -2.869  -6.670  -2.339  0.00  0.00    -0.270 OA
ATOM     10  H   UNL     1      -0.321  -6.968  -0.620  0.00  0.00    +0.149 HD
BRANCH   7  11
ATOM     11  C   UNL     1      -0.590  -5.297  -1.902  0.00  0.00    +0.109 C 
BRANCH  11  12
ATOM     12  C   UNL     1       0.777  -4.824  -1.404  0.00  0.00    +0.052 C 
BRANCH  12  19
ATOM     13  C   UNL     1       0.262  -0.448  -0.109  0.00  0.00    +0.121 A 
ATOM     14  C   UNL     1       0.735   0.495  -1.039  0.00  0.00    +0.047 A 
ATOM     15  C   UNL     1       1.294   0.138  -2.216  0.00  0.00    +0.029 A 
ATOM     16  C   UNL     1       1.424  -1.282  -2.559  0.00  0.00    +0.043 A 
ATOM     17  N   UNL     1       1.916  -1.887  -3.611  0.00  0.00    -0.380 N 
ATOM     18  C   UNL     1       1.787  -3.336  -3.420  0.00  0.00    +0.144 C 
ATOM     19  C   UNL     1       1.131  -3.519  -2.069  0.00  0.00    -0.040 C 
ATOM     20  C   UNL     1       0.926  -2.276  -1.580  0.00  0.00    +0.002 A 
ATOM     21  C   UNL     1       0.340  -1.782  -0.329  0.00  0.00    +0.055 A 
ATOM     22  H   UNL     1       2.300  -1.450  -4.387  0.00  0.00    +0.160 HD
BRANCH  13  24
ATOM     23  C   UNL     1      -0.350   1.410   1.242  0.00  0.00    +0.277 C 
ATOM     24  O   UNL     1      -0.288  -0.005   1.052  0.00  0.00    -0.495 OA
ENDBRANCH  13  24
ENDBRANCH  12  19
ENDBRANCH  11  12
ENDBRANCH   7  11
ENDBRANCH   1   8
BRANCH   5  25
ATOM     25  N   UNL     1      -5.180 -10.930  -0.871  0.00  0.00    -0.284 N 
ATOM     26  C   UNL     1      -5.703 -10.840  -2.110  0.00  0.00    +0.240 C 
ATOM     27  O   UNL     1      -5.082 -10.285  -2.992  0.00  0.00    -0.273 OA
ATOM     28  H   UNL     1      -5.641 -11.439  -0.186  0.00  0.00    +0.155 HD
BRANCH  26  29
ATOM     29  C   UNL     1      -7.060 -11.428  -2.400  0.00  0.00    +0.182 C 
ATOM     30  C   UNL     1      -6.921 -12.921  -2.545  0.00  0.00    -0.006 A 
ATOM     31  C   UNL     1      -6.829 -13.876  -1.532  0.00  0.00    +0.007 A 
ATOM     32  C   UNL     1      -6.688 -15.213  -1.831  0.00  0.00    +0.000 A 
ATOM     33  C   UNL     1      -6.635 -15.646  -3.143  0.00  0.00    +0.001 A 
ATOM     34  C   UNL     1      -6.732 -14.718  -4.164  0.00  0.00    +0.016 A 
ATOM     35  C   UNL     1      -6.880 -13.380  -3.861  0.00  0.00    +0.028 A 
ATOM     36  S   UNL     1      -7.072 -11.932  -4.873  0.00  0.00    -0.043 S 
ATOM     37  N   UNL     1      -7.611 -10.783  -3.614  0.00  0.00    -0.243 NA
ATOM     38  H   UNL     1      -8.618 -10.738  -3.575  0.00  0.00    +0.137 HD
ENDBRANCH  26  29
ENDBRANCH   5  25
TORSDOF 7
