REMARK  Name = ZINC08381119
REMARK  7 active torsions:
REMARK  status: ('A' for Active; 'I' for Inactive)
REMARK    1  A    between atoms: C_4  and  C_7
REMARK    2  A    between atoms: C_7  and  C_8
REMARK    3  A    between atoms: C_8  and  C_9
REMARK    4  A    between atoms: N_11  and  C_12
REMARK    5  A    between atoms: C_12  and  N_14
REMARK    6  A    between atoms: N_14  and  C_15
REMARK    7  A    between atoms: C_16  and  C_24
REMARK                            x       y       z     vdW  Elec       q    Type
REMARK                         _______ _______ _______ _____ _____    ______ ____
ROOT
ATOM      1  N   UNL     1       2.279   4.230   0.003  0.00  0.00    -0.291 N 
ATOM      2  H   UNL     1       3.126   3.756  -0.008  0.00  0.00    +0.154 HD
ENDROOT
BRANCH   1   3
ATOM      3  C   UNL     1       2.260   5.615   0.011  0.00  0.00    +0.084 A 
ATOM      4  C   UNL     1       3.336   6.492   0.011  0.00  0.00    +0.068 A 
ATOM      5  C   UNL     1       3.042   7.916   0.017  0.00  0.00    -0.023 A 
ATOM      6  C   UNL     1       1.729   8.231   0.031  0.00  0.00    -0.004 A 
ATOM      7  S   UNL     1       0.888   6.673   0.030  0.00  0.00    -0.077 S 
ATOM      8  C   UNL     1       1.130   9.604   0.046  0.00  0.00    +0.043 C 
ATOM      9  C   UNL     1       2.231  10.608   0.419  0.00  0.00    +0.005 C 
ATOM     10  C   UNL     1       3.471  10.319  -0.431  0.00  0.00    +0.005 C 
ATOM     11  C   UNL     1       4.110   9.002   0.012  0.00  0.00    +0.037 C 
BRANCH   4  12
ATOM     12  C   UNL     1       4.717   6.002   0.001  0.00  0.00    +0.244 C 
ATOM     13  O   UNL     1       5.286   5.804  -1.057  0.00  0.00    -0.270 OA
ATOM     14  N   UNL     1       5.358   5.769   1.164  0.00  0.00    -0.325 N 
ATOM     15  H   UNL     1       4.904   5.926   2.007  0.00  0.00    +0.145 HD
ATOM     16  H   UNL     1       6.272   5.444   1.158  0.00  0.00    +0.145 HD
ENDBRANCH   4  12
ENDBRANCH   1   3
BRANCH   1  17
ATOM     17  C   UNL     1       1.121   3.540   0.010  0.00  0.00    +0.141 C 
ATOM     18  S   UNL     1      -0.373   4.376   0.029  0.00  0.00    -0.018 S 
BRANCH  17  21
ATOM     19  C   UNL     1      -0.018   1.503   0.010  0.00  0.00    +0.219 C 
ATOM     20  O   UNL     1      -1.077   2.095   0.018  0.00  0.00    -0.275 OA
ATOM     21  N   UNL     1       1.139   2.192   0.003  0.00  0.00    -0.268 N 
ATOM     22  H   UNL     1       1.986   1.719  -0.008  0.00  0.00    +0.156 HD
BRANCH  19  23
ATOM     23  C   UNL     1       0.002  -0.004   0.002  0.00  0.00    +0.101 C 
BRANCH  23  24
ATOM     24  C   UNL     1      -1.433  -0.534   0.013  0.00  0.00    +0.044 C 
BRANCH  24  28
ATOM     25  C   UNL     1      -1.376  -4.805  -0.011  0.00  0.00    +0.000 A 
ATOM     26  C   UNL     1      -1.374  -4.120   1.190  0.00  0.00    +0.000 A 
ATOM     27  C   UNL     1      -1.392  -2.738   1.198  0.00  0.00    +0.003 A 
ATOM     28  C   UNL     1      -1.413  -2.041   0.005  0.00  0.00    -0.047 A 
ATOM     29  C   UNL     1      -1.421  -2.725  -1.196  0.00  0.00    +0.003 A 
ATOM     30  C   UNL     1      -1.397  -4.107  -1.204  0.00  0.00    +0.000 A 
ENDBRANCH  24  28
ENDBRANCH  23  24
ENDBRANCH  19  23
ENDBRANCH  17  21
ENDBRANCH   1  17
TORSDOF 7
