REMARK  Name = ZINC11840071
REMARK  9 active torsions:
REMARK  status: ('A' for Active; 'I' for Inactive)
REMARK    1  A    between atoms: C_1  and  C_2
REMARK    2  A    between atoms: C_2  and  O_3
REMARK    3  A    between atoms: O_3  and  C_4
REMARK    4  A    between atoms: C_9  and  N_12
REMARK    5  A    between atoms: C_13  and  C_15
REMARK    6  A    between atoms: C_23  and  C_24
REMARK    7  A    between atoms: C_23  and  N_66
REMARK    8  A    between atoms: C_24  and  C_31
REMARK    9  A    between atoms: C_25  and  C_26
REMARK                            x       y       z     vdW  Elec       q    Type
REMARK                         _______ _______ _______ _____ _____    ______ ____
ROOT
ATOM      1  C   UNL     1       6.888  -2.626   5.050  0.00  0.00    +0.082 C 
ATOM      2  C   UNL     1       6.673  -1.464   6.023  0.00  0.00    +0.020 C 
ATOM      3  C   UNL     1       6.412  -1.270   4.530  0.00  0.00    -0.021 C 
ATOM      4  C   UNL     1       7.407  -0.421   3.733  0.00  0.00    -0.011 C 
ATOM      5  C   UNL     1       7.208  -0.706   2.241  0.00  0.00    -0.078 C 
ATOM      6  C   UNL     1       4.902  -1.395   2.556  0.00  0.00    -0.078 C 
ATOM      7  C   UNL     1       4.956  -1.154   4.068  0.00  0.00    -0.011 C 
ATOM      8  N   UNL     1       5.799  -0.428   1.886  0.00  0.00    +0.382 N 
ATOM      9  H   UNL     1       5.558   0.520   2.199  0.00  0.00    -0.081 HD
ENDROOT
BRANCH   1  11
ATOM     10  N   UNL     1       5.690  -4.507   3.980  0.00  0.00    -0.312 N 
ATOM     11  C   UNL     1       5.886  -3.751   5.079  0.00  0.00    +0.217 C 
ATOM     12  O   UNL     1       5.257  -3.977   6.090  0.00  0.00    -0.275 OA
ATOM     13  H   UNL     1       6.193  -4.326   3.171  0.00  0.00    +0.149 HD
BRANCH  10  19
ATOM     14  C   UNL     1       3.760  -9.377   2.706  0.00  0.00    +0.403 C 
ATOM     15  O   UNL     1       3.273  -9.511   1.601  0.00  0.00    -0.226 OA
ATOM     16  N   UNL     1       3.762  -8.168   3.300  0.00  0.00    -0.267 N 
ATOM     17  C   UNL     1       3.179  -7.001   2.623  0.00  0.00    +0.113 C 
ATOM     18  C   UNL     1       4.222  -5.880   2.586  0.00  0.00    +0.041 C 
ATOM     19  C   UNL     1       4.716  -5.601   4.008  0.00  0.00    +0.076 C 
ATOM     20  C   UNL     1       5.378  -6.858   4.575  0.00  0.00    +0.041 C 
ATOM     21  C   UNL     1       4.348  -7.990   4.635  0.00  0.00    +0.113 C 
BRANCH  14  22
ATOM     22  O   UNL     1       4.298 -10.438   3.337  0.00  0.00    -0.451 OA
BRANCH  22  24
ATOM     23  C   UNL     1       4.913 -12.788   3.505  0.00  0.00    +0.048 C 
ATOM     24  C   UNL     1       4.261 -11.710   2.638  0.00  0.00    +0.230 C 
ENDBRANCH  22  24
ENDBRANCH  14  22
ENDBRANCH  10  19
ENDBRANCH   1  11
BRANCH   8  25
ATOM     25  C   UNL     1       5.623  -0.509   0.422  0.00  0.00    -0.048 C 
BRANCH  25  26
ATOM     26  C   UNL     1       4.151  -0.497   0.101  0.00  0.00    -0.086 C 
ATOM     27  C   UNL     1       3.540   0.650  -0.180  0.00  0.00    +0.043 C 
ATOM     28  C   UNL     1       3.370  -1.786   0.099  0.00  0.00    +0.037 C 
BRANCH  27  29
ATOM     29  C   UNL     1       2.142   0.647  -0.634  0.00  0.00    +0.128 A 
ATOM     30  C   UNL     1       1.367   1.748  -0.845  0.00  0.00    +0.049 A 
ATOM     31  C   UNL     1       0.108   1.281  -1.270  0.00  0.00    +0.042 A 
ATOM     32  C   UNL     1       0.173  -0.065  -1.298  0.00  0.00    +0.195 A 
ATOM     33  O   UNL     1       1.403  -0.445  -0.913  0.00  0.00    -0.464 OA
ENDBRANCH  27  29
ENDBRANCH  25  26
ENDBRANCH   8  25
TORSDOF 7
