REMARK  Name = ZINC35886335
REMARK  9 active torsions:
REMARK  status: ('A' for Active; 'I' for Inactive)
REMARK    1  A    between atoms: C_1  and  C_2
REMARK    2  A    between atoms: C_2  and  C_3
REMARK    3  A    between atoms: C_3  and  C_5
REMARK    4  A    between atoms: C_3  and  C_11
REMARK    5  A    between atoms: C_15  and  C_27
REMARK    6  A    between atoms: C_17  and  C_20
REMARK    7  A    between atoms: C_27  and  N_28
REMARK    8  A    between atoms: C_31  and  C_34
REMARK    9  A    between atoms: C_34  and  C_35
REMARK                            x       y       z     vdW  Elec       q    Type
REMARK                         _______ _______ _______ _____ _____    ______ ____
ROOT
ATOM      1  C   UNL     1       0.457  -1.491  -1.310  0.00  0.00    +0.223 C 
ATOM      2  O   UNL     1       1.545  -1.980  -1.531  0.00  0.00    -0.275 OA
ATOM      3  N   UNL     1      -0.662  -2.204  -1.545  0.00  0.00    -0.300 N 
ATOM      4  C   UNL     1      -0.765  -3.622  -1.964  0.00  0.00    +0.110 C 
ATOM      5  C   UNL     1      -1.961  -4.179  -1.162  0.00  0.00    -0.001 C 
ATOM      6  C   UNL     1      -2.820  -2.944  -0.819  0.00  0.00    +0.039 C 
ATOM      7  C   UNL     1      -2.068  -1.751  -1.436  0.00  0.00    +0.116 C 
ENDROOT
BRANCH   6   8
ATOM      8  C   UNL     1      -4.194  -3.076  -1.425  0.00  0.00    -0.040 A 
ATOM      9  C   UNL     1      -5.284  -3.334  -0.615  0.00  0.00    +0.004 A 
ATOM     10  C   UNL     1      -6.545  -3.455  -1.170  0.00  0.00    +0.003 A 
ATOM     11  C   UNL     1      -6.716  -3.318  -2.535  0.00  0.00    +0.038 A 
ATOM     12  C   UNL     1      -5.624  -3.060  -3.346  0.00  0.00    +0.124 A 
ATOM     13  C   UNL     1      -4.363  -2.933  -2.789  0.00  0.00    +0.042 A 
ATOM     14  F   UNL     1      -5.790  -2.926  -4.680  0.00  0.00    -0.205 F 
ENDBRANCH   6   8
BRANCH   1  15
ATOM     15  C   UNL     1       0.357  -0.087  -0.772  0.00  0.00    +0.105 C 
BRANCH  15  16
ATOM     16  C   UNL     1       0.180   0.877  -1.917  0.00  0.00    -0.036 A 
ATOM     17  C   UNL     1       1.142   0.961  -2.906  0.00  0.00    +0.004 A 
ATOM     18  C   UNL     1       0.979   1.845  -3.956  0.00  0.00    +0.000 A 
ATOM     19  C   UNL     1      -0.146   2.646  -4.017  0.00  0.00    +0.000 A 
ATOM     20  C   UNL     1      -1.109   2.562  -3.028  0.00  0.00    +0.000 A 
ATOM     21  C   UNL     1      -0.948   1.674  -1.981  0.00  0.00    +0.004 A 
ENDBRANCH  15  16
BRANCH  15  23
ATOM     22  C   UNL     1       1.486   1.636   0.642  0.00  0.00    +0.005 C 
ATOM     23  C   UNL     1       1.637   0.259  -0.008  0.00  0.00    +0.014 C 
ENDBRANCH  15  23
ENDBRANCH   1  15
BRANCH   5  24
ATOM     24  C   UNL     1      -2.761  -5.165  -2.016  0.00  0.00    -0.073 C 
BRANCH  24  25
ATOM     25  N   UNL     1      -1.936  -6.346  -2.303  0.00  0.00    +0.380 N 
ATOM     26  C   UNL     1      -1.645  -7.052  -1.050  0.00  0.00    -0.079 C 
ATOM     27  C   UNL     1      -0.719  -8.238  -1.332  0.00  0.00    -0.015 C 
ATOM     28  C   UNL     1      -1.406  -9.194  -2.311  0.00  0.00    -0.010 C 
ATOM     29  C   UNL     1      -1.773  -8.428  -3.585  0.00  0.00    -0.015 C 
ATOM     30  C   UNL     1      -2.659  -7.235  -3.219  0.00  0.00    -0.079 C 
ATOM     31  H   UNL     1      -1.071  -6.054  -2.732  0.00  0.00    -0.082 HD
BRANCH  28  32
ATOM     32  C   UNL     1      -0.455 -10.341  -2.659  0.00  0.00    +0.038 C 
BRANCH  32  33
ATOM     33  C   UNL     1      -1.174 -11.344  -3.524  0.00  0.00    -0.047 A 
ATOM     34  C   UNL     1      -1.862 -12.392  -2.941  0.00  0.00    +0.003 A 
ATOM     35  C   UNL     1      -2.521 -13.312  -3.734  0.00  0.00    +0.000 A 
ATOM     36  C   UNL     1      -2.492 -13.185  -5.110  0.00  0.00    +0.000 A 
ATOM     37  C   UNL     1      -1.805 -12.136  -5.693  0.00  0.00    +0.000 A 
ATOM     38  C   UNL     1      -1.149 -11.213  -4.900  0.00  0.00    +0.003 A 
ENDBRANCH  32  33
ENDBRANCH  28  32
ENDBRANCH  24  25
ENDBRANCH   5  24
TORSDOF 8
