REMARK  Name = ZINC59170570
REMARK  6 active torsions:
REMARK  status: ('A' for Active; 'I' for Inactive)
REMARK    1  A    between atoms: C_1  and  C_2
REMARK    2  A    between atoms: C_5  and  S_8
REMARK    3  A    between atoms: S_8  and  N_11
REMARK    4  A    between atoms: N_11  and  N_12
REMARK    5  A    between atoms: C_14  and  C_23
REMARK    6  A    between atoms: N_25  and  C_26
REMARK                            x       y       z     vdW  Elec       q    Type
REMARK                         _______ _______ _______ _____ _____    ______ ____
ROOT
ATOM      1  N   UNL     1       2.848  -4.144   0.293  0.00  0.00    -0.260 N 
ATOM      2  C   UNL     1       4.067  -4.604   0.324  0.00  0.00    +0.225 A 
ATOM      3  C   UNL     1       4.929  -4.403   1.512  0.00  0.00    +0.099 A 
ATOM      4  C   UNL     1       5.922  -5.327   1.731  0.00  0.00    +0.030 A 
ATOM      5  C   UNL     1       6.046  -6.433   0.774  0.00  0.00    +0.018 A 
ATOM      6  C   UNL     1       6.841  -7.545   1.067  0.00  0.00    +0.011 A 
ATOM      7  C   UNL     1       6.939  -8.573   0.154  0.00  0.00    +0.001 A 
ATOM      8  C   UNL     1       6.255  -8.509  -1.049  0.00  0.00    +0.004 A 
ATOM      9  C   UNL     1       5.465  -7.415  -1.352  0.00  0.00    +0.047 A 
ATOM     10  C   UNL     1       5.355  -6.371  -0.449  0.00  0.00    +0.137 A 
ATOM     11  O   UNL     1       4.587  -5.292  -0.734  0.00  0.00    -0.437 OA
ATOM     12  H   UNL     1       2.466  -3.729   1.082  0.00  0.00    +0.189 HD
ENDROOT
BRANCH   3  13
ATOM     13  C   UNL     1       4.730  -3.261   2.419  0.00  0.00    +0.253 C 
ATOM     14  O   UNL     1       3.799  -2.498   2.243  0.00  0.00    -0.270 OA
ATOM     15  N   UNL     1       5.580  -3.060   3.446  0.00  0.00    -0.280 N 
ATOM     16  H   UNL     1       6.360  -3.627   3.548  0.00  0.00    +0.155 HD
BRANCH  15  17
ATOM     17  C   UNL     1       5.337  -2.033   4.364  0.00  0.00    +0.052 A 
ATOM     18  C   UNL     1       4.064  -1.489   4.479  0.00  0.00    +0.025 A 
ATOM     19  C   UNL     1       3.828  -0.475   5.387  0.00  0.00    +0.002 A 
ATOM     20  C   UNL     1       4.856  -0.001   6.181  0.00  0.00    +0.002 A 
ATOM     21  C   UNL     1       6.125  -0.540   6.070  0.00  0.00    +0.022 A 
ATOM     22  C   UNL     1       6.367  -1.558   5.167  0.00  0.00    +0.062 A 
ATOM     23 CL   UNL     1       7.958  -2.239   5.032  0.00  0.00    -0.082 Cl
ENDBRANCH  15  17
ENDBRANCH   3  13
BRANCH   1  24
ATOM     24  N   UNL     1       2.089  -4.249  -0.880  0.00  0.00    -0.157 N 
ATOM     25  H   UNL     1       2.443  -4.729  -1.645  0.00  0.00    +0.194 HD
BRANCH  24  26
ATOM     26  S   UNL     1       0.589  -3.554  -0.961  0.00  0.00    +0.085 S 
ATOM     27  O   UNL     1      -0.141  -4.032   0.161  0.00  0.00    -0.149 OA
ATOM     28  O   UNL     1       0.133  -3.725  -2.296  0.00  0.00    -0.149 OA
BRANCH  26  33
ATOM     29  C   UNL     1       1.320   2.378  -0.136  0.00  0.00    +0.044 C 
ATOM     30  C   UNL     1       1.138   0.897  -0.342  0.00  0.00    -0.050 A 
ATOM     31  C   UNL     1       1.296   0.349  -1.601  0.00  0.00    +0.005 A 
ATOM     32  C   UNL     1       1.128  -1.010  -1.790  0.00  0.00    +0.029 A 
ATOM     33  C   UNL     1       0.803  -1.821  -0.720  0.00  0.00    +0.110 A 
ATOM     34  C   UNL     1       0.646  -1.274   0.540  0.00  0.00    +0.029 A 
ATOM     35  C   UNL     1       0.818   0.084   0.730  0.00  0.00    +0.005 A 
ENDBRANCH  26  33
ENDBRANCH  24  26
ENDBRANCH   1  24
TORSDOF 5
