REMARK  Name = ZINC09288980
REMARK  13 active torsions:
REMARK  status: ('A' for Active; 'I' for Inactive)
REMARK    1  A    between atoms: C_1  and  C_2
REMARK    2  A    between atoms: N_14  and  C_16
REMARK    3  A    between atoms: C_16  and  C_18
REMARK    4  A    between atoms: C_16  and  C_19
REMARK    5  A    between atoms: N_21  and  C_22
REMARK    6  A    between atoms: C_22  and  C_23
REMARK    7  A    between atoms: C_23  and  C_24
REMARK    8  A    between atoms: C_24  and  N_25
REMARK    9  A    between atoms: N_25  and  C_26
REMARK   10  A    between atoms: N_25  and  C_33
REMARK   11  A    between atoms: C_26  and  C_27
REMARK   12  A    between atoms: C_33  and  C_34
REMARK   13  A    between atoms: C_33  and  C_35
REMARK                            x       y       z     vdW  Elec       q    Type
REMARK                         _______ _______ _______ _____ _____    ______ ____
ROOT
ATOM      1  C   UNL     1       5.612  -2.247   1.896  0.00  0.00    +0.237 C 
ATOM      2  O   UNL     1       4.817  -1.371   1.627  0.00  0.00    -0.273 OA
ATOM      3  N   UNL     1       6.550  -2.604   0.998  0.00  0.00    -0.314 N 
ATOM      4  H   UNL     1       7.186  -3.305   1.213  0.00  0.00    +0.149 HD
ENDROOT
BRANCH   1   5
ATOM      5  C   UNL     1       5.549  -2.936   3.235  0.00  0.00    +0.193 C 
ATOM      6  C   UNL     1       6.870  -2.727   3.978  0.00  0.00    +0.043 C 
BRANCH   5  20
ATOM      7  C   UNL     1       3.525   0.991   5.364  0.00  0.00    +0.068 C 
ATOM      8  C   UNL     1       3.499  -0.479   5.036  0.00  0.00    +0.073 A 
ATOM      9  C   UNL     1       2.439  -1.276   5.484  0.00  0.00    +0.048 A 
ATOM     10  C   UNL     1       2.377  -2.643   5.202  0.00  0.00    +0.065 A 
ATOM     11  C   UNL     1       1.205  -3.364   5.735  0.00  0.00    +0.002 A 
ATOM     12  C   UNL     1       0.905  -4.737   5.594  0.00  0.00    +0.010 A 
ATOM     13  C   UNL     1      -0.231  -5.265   6.151  0.00  0.00    +0.001 A 
ATOM     14  C   UNL     1      -1.117  -4.473   6.867  0.00  0.00    +0.001 A 
ATOM     15  C   UNL     1      -0.851  -3.126   7.023  0.00  0.00    +0.015 A 
ATOM     16  C   UNL     1       0.290  -2.586   6.465  0.00  0.00    +0.021 A 
ATOM     17  S   UNL     1       0.978  -0.951   6.436  0.00  0.00    -0.086 S 
ATOM     18  C   UNL     1       3.456  -3.178   4.431  0.00  0.00    +0.277 A 
ATOM     19  O   UNL     1       3.473  -4.363   4.143  0.00  0.00    -0.265 OA
ATOM     20  N   UNL     1       4.451  -2.372   4.024  0.00  0.00    -0.217 N 
ATOM     21  N   UNL     1       4.462  -1.008   4.330  0.00  0.00    -0.172 NA
ENDBRANCH   5  20
ENDBRANCH   1   5
BRANCH   3  22
ATOM     22  C   UNL     1       6.611  -1.935  -0.304  0.00  0.00    +0.102 C 
BRANCH  22  23
ATOM     23  C   UNL     1       7.758  -2.523  -1.128  0.00  0.00    +0.000 C 
BRANCH  23  24
ATOM     24  C   UNL     1       7.822  -1.824  -2.487  0.00  0.00    -0.076 C 
BRANCH  24  25
ATOM     25  N   UNL     1       9.018  -2.272  -3.212  0.00  0.00    +0.384 N 
ATOM     26  H   UNL     1       9.839  -2.076  -2.660  0.00  0.00    -0.081 HD
BRANCH  25  27
ATOM     27  C   UNL     1       8.928  -3.716  -3.462  0.00  0.00    -0.074 C 
ATOM     28  C   UNL     1       7.857  -3.985  -4.522  0.00  0.00    -0.014 C 
ATOM     29  C   UNL     1      10.279  -4.234  -3.958  0.00  0.00    -0.014 C 
ENDBRANCH  25  27
BRANCH  25  30
ATOM     30  C   UNL     1       9.109  -1.559  -4.494  0.00  0.00    -0.043 C 
BRANCH  30  31
ATOM     31  C   UNL     1      10.389  -1.940  -5.191  0.00  0.00    -0.064 A 
ATOM     32  C   UNL     1      11.603  -1.760  -4.555  0.00  0.00    +0.002 A 
ATOM     33  C   UNL     1      12.777  -2.111  -5.195  0.00  0.00    +0.000 A 
ATOM     34  C   UNL     1      12.737  -2.641  -6.471  0.00  0.00    +0.000 A 
ATOM     35  C   UNL     1      11.523  -2.822  -7.107  0.00  0.00    +0.000 A 
ATOM     36  C   UNL     1      10.348  -2.476  -6.465  0.00  0.00    +0.002 A 
ENDBRANCH  30  31
ENDBRANCH  25  30
ENDBRANCH  24  25
ENDBRANCH  23  24
ENDBRANCH  22  23
ENDBRANCH   3  22
TORSDOF 9
