REMARK  Name = ZINC18244990
REMARK  9 active torsions:
REMARK  status: ('A' for Active; 'I' for Inactive)
REMARK    1  A    between atoms: C_1  and  C_2
REMARK    2  A    between atoms: C_6  and  N_9
REMARK    3  A    between atoms: C_7  and  C_8
REMARK    4  A    between atoms: C_10  and  C_12
REMARK    5  A    between atoms: C_12  and  O_13
REMARK    6  A    between atoms: O_13  and  C_14
REMARK    7  A    between atoms: C_14  and  C_16
REMARK    8  A    between atoms: C_20  and  N_22
REMARK    9  A    between atoms: C_29  and  C_36
REMARK                            x       y       z     vdW  Elec       q    Type
REMARK                         _______ _______ _______ _____ _____    ______ ____
ROOT
ATOM      1  C   UNL     1      -0.381  -8.583   4.279  0.00  0.00    +0.061 A 
ATOM      2  C   UNL     1      -0.358  -9.115   2.988  0.00  0.00    +0.015 A 
ATOM      3  C   UNL     1      -0.436 -10.480   2.803  0.00  0.00    +0.003 A 
ATOM      4  C   UNL     1      -0.537 -11.325   3.893  0.00  0.00    +0.024 A 
ATOM      5  C   UNL     1      -0.560 -10.806   5.181  0.00  0.00    +0.045 A 
ATOM      6  C   UNL     1      -0.476  -9.437   5.378  0.00  0.00    +0.039 A 
ENDROOT
BRANCH   5   7
ATOM      7  N   UNL     1      -0.663 -11.668   6.282  0.00  0.00    -0.210 N 
ATOM      8  C   UNL     1      -0.698 -11.232   7.571  0.00  0.00    +0.230 C 
ATOM      9  O   UNL     1      -0.861 -10.093   7.952  0.00  0.00    -0.275 OA
ATOM     10  C   UNL     1      -0.494 -12.445   8.421  0.00  0.00    +0.088 C 
ATOM     11  C   UNL     1      -1.171 -12.538   9.768  0.00  0.00    +0.014 C 
ATOM     12  C   UNL     1      -0.807 -13.915  10.353  0.00  0.00    +0.009 C 
ATOM     13  C   UNL     1      -1.199 -15.056   9.422  0.00  0.00    +0.020 C 
ATOM     14  C   UNL     1      -0.631 -14.860   8.002  0.00  0.00    +0.021 C 
ATOM     15  C   UNL     1      -1.149 -13.528   7.513  0.00  0.00    +0.088 C 
ATOM     16  C   UNL     1      -0.745 -13.021   6.167  0.00  0.00    +0.230 C 
ATOM     17  O   UNL     1      -0.530 -13.682   5.174  0.00  0.00    -0.275 OA
BRANCH  13  18
ATOM     18  C   UNL     1      -0.673 -16.352   9.984  0.00  0.00    -0.044 A 
ATOM     19  C   UNL     1       0.685 -16.518  10.182  0.00  0.00    +0.004 A 
ATOM     20  C   UNL     1       1.168 -17.706  10.698  0.00  0.00    +0.000 A 
ATOM     21  C   UNL     1       0.293 -18.728  11.016  0.00  0.00    +0.000 A 
ATOM     22  C   UNL     1      -1.065 -18.561  10.819  0.00  0.00    +0.000 A 
ATOM     23  C   UNL     1      -1.548 -17.371  10.308  0.00  0.00    +0.004 A 
ENDBRANCH  13  18
ENDBRANCH   5   7
BRANCH   1  24
ATOM     24  C   UNL     1      -0.298  -7.122   4.480  0.00  0.00    +0.340 C 
ATOM     25  O   UNL     1      -0.312  -6.662   5.604  0.00  0.00    -0.245 OA
BRANCH  24  26
ATOM     26  O   UNL     1      -0.205  -6.300   3.417  0.00  0.00    -0.452 OA
BRANCH  26  27
ATOM     27  C   UNL     1      -0.129  -4.898   3.686  0.00  0.00    +0.328 C 
BRANCH  27  29
ATOM     28  N   UNL     1       0.052  -2.797   2.393  0.00  0.00    -0.282 N 
ATOM     29  C   UNL     1      -0.031  -4.143   2.385  0.00  0.00    +0.255 C 
ATOM     30  O   UNL     1      -0.028  -4.745   1.333  0.00  0.00    -0.272 OA
ATOM     31  H   UNL     1       0.130  -2.321   3.234  0.00  0.00    +0.155 HD
BRANCH  28  37
ATOM     32  C   UNL     1       1.206   1.236  -0.172  0.00  0.00    +0.044 C 
ATOM     33  C   UNL     1       0.577  -0.131  -0.084  0.00  0.00    -0.046 A 
ATOM     34  C   UNL     1      -0.027  -0.686  -1.198  0.00  0.00    +0.004 A 
ATOM     35  C   UNL     1      -0.605  -1.940  -1.122  0.00  0.00    +0.002 A 
ATOM     36  C   UNL     1      -0.580  -2.642   0.067  0.00  0.00    +0.023 A 
ATOM     37  C   UNL     1       0.026  -2.088   1.187  0.00  0.00    +0.037 A 
ATOM     38  C   UNL     1       0.610  -0.831   1.106  0.00  0.00    -0.026 A 
ATOM     39  C   UNL     1       1.274  -0.228   2.317  0.00  0.00    +0.046 C 
ENDBRANCH  28  37
ENDBRANCH  27  29
ENDBRANCH  26  27
ENDBRANCH  24  26
ENDBRANCH   1  24
TORSDOF 7
