REMARK  Name = ZINC06136873
REMARK  11 active torsions:
REMARK  status: ('A' for Active; 'I' for Inactive)
REMARK    1  A    between atoms: C_1  and  C_2
REMARK    2  A    between atoms: C_3  and  C_32
REMARK    3  A    between atoms: C_4  and  C_25
REMARK    4  A    between atoms: C_10  and  C_15
REMARK    5  A    between atoms: C_18  and  O_23
REMARK    6  A    between atoms: C_19  and  O_21
REMARK    7  A    between atoms: O_21  and  C_22
REMARK    8  A    between atoms: O_23  and  C_24
REMARK    9  A    between atoms: C_28  and  O_31
REMARK   10  A    between atoms: C_32  and  O_34
REMARK   11  A    between atoms: O_34  and  C_35
REMARK                            x       y       z     vdW  Elec       q    Type
REMARK                         _______ _______ _______ _____ _____    ______ ____
ROOT
ATOM      1  C   UNL     1      -3.700   2.120  -0.508  0.00  0.00    +0.061 C 
ATOM      2  C   UNL     1      -2.432   1.352  -0.234  0.00  0.00    +0.031 C 
ATOM      3  C   UNL     1      -2.459   0.009  -0.199  0.00  0.00    +0.154 C 
ATOM      4  C   UNL     1      -1.220  -0.788   0.074  0.00  0.00    +0.073 C 
ATOM      5  C   UNL     1       0.019   0.048  -0.126  0.00  0.00    +0.025 C 
ATOM      6  C   UNL     1      -0.056   1.396  -0.160  0.00  0.00    +0.049 C 
ATOM      7  N   UNL     1      -1.263   2.027  -0.022  0.00  0.00    -0.260 NA
ATOM      8  C   UNL     1       1.181   2.238  -0.339  0.00  0.00    +0.064 C 
ATOM      9  C   UNL     1       2.198   1.477  -1.196  0.00  0.00    +0.032 C 
ATOM     10  C   UNL     1       2.525   0.153  -0.498  0.00  0.00    +0.088 C 
ATOM     11  C   UNL     1       1.250  -0.614  -0.280  0.00  0.00    +0.162 C 
ATOM     12  O   UNL     1       1.284  -1.828  -0.237  0.00  0.00    -0.292 OA
ENDROOT
BRANCH   9  13
ATOM     13  C   UNL     1       3.454   2.298  -1.340  0.00  0.00    -0.040 A 
ATOM     14  C   UNL     1       4.159   2.681  -0.215  0.00  0.00    +0.008 A 
ATOM     15  C   UNL     1       5.312   3.434  -0.342  0.00  0.00    +0.049 A 
ATOM     16  C   UNL     1       5.762   3.806  -1.598  0.00  0.00    +0.161 A 
ATOM     17  C   UNL     1       5.052   3.419  -2.731  0.00  0.00    +0.162 A 
ATOM     18  C   UNL     1       3.900   2.660  -2.597  0.00  0.00    +0.053 A 
BRANCH  17  19
ATOM     19  O   UNL     1       5.490   3.781  -3.966  0.00  0.00    -0.491 OA
ATOM     20  C   UNL     1       4.710   3.349  -5.083  0.00  0.00    +0.277 C 
ENDBRANCH  17  19
BRANCH  16  21
ATOM     21  O   UNL     1       6.895   4.547  -1.724  0.00  0.00    -0.491 OA
ATOM     22  C   UNL     1       7.572   4.907  -0.519  0.00  0.00    +0.277 C 
ENDBRANCH  16  21
ENDBRANCH   9  13
BRANCH   4  23
ATOM     23  C   UNL     1      -1.263  -1.276   1.500  0.00  0.00    -0.038 A 
ATOM     24  C   UNL     1      -1.291  -0.365   2.540  0.00  0.00    +0.008 A 
ATOM     25  C   UNL     1      -1.336  -0.809   3.847  0.00  0.00    +0.045 A 
ATOM     26  C   UNL     1      -1.341  -2.170   4.116  0.00  0.00    +0.117 A 
ATOM     27  C   UNL     1      -1.308  -3.082   3.071  0.00  0.00    +0.045 A 
ATOM     28  C   UNL     1      -1.269  -2.633   1.765  0.00  0.00    +0.008 A 
BRANCH  26  29
ATOM     29  O   UNL     1      -1.379  -2.610   5.402  0.00  0.00    -0.507 OA
ATOM     30  H   UNL     1      -0.507  -2.735   5.800  0.00  0.00    +0.292 HD
ENDBRANCH  26  29
ENDBRANCH   4  23
BRANCH   3  31
ATOM     31  C   UNL     1      -3.681  -0.666  -0.431  0.00  0.00    +0.317 C 
ATOM     32  O   UNL     1      -3.869  -1.238  -1.488  0.00  0.00    -0.250 OA
BRANCH  31  33
ATOM     33  O   UNL     1      -4.636  -0.677   0.522  0.00  0.00    -0.461 OA
BRANCH  33  34
ATOM     34  C   UNL     1      -5.845  -1.378   0.220  0.00  0.00    +0.176 C 
ATOM     35  C   UNL     1      -6.883  -0.408  -0.380  0.00  0.00    +0.044 C 
ATOM     36  C   UNL     1      -8.234  -0.889   0.204  0.00  0.00    +0.004 C 
ATOM     37  C   UNL     1      -7.857  -1.292   1.651  0.00  0.00    +0.004 C 
ATOM     38  C   UNL     1      -6.464  -1.941   1.512  0.00  0.00    +0.044 C 
ENDBRANCH  33  34
ENDBRANCH  31  33
ENDBRANCH   3  31
TORSDOF 8
