REMARK  Name = ZINC34835348
REMARK  15 active torsions:
REMARK  status: ('A' for Active; 'I' for Inactive)
REMARK    1  A    between atoms: C_1  and  C_2
REMARK    2  A    between atoms: C_2  and  C_3
REMARK    3  A    between atoms: C_4  and  C_24
REMARK    4  A    between atoms: C_5  and  N_15
REMARK    5  A    between atoms: N_6  and  C_8
REMARK    6  A    between atoms: N_18  and  C_21
REMARK    7  A    between atoms: C_21  and  C_22
REMARK    8  A    between atoms: C_21  and  C_23
REMARK    9  A    between atoms: C_24  and  N_25
REMARK   10  A    between atoms: N_25  and  C_26
REMARK   11  A    between atoms: C_26  and  C_27
REMARK   12  A    between atoms: C_27  and  C_28
REMARK   13  A    between atoms: C_27  and  C_29
REMARK   14  A    between atoms: C_30  and  C_32
REMARK   15  A    between atoms: C_32  and  C_33
REMARK                            x       y       z     vdW  Elec       q    Type
REMARK                         _______ _______ _______ _____ _____    ______ ____
ROOT
ATOM      1  C   UNL     1       0.027   0.298  -1.068  0.00  0.00    +0.070 A 
ATOM      2  C   UNL     1      -0.188  -0.172  -2.366  0.00  0.00    +0.033 A 
ATOM      3  C   UNL     1       0.965  -0.756  -2.796  0.00  0.00    +0.130 A 
ATOM      4  N   UNL     1       1.875  -0.651  -1.790  0.00  0.00    -0.218 N 
ATOM      5  N   UNL     1       1.259   0.019  -0.725  0.00  0.00    -0.169 NA
ENDROOT
BRANCH   4   6
ATOM      6  C   UNL     1       3.194  -1.124  -1.816  0.00  0.00    +0.068 A 
ATOM      7  C   UNL     1       3.465  -2.404  -2.282  0.00  0.00    +0.030 A 
ATOM      8  C   UNL     1       4.765  -2.868  -2.308  0.00  0.00    +0.040 A 
ATOM      9  C   UNL     1       5.799  -2.058  -1.869  0.00  0.00    +0.124 A 
ATOM     10  C   UNL     1       5.532  -0.781  -1.405  0.00  0.00    +0.040 A 
ATOM     11  C   UNL     1       4.233  -0.311  -1.382  0.00  0.00    +0.030 A 
ATOM     12  F   UNL     1       7.071  -2.513  -1.895  0.00  0.00    -0.205 F 
ENDBRANCH   4   6
BRANCH   3  13
ATOM     13  N   UNL     1       1.174  -1.351  -4.037  0.00  0.00    -0.318 N 
ATOM     14  C   UNL     1       1.474  -0.537  -5.225  0.00  0.00    +0.088 C 
ATOM     15  C   UNL     1       2.717  -1.115  -5.909  0.00  0.00    -0.059 C 
ATOM     16  N   UNL     1       2.502  -2.541  -6.189  0.00  0.00    +0.383 N 
ATOM     17  C   UNL     1       2.363  -3.282  -4.929  0.00  0.00    -0.059 C 
ATOM     18  C   UNL     1       1.107  -2.812  -4.196  0.00  0.00    +0.088 C 
ATOM     19  H   UNL     1       1.663  -2.651  -6.738  0.00  0.00    -0.081 HD
BRANCH  16  20
ATOM     20  C   UNL     1       3.648  -3.068  -6.942  0.00  0.00    -0.075 C 
ATOM     21  C   UNL     1       3.426  -4.553  -7.235  0.00  0.00    -0.014 C 
ATOM     22  C   UNL     1       3.788  -2.304  -8.260  0.00  0.00    -0.014 C 
ENDBRANCH  16  20
ENDBRANCH   3  13
BRANCH   1  24
ATOM     23  C   UNL     1      -0.944   2.511  -0.514  0.00  0.00    +0.010 C 
ATOM     24  C   UNL     1      -0.986   1.012  -0.211  0.00  0.00    +0.054 C 
ENDBRANCH   1  24
BRANCH   2  25
ATOM     25  C   UNL     1      -1.470  -0.055  -3.151  0.00  0.00    +0.148 C 
BRANCH  25  26
ATOM     26  N   UNL     1      -2.302  -1.235  -2.906  0.00  0.00    -0.296 N 
ATOM     27  C   UNL     1      -2.306  -2.253  -3.789  0.00  0.00    +0.220 C 
ATOM     28  O   UNL     1      -1.563  -2.227  -4.747  0.00  0.00    -0.275 OA
BRANCH  26  29
ATOM     29  C   UNL     1      -3.131  -1.309  -1.700  0.00  0.00    +0.111 C 
BRANCH  29  30
ATOM     30  C   UNL     1      -4.410  -0.495  -1.909  0.00  0.00    +0.000 C 
ATOM     31  C   UNL     1      -5.204  -1.085  -3.077  0.00  0.00    +0.009 C 
ATOM     32  C   UNL     1      -5.260  -0.545  -0.638  0.00  0.00    +0.009 C 
ENDBRANCH  29  30
ENDBRANCH  26  29
BRANCH  27  33
ATOM     33  C   UNL     1      -3.235  -3.422  -3.587  0.00  0.00    +0.131 C 
BRANCH  33  34
ATOM     34  C   UNL     1      -3.135  -4.353  -4.769  0.00  0.00    -0.038 A 
ATOM     35  C   UNL     1      -3.963  -4.174  -5.861  0.00  0.00    +0.007 A 
ATOM     36  C   UNL     1      -3.872  -5.026  -6.945  0.00  0.00    +0.038 A 
ATOM     37  C   UNL     1      -2.950  -6.060  -6.936  0.00  0.00    +0.123 A 
ATOM     38  C   UNL     1      -2.122  -6.238  -5.842  0.00  0.00    +0.038 A 
ATOM     39  C   UNL     1      -2.211  -5.381  -4.761  0.00  0.00    +0.007 A 
ATOM     40  F   UNL     1      -2.861  -6.894  -7.995  0.00  0.00    -0.205 F 
ENDBRANCH  33  34
ENDBRANCH  27  33
ENDBRANCH  25  26
ENDBRANCH   2  25
TORSDOF 10
