REMARK  Name = ZINC09312405
REMARK  18 active torsions:
REMARK  status: ('A' for Active; 'I' for Inactive)
REMARK    1  A    between atoms: C_1  and  C_2
REMARK    2  A    between atoms: C_2  and  C_3
REMARK    3  A    between atoms: C_3  and  O_4
REMARK    4  A    between atoms: O_4  and  C_5
REMARK    5  A    between atoms: C_8  and  C_14
REMARK    6  A    between atoms: C_10  and  O_11
REMARK    7  A    between atoms: O_11  and  C_12
REMARK    8  A    between atoms: C_12  and  C_13
REMARK    9  A    between atoms: C_17  and  C_18
REMARK   10  A    between atoms: C_17  and  O_29
REMARK   11  A    between atoms: C_25  and  C_28
REMARK   12  A    between atoms: N_34  and  C_35
REMARK   13  A    between atoms: C_35  and  C_36
REMARK   14  A    between atoms: C_36  and  N_79
REMARK   15  A    between atoms: C_37  and  C_38
REMARK   16  A    between atoms: C_37  and  N_79
REMARK   17  A    between atoms: C_39  and  C_40
REMARK   18  A    between atoms: C_39  and  N_79
REMARK                            x       y       z     vdW  Elec       q    Type
REMARK                         _______ _______ _______ _____ _____    ______ ____
ROOT
ATOM      1  C   UNL     1      -1.829   3.268   7.055  0.00  0.00    +0.144 C 
ATOM      2  C   UNL     1      -2.084   2.913   5.609  0.00  0.00    +0.071 C 
ATOM      3  C   UNL     1      -1.215   2.275   4.745  0.00  0.00    +0.133 C 
ATOM      4  C   UNL     1      -3.384   3.354   5.322  0.00  0.00    +0.249 C 
ATOM      5  O   UNL     1      -3.956   3.244   4.252  0.00  0.00    -0.282 OA
ATOM      6  C   UNL     1      -3.943   3.981   6.550  0.00  0.00    +0.288 C 
ATOM      7  O   UNL     1      -5.052   4.466   6.641  0.00  0.00    -0.266 OA
ATOM      8  N   UNL     1      -3.041   3.931   7.545  0.00  0.00    -0.285 N 
ENDROOT
BRANCH   3   9
ATOM      9  C   UNL     1      -1.572   2.116   3.327  0.00  0.00    +0.017 A 
ATOM     10  C   UNL     1      -2.055   3.206   2.593  0.00  0.00    +0.015 A 
ATOM     11  C   UNL     1      -2.392   3.054   1.267  0.00  0.00    +0.046 A 
ATOM     12  C   UNL     1      -2.258   1.813   0.642  0.00  0.00    +0.124 A 
ATOM     13  C   UNL     1      -1.769   0.733   1.375  0.00  0.00    -0.002 A 
ATOM     14  C   UNL     1      -1.433   0.871   2.698  0.00  0.00    +0.019 A 
ATOM     15  C   UNL     1      -1.725  -0.456   0.435  0.00  0.00    +0.083 C 
ATOM     16  C   UNL     1      -1.852   0.226  -0.948  0.00  0.00    +0.175 C 
ATOM     17  O   UNL     1      -2.538   1.450  -0.638  0.00  0.00    -0.488 OA
ATOM     18  C   UNL     1      -0.470   0.514  -1.539  0.00  0.00    +0.052 C 
ENDBRANCH   3   9
BRANCH   1  22
ATOM     19  C   UNL     1       1.501   5.937   7.340  0.00  0.00    +0.162 A 
ATOM     20  C   UNL     1       0.257   6.414   6.959  0.00  0.00    +0.050 A 
ATOM     21  C   UNL     1      -0.817   5.549   6.868  0.00  0.00    +0.009 A 
ATOM     22  C   UNL     1      -0.654   4.207   7.156  0.00  0.00    -0.019 A 
ATOM     23  C   UNL     1       0.583   3.725   7.542  0.00  0.00    +0.055 A 
ATOM     24  C   UNL     1       1.665   4.585   7.630  0.00  0.00    +0.162 A 
BRANCH  19  25
ATOM     25  O   UNL     1       2.559   6.786   7.431  0.00  0.00    -0.488 OA
BRANCH  25  26
ATOM     26  C   UNL     1       2.317   8.160   7.119  0.00  0.00    +0.229 C 
BRANCH  26  28
ATOM     27  C   UNL     1       3.354  10.425   6.941  0.00  0.00    +0.007 C 
ATOM     28  C   UNL     1       3.614   8.955   7.276  0.00  0.00    +0.038 C 
ENDBRANCH  26  28
ENDBRANCH  25  26
ENDBRANCH  19  25
BRANCH  24  29
ATOM     29  O   UNL     1       2.884   4.112   8.005  0.00  0.00    -0.489 OA
BRANCH  29  30
ATOM     30  C   UNL     1       2.978   2.714   8.287  0.00  0.00    +0.226 C 
ATOM     31  C   UNL     1       4.414   2.371   8.689  0.00  0.00    +0.048 C 
ENDBRANCH  29  30
ENDBRANCH  24  29
ENDBRANCH   1  22
BRANCH   3  32
ATOM     32  O   UNL     1      -0.037   1.799   5.202  0.00  0.00    -0.506 OA
ATOM     33  H   UNL     1       0.464   1.371   4.449  0.00  0.00    +0.292 HD
ENDBRANCH   3  32
BRANCH   8  34
ATOM     34  C   UNL     1      -3.239   4.450   8.900  0.00  0.00    +0.090 C 
BRANCH  34  35
ATOM     35  C   UNL     1      -3.834   3.352   9.785  0.00  0.00    -0.060 C 
BRANCH  35  36
ATOM     36  N   UNL     1      -4.007   3.884  11.153  0.00  0.00    +0.380 N 
ATOM     37  H   UNL     1      -3.121   4.299  11.464  0.00  0.00    -0.082 HD
BRANCH  36  38
ATOM     38  C   UNL     1      -5.055   4.927  11.160  0.00  0.00    -0.082 C 
ATOM     39  C   UNL     1      -6.403   4.336  10.743  0.00  0.00    -0.017 C 
ENDBRANCH  36  38
BRANCH  36  40
ATOM     40  C   UNL     1      -4.376   2.791  12.077  0.00  0.00    -0.082 C 
ATOM     41  C   UNL     1      -4.202   3.283  13.515  0.00  0.00    -0.017 C 
ENDBRANCH  36  40
ENDBRANCH  35  36
ENDBRANCH  34  35
ENDBRANCH   8  34
TORSDOF 13
