REMARK  Name = ZINC09713700
REMARK  10 active torsions:
REMARK  status: ('A' for Active; 'I' for Inactive)
REMARK    1  A    between atoms: C_1  and  C_2
REMARK    2  A    between atoms: C_15  and  C_17
REMARK    3  A    between atoms: C_17  and  S_18
REMARK    4  A    between atoms: S_18  and  C_19
REMARK    5  A    between atoms: C_22  and  C_31
REMARK    6  A    between atoms: N_23  and  C_24
REMARK    7  A    between atoms: C_31  and  C_33
REMARK    8  A    between atoms: C_31  and  N_61
REMARK    9  A    between atoms: C_34  and  N_61
REMARK   10  A    between atoms: C_35  and  N_61
REMARK                            x       y       z     vdW  Elec       q    Type
REMARK                         _______ _______ _______ _____ _____    ______ ____
ROOT
ATOM      1  S   UNL     1       2.099  -0.071  -2.539  0.00  0.00    -0.076 S 
ENDROOT
BRANCH   1   2
ATOM      2  C   UNL     1       2.893   0.303  -1.011  0.00  0.00    +0.197 A 
ATOM      3  N   UNL     1       4.066  -0.132  -0.614  0.00  0.00    -0.122 NA
ATOM      4  N   UNL     1       4.337   0.338   0.551  0.00  0.00    -0.135 NA
ATOM      5  C   UNL     1       3.364   1.102   0.963  0.00  0.00    +0.125 A 
ATOM      6  N   UNL     1       2.405   1.103  -0.015  0.00  0.00    -0.275 N 
BRANCH   6   7
ATOM      7  C   UNL     1       1.180   1.786   0.000  0.00  0.00    +0.050 A 
ATOM      8  C   UNL     1      -0.013   1.076   0.008  0.00  0.00    +0.029 A 
ATOM      9  C   UNL     1      -1.218   1.750   0.017  0.00  0.00    +0.040 A 
ATOM     10  C   UNL     1      -1.237   3.135   0.030  0.00  0.00    +0.124 A 
ATOM     11  C   UNL     1      -0.048   3.846   0.023  0.00  0.00    +0.040 A 
ATOM     12  C   UNL     1       1.159   3.174   0.008  0.00  0.00    +0.029 A 
ATOM     13  F   UNL     1      -2.417   3.793   0.045  0.00  0.00    -0.205 F 
ENDBRANCH   6   7
BRANCH   5  14
ATOM     14  C   UNL     1       3.304   1.843   2.274  0.00  0.00    -0.003 C 
ATOM     15  C   UNL     1       4.229   3.061   2.213  0.00  0.00    -0.005 C 
BRANCH  14  18
ATOM     16  C   UNL     1       5.157   0.604   3.220  0.00  0.00    -0.096 C 
ATOM     17  C   UNL     1       3.470   1.556   4.672  0.00  0.00    -0.096 C 
ATOM     18  N   UNL     1       3.722   0.929   3.358  0.00  0.00    +0.382 N 
ATOM     19  H   UNL     1       3.176   0.062   3.292  0.00  0.00    -0.082 HD
ENDBRANCH  14  18
ENDBRANCH   5  14
ENDBRANCH   1   2
BRANCH   1  20
ATOM     20  C   UNL     1       3.343  -1.154  -3.284  0.00  0.00    +0.173 C 
BRANCH  20  34
ATOM     21  C   UNL     1       3.907  -2.083  -7.785  0.00  0.00    +0.029 C 
ATOM     22  C   UNL     1       3.185  -2.883  -6.699  0.00  0.00    +0.087 C 
ATOM     23  C   UNL     1       3.498  -4.371  -6.871  0.00  0.00    +0.118 C 
ATOM     24  C   UNL     1       3.139  -5.124  -5.617  0.00  0.00    +0.219 C 
ATOM     25  O   UNL     1       2.138  -5.808  -5.592  0.00  0.00    -0.275 OA
ATOM     26  N   UNL     1       3.925  -5.043  -4.520  0.00  0.00    -0.284 N 
ATOM     27  C   UNL     1       5.035  -4.191  -4.500  0.00  0.00    +0.055 A 
ATOM     28  C   UNL     1       6.272  -4.643  -4.074  0.00  0.00    +0.025 A 
ATOM     29  C   UNL     1       7.354  -3.759  -4.041  0.00  0.00    +0.002 A 
ATOM     30  C   UNL     1       7.189  -2.441  -4.426  0.00  0.00    +0.002 A 
ATOM     31  C   UNL     1       5.957  -1.990  -4.863  0.00  0.00    +0.025 A 
ATOM     32  C   UNL     1       4.882  -2.862  -4.912  0.00  0.00    +0.058 A 
ATOM     33  N   UNL     1       3.634  -2.430  -5.382  0.00  0.00    -0.266 N 
ATOM     34  C   UNL     1       2.866  -1.611  -4.638  0.00  0.00    +0.230 C 
ATOM     35  O   UNL     1       1.790  -1.240  -5.058  0.00  0.00    -0.274 OA
ATOM     36  H   UNL     1       3.717  -5.581  -3.739  0.00  0.00    +0.155 HD
ENDBRANCH  20  34
ENDBRANCH   1  20
TORSDOF 6
