REMARK  Name = ZINC66084994
REMARK  12 active torsions:
REMARK  status: ('A' for Active; 'I' for Inactive)
REMARK    1  A    between atoms: C_1  and  C_2
REMARK    2  A    between atoms: C_2  and  C_3
REMARK    3  A    between atoms: C_3  and  C_5
REMARK    4  A    between atoms: C_3  and  N_6
REMARK    5  A    between atoms: C_7  and  C_9
REMARK    6  A    between atoms: C_13  and  N_15
REMARK    7  A    between atoms: N_15  and  C_16
REMARK    8  A    between atoms: C_16  and  C_17
REMARK    9  A    between atoms: N_19  and  C_20
REMARK   10  A    between atoms: C_23  and  C_26
REMARK   11  A    between atoms: N_28  and  C_29
REMARK   12  A    between atoms: C_29  and  C_30
REMARK                            x       y       z     vdW  Elec       q    Type
REMARK                         _______ _______ _______ _____ _____    ______ ____
ROOT
ATOM      1  C   UNL     1      -9.690   1.398  -4.805  0.00  0.00    +0.234 C 
ATOM      2  O   UNL     1     -10.151   1.133  -3.716  0.00  0.00    -0.274 OA
ATOM      3  N   UNL     1     -10.509   1.738  -5.820  0.00  0.00    -0.284 N 
ATOM      4  H   UNL     1     -10.137   2.014  -6.672  0.00  0.00    +0.155 HD
ENDROOT
BRANCH   3   5
ATOM      5  C   UNL     1     -11.892   1.691  -5.645  0.00  0.00    +0.033 A 
ATOM      6  C   UNL     1     -12.447   2.027  -4.414  0.00  0.00    +0.024 A 
ATOM      7  C   UNL     1     -13.812   1.982  -4.238  0.00  0.00    +0.015 A 
ATOM      8  C   UNL     1     -14.639   1.599  -5.297  0.00  0.00    +0.037 A 
ATOM      9  C   UNL     1     -14.078   1.263  -6.532  0.00  0.00    +0.015 A 
ATOM     10  C   UNL     1     -12.713   1.315  -6.703  0.00  0.00    +0.024 A 
BRANCH   8  11
ATOM     11  C   UNL     1     -16.103   1.549  -5.112  0.00  0.00    +0.244 C 
ATOM     12  O   UNL     1     -16.590   1.841  -4.037  0.00  0.00    -0.270 OA
ATOM     13  N   UNL     1     -16.899   1.179  -6.134  0.00  0.00    -0.304 N 
ATOM     14  H   UNL     1     -16.511   0.946  -6.992  0.00  0.00    +0.149 HD
BRANCH  13  15
ATOM     15  C   UNL     1     -18.352   1.130  -5.950  0.00  0.00    +0.179 C 
BRANCH  15  16
ATOM     16  C   UNL     1     -19.006   0.691  -7.235  0.00  0.00    +0.122 A 
ATOM     17  C   UNL     1     -19.277  -0.579  -7.586  0.00  0.00    +0.046 A 
ATOM     18  C   UNL     1     -19.888  -0.531  -8.860  0.00  0.00    +0.041 A 
ATOM     19  C   UNL     1     -19.953   0.766  -9.212  0.00  0.00    +0.195 A 
ATOM     20  O   UNL     1     -19.423   1.502  -8.221  0.00  0.00    -0.466 OA
ENDBRANCH  15  16
ENDBRANCH  13  15
ENDBRANCH   8  11
ENDBRANCH   3   5
BRANCH   1  21
ATOM     21  C   UNL     1      -8.200   1.349  -5.025  0.00  0.00    +0.198 C 
BRANCH  21  22
ATOM     22  N   UNL     1      -7.535   0.957  -3.779  0.00  0.00    -0.335 N 
ATOM     23  H   UNL     1      -8.062   0.778  -2.984  0.00  0.00    +0.147 HD
BRANCH  22  28
ATOM     24  C   UNL     1      -4.125   0.360  -2.518  0.00  0.00    +0.038 A 
ATOM     25  C   UNL     1      -3.377   0.621  -3.667  0.00  0.00    +0.013 A 
ATOM     26  C   UNL     1      -4.012   0.988  -4.836  0.00  0.00    +0.003 A 
ATOM     27  C   UNL     1      -5.389   1.099  -4.874  0.00  0.00    +0.023 A 
ATOM     28  C   UNL     1      -6.144   0.843  -3.735  0.00  0.00    +0.028 A 
ATOM     29  C   UNL     1      -5.515   0.467  -2.558  0.00  0.00    +0.036 A 
BRANCH  24  31
ATOM     30  N   UNL     1      -2.104  -0.135  -1.228  0.00  0.00    -0.309 N 
ATOM     31  C   UNL     1      -3.447  -0.033  -1.264  0.00  0.00    +0.244 C 
ATOM     32  O   UNL     1      -4.101  -0.264  -0.266  0.00  0.00    -0.270 OA
ATOM     33  H   UNL     1      -1.582   0.049  -2.025  0.00  0.00    +0.149 HD
BRANCH  30  34
ATOM     34  C   UNL     1      -1.432  -0.525   0.014  0.00  0.00    +0.070 C 
ATOM     35  C   UNL     1      -1.404  -2.051   0.122  0.00  0.00    +0.028 C 
BRANCH  34  37
ATOM     36  C   UNL     1      -0.027   1.541   0.027  0.00  0.00    +0.005 C 
ATOM     37  C   UNL     1       0.001   0.011   0.009  0.00  0.00    +0.018 C 
ENDBRANCH  34  37
ENDBRANCH  30  34
ENDBRANCH  24  31
ENDBRANCH  22  28
ENDBRANCH  21  22
ENDBRANCH   1  21
TORSDOF 10
