REMARK  Name = ZINC65204741
REMARK  9 active torsions:
REMARK  status: ('A' for Active; 'I' for Inactive)
REMARK    1  A    between atoms: C_1  and  C_2
REMARK    2  A    between atoms: C_3  and  C_25
REMARK    3  A    between atoms: C_6  and  C_13
REMARK    4  A    between atoms: N_15  and  N_16
REMARK    5  A    between atoms: N_19  and  C_20
REMARK    6  A    between atoms: C_20  and  C_21
REMARK    7  A    between atoms: C_21  and  C_22
REMARK    8  A    between atoms: C_22  and  O_23
REMARK    9  A    between atoms: O_23  and  C_24
REMARK                            x       y       z     vdW  Elec       q    Type
REMARK                         _______ _______ _______ _____ _____    ______ ____
ROOT
ATOM      1  C   UNL     1       0.060  -4.853  -1.374  0.00  0.00    +0.262 C 
ATOM      2  O   UNL     1       0.046  -4.251  -2.431  0.00  0.00    -0.269 OA
ATOM      3  N   UNL     1       0.079  -6.201  -1.367  0.00  0.00    -0.229 N 
ATOM      4  H   UNL     1       0.090  -6.681  -0.524  0.00  0.00    +0.173 HD
ENDROOT
BRANCH   1  10
ATOM      5  C   UNL     1      -0.018   1.503   0.010  0.00  0.00    +0.067 C 
ATOM      6  C   UNL     1       0.002  -0.004   0.002  0.00  0.00    +0.060 A 
ATOM      7  C   UNL     1       0.006  -0.688  -1.215  0.00  0.00    +0.060 A 
ATOM      8  N   UNL     1       0.023  -2.002  -1.245  0.00  0.00    -0.248 NA
ATOM      9  C   UNL     1       0.038  -2.690  -0.101  0.00  0.00    +0.102 A 
ATOM     10  C   UNL     1       0.057  -4.108  -0.101  0.00  0.00    +0.068 A 
ATOM     11  C   UNL     1       0.073  -4.787   1.107  0.00  0.00    +0.053 A 
ATOM     12  C   UNL     1       0.069  -4.090   2.313  0.00  0.00    +0.126 A 
ATOM     13  C   UNL     1       0.050  -2.726   2.337  0.00  0.00    +0.068 A 
ATOM     14  C   UNL     1       0.035  -1.998   1.134  0.00  0.00    +0.093 A 
ATOM     15  N   UNL     1       0.022  -0.660   1.140  0.00  0.00    -0.248 NA
ATOM     16  F   UNL     1       0.083  -4.775   3.477  0.00  0.00    -0.205 F 
ATOM     17  C   UNL     1      -0.011   0.087  -2.507  0.00  0.00    +0.067 C 
ENDBRANCH   1  10
BRANCH   3  18
ATOM     18  N   UNL     1       0.082  -6.908  -2.576  0.00  0.00    -0.218 N 
ATOM     19  C   UNL     1       0.101  -8.256  -2.568  0.00  0.00    +0.316 C 
ATOM     20  O   UNL     1       0.103  -8.870  -3.618  0.00  0.00    -0.251 OA
ATOM     21  N   UNL     1       0.116  -8.923  -1.397  0.00  0.00    -0.298 N 
ATOM     22  H   UNL     1       0.071  -6.428  -3.419  0.00  0.00    +0.174 HD
ATOM     23  H   UNL     1       0.114  -8.433  -0.560  0.00  0.00    +0.150 HD
BRANCH  21  24
ATOM     24  C   UNL     1       0.136 -10.387  -1.389  0.00  0.00    +0.108 C 
BRANCH  24  25
ATOM     25  C   UNL     1       0.151 -10.889   0.056  0.00  0.00    +0.047 C 
BRANCH  25  26
ATOM     26  C   UNL     1       0.172 -12.419   0.065  0.00  0.00    +0.161 C 
BRANCH  26  27
ATOM     27  O   UNL     1       0.186 -12.887   1.415  0.00  0.00    -0.383 OA
ATOM     28  C   UNL     1       0.206 -14.311   1.536  0.00  0.00    +0.193 C 
ENDBRANCH  26  27
ENDBRANCH  25  26
ENDBRANCH  24  25
ENDBRANCH  21  24
ENDBRANCH   3  18
TORSDOF 6
