REMARK  Name = ZINC39412691
REMARK  7 active torsions:
REMARK  status: ('A' for Active; 'I' for Inactive)
REMARK    1  A    between atoms: C_1  and  N_2
REMARK    2  A    between atoms: N_2  and  C_3
REMARK    3  A    between atoms: N_2  and  C_14
REMARK    4  A    between atoms: C_3  and  C_4
REMARK    5  A    between atoms: C_14  and  C_15
REMARK    6  A    between atoms: N_17  and  C_30
REMARK    7  A    between atoms: C_19  and  C_21
REMARK                            x       y       z     vdW  Elec       q    Type
REMARK                         _______ _______ _______ _____ _____    ______ ____
ROOT
ATOM      1  C   UNL     1      -0.106  -0.083  -2.424  0.00  0.00    -0.048 C 
ATOM      2  C   UNL     1       0.079   0.988  -3.170  0.00  0.00    +0.093 C 
ATOM      3  N   UNL     1      -0.826   1.047  -4.212  0.00  0.00    -0.242 N 
ATOM      4  N   UNL     1      -1.672  -0.025  -4.189  0.00  0.00    -0.225 NA
ATOM      5  C   UNL     1      -1.265  -0.844  -3.030  0.00  0.00    +0.129 C 
ATOM      6  H   UNL     1      -2.632   0.274  -4.106  0.00  0.00    +0.146 HD
ENDROOT
BRANCH   5   7
ATOM      7  C   UNL     1      -2.398  -0.953  -2.042  0.00  0.00    -0.021 A 
ATOM      8  C   UNL     1      -3.260   0.112  -1.859  0.00  0.00    +0.009 A 
ATOM      9  C   UNL     1      -4.300   0.017  -0.954  0.00  0.00    +0.050 A 
ATOM     10  C   UNL     1      -4.481  -1.149  -0.227  0.00  0.00    +0.166 A 
ATOM     11  C   UNL     1      -3.613  -2.222  -0.411  0.00  0.00    +0.167 A 
ATOM     12  C   UNL     1      -2.576  -2.121  -1.324  0.00  0.00    +0.055 A 
ATOM     13  O   UNL     1      -3.999  -3.240   0.412  0.00  0.00    -0.453 OA
ATOM     14  C   UNL     1      -4.860  -2.636   1.395  0.00  0.00    +0.466 C 
ATOM     15  O   UNL     1      -5.411  -1.495   0.711  0.00  0.00    -0.453 OA
ENDBRANCH   5   7
BRANCH   3  16
ATOM     16  C   UNL     1      -0.871   2.069  -5.163  0.00  0.00    +0.049 A 
ATOM     17  C   UNL     1      -1.826   2.041  -6.172  0.00  0.00    +0.025 A 
ATOM     18  C   UNL     1      -1.867   3.053  -7.111  0.00  0.00    +0.002 A 
ATOM     19  C   UNL     1      -0.958   4.093  -7.048  0.00  0.00    +0.000 A 
ATOM     20  C   UNL     1      -0.006   4.125  -6.045  0.00  0.00    +0.002 A 
ATOM     21  C   UNL     1       0.037   3.119  -5.100  0.00  0.00    +0.025 A 
ENDBRANCH   3  16
BRANCH   1  22
ATOM     22  C   UNL     1       0.690  -0.478  -1.207  0.00  0.00    -0.044 C 
BRANCH  22  24
ATOM     23  C   UNL     1      -0.018   1.465   0.010  0.00  0.00    -0.096 C 
ATOM     24  N   UNL     1       0.002  -0.004   0.002  0.00  0.00    +0.382 N 
ATOM     25  H   UNL     1      -0.945  -0.353   0.009  0.00  0.00    -0.082 HD
BRANCH  24  26
ATOM     26  C   UNL     1       0.713  -0.491   1.192  0.00  0.00    -0.045 C 
BRANCH  26  27
ATOM     27  C   UNL     1      -0.071  -0.103   2.448  0.00  0.00    +0.139 C 
ATOM     28  C   UNL     1       0.530  -0.744   3.672  0.00  0.00    -0.023 C 
ATOM     29  C   UNL     1      -0.435  -1.532   4.158  0.00  0.00    +0.064 C 
ATOM     30  C   UNL     1      -0.261  -2.377   5.400  0.00  0.00    +0.057 C 
ATOM     31  C   UNL     1       1.237  -2.505   5.697  0.00  0.00    +0.006 C 
ATOM     32  C   UNL     1       1.884  -1.116   5.694  0.00  0.00    +0.005 C 
ATOM     33  C   UNL     1       1.900  -0.570   4.259  0.00  0.00    +0.035 C 
ATOM     34  N   UNL     1      -1.538  -1.444   3.381  0.00  0.00    -0.159 NA
ATOM     35  N   UNL     1      -1.431  -0.676   2.414  0.00  0.00    -0.181 NA
ENDBRANCH  26  27
ENDBRANCH  24  26
ENDBRANCH  22  24
ENDBRANCH   1  22
TORSDOF 6
