REMARK  Name = ZINC09807510
REMARK  9 active torsions:
REMARK  status: ('A' for Active; 'I' for Inactive)
REMARK    1  A    between atoms: C_1  and  C_2
REMARK    2  A    between atoms: C_2  and  O_3
REMARK    3  A    between atoms: O_3  and  C_4
REMARK    4  A    between atoms: C_4  and  C_6
REMARK    5  A    between atoms: N_11  and  C_13
REMARK    6  A    between atoms: C_13  and  C_15
REMARK    7  A    between atoms: C_13  and  C_21
REMARK    8  A    between atoms: C_22  and  O_34
REMARK    9  A    between atoms: C_27  and  C_29
REMARK                            x       y       z     vdW  Elec       q    Type
REMARK                         _______ _______ _______ _____ _____    ______ ____
ROOT
ATOM      1  C   UNL     1       2.112  -5.935   3.546  0.00  0.00    +0.005 C 
ENDROOT
BRANCH   1   2
ATOM      2  C   UNL     1       0.665  -6.354   3.568  0.00  0.00    +0.045 A 
ATOM      3  C   UNL     1       0.001  -7.142   2.714  0.00  0.00    +0.225 A 
ATOM      4  N   UNL     1      -1.333  -7.413   2.903  0.00  0.00    -0.173 N 
ATOM      5  C   UNL     1      -1.936  -6.847   3.991  0.00  0.00    +0.199 A 
ATOM      6  S   UNL     1      -0.611  -5.936   4.747  0.00  0.00    -0.050 S 
ATOM      7  N   UNL     1      -3.191  -7.197   4.031  0.00  0.00    -0.197 NA
ATOM      8  C   UNL     1      -3.461  -7.995   2.989  0.00  0.00    +0.218 A 
ATOM      9  N   UNL     1      -2.367  -8.156   2.276  0.00  0.00    -0.138 NA
BRANCH   8  10
ATOM     10  C   UNL     1      -4.777  -8.598   2.689  0.00  0.00    +0.173 A 
ATOM     11  C   UNL     1      -5.914  -8.434   3.415  0.00  0.00    +0.053 A 
ATOM     12  C   UNL     1      -6.919  -9.183   2.770  0.00  0.00    +0.042 A 
ATOM     13  C   UNL     1      -6.351  -9.761   1.694  0.00  0.00    +0.196 A 
ATOM     14  O   UNL     1      -5.058  -9.401   1.644  0.00  0.00    -0.460 OA
ENDBRANCH   8  10
BRANCH   3  15
ATOM     15  O   UNL     1       0.653  -7.678   1.647  0.00  0.00    -0.492 OA
ATOM     16  H   UNL     1       0.096  -8.233   1.084  0.00  0.00    +0.294 HD
ENDBRANCH   3  15
ENDBRANCH   1   2
BRANCH   1  21
ATOM     17  C   UNL     1       1.516  -2.381   2.500  0.00  0.00    +0.081 C 
ATOM     18  C   UNL     1       2.967  -1.891   2.511  0.00  0.00    +0.011 C 
ATOM     19  C   UNL     1       3.706  -2.541   3.684  0.00  0.00    -0.018 C 
ATOM     20  C   UNL     1       3.608  -4.063   3.562  0.00  0.00    -0.077 C 
ATOM     21  N   UNL     1       2.198  -4.469   3.585  0.00  0.00    +0.388 N 
ATOM     22  C   UNL     1       1.499  -3.909   2.422  0.00  0.00    -0.063 C 
ATOM     23  H   UNL     1       1.765  -4.131   4.431  0.00  0.00    -0.080 HD
BRANCH  17  24
ATOM     24  C   UNL     1       0.801  -1.808   1.304  0.00  0.00    +0.308 C 
ATOM     25  O   UNL     1       0.324  -2.546   0.475  0.00  0.00    -0.251 OA
BRANCH  24  26
ATOM     26  O   UNL     1       0.693  -0.477   1.160  0.00  0.00    -0.465 OA
BRANCH  26  28
ATOM     27  C   UNL     1      -0.019   1.526   0.010  0.00  0.00    +0.048 C 
ATOM     28  C   UNL     1       0.002  -0.004   0.002  0.00  0.00    +0.229 C 
ENDBRANCH  26  28
ENDBRANCH  24  26
ENDBRANCH  17  24
ENDBRANCH   1  21
BRANCH   1  29
ATOM     29  C   UNL     1       2.821  -6.512   4.744  0.00  0.00    -0.056 A 
ATOM     30  C   UNL     1       2.695  -5.906   5.980  0.00  0.00    +0.002 A 
ATOM     31  C   UNL     1       3.345  -6.435   7.079  0.00  0.00    +0.000 A 
ATOM     32  C   UNL     1       4.121  -7.571   6.942  0.00  0.00    +0.000 A 
ATOM     33  C   UNL     1       4.246  -8.178   5.707  0.00  0.00    +0.000 A 
ATOM     34  C   UNL     1       3.593  -7.651   4.608  0.00  0.00    +0.002 A 
ENDBRANCH   1  29
TORSDOF 8
