REMARK  Name = ZINC48787920
REMARK  6 active torsions:
REMARK  status: ('A' for Active; 'I' for Inactive)
REMARK    1  A    between atoms: C_3  and  N_8
REMARK    2  A    between atoms: C_9  and  C_11
REMARK    3  A    between atoms: C_11  and  O_12
REMARK    4  A    between atoms: O_12  and  C_13
REMARK    5  A    between atoms: C_14  and  C_20
REMARK    6  A    between atoms: C_20  and  N_21
REMARK                            x       y       z     vdW  Elec       q    Type
REMARK                         _______ _______ _______ _____ _____    ______ ____
ROOT
ATOM      1  O   UNL     1       7.299   1.070   0.274  0.00  0.00    -0.481 OA
ENDROOT
BRANCH   1   2
ATOM      2  C   UNL     1       8.465   1.738   0.476  0.00  0.00    +0.136 A 
ATOM      3  C   UNL     1       8.820   2.147   1.753  0.00  0.00    -0.022 A 
ATOM      4  C   UNL     1      10.006   2.826   1.955  0.00  0.00    +0.005 A 
ATOM      5  C   UNL     1      10.839   3.099   0.886  0.00  0.00    +0.002 A 
ATOM      6  C   UNL     1      10.489   2.693  -0.388  0.00  0.00    +0.019 A 
ATOM      7  C   UNL     1       9.306   2.008  -0.595  0.00  0.00    +0.060 A 
ATOM      8 BR   UNL     1       8.831   1.445  -2.337  0.00  0.00    -0.047 Br
BRANCH   3   9
ATOM      9  C   UNL     1       7.912   1.851   2.919  0.00  0.00    -0.047 C 
BRANCH   9  10
ATOM     10  N   UNL     1       8.070   0.446   3.318  0.00  0.00    +0.381 N 
ATOM     11  H   UNL     1       7.899  -0.151   2.523  0.00  0.00    -0.090 HD
ATOM     12  H   UNL     1       9.009   0.296   3.655  0.00  0.00    -0.090 HD
ATOM     13  H   UNL     1       7.411   0.228   4.050  0.00  0.00    -0.090 HD
ENDBRANCH   9  10
ENDBRANCH   3   9
ENDBRANCH   1   2
BRANCH   1  14
ATOM     14  C   UNL     1       6.151   1.854  -0.059  0.00  0.00    +0.325 C 
BRANCH  14  16
ATOM     15  N   UNL     1       3.732   1.488  -0.422  0.00  0.00    -0.283 N 
ATOM     16  C   UNL     1       4.937   0.964  -0.122  0.00  0.00    +0.255 C 
ATOM     17  O   UNL     1       5.043  -0.224   0.097  0.00  0.00    -0.272 OA
ATOM     18  H   UNL     1       3.657   2.425  -0.663  0.00  0.00    +0.155 HD
BRANCH  15  21
ATOM     19  C   UNL     1       1.364  -1.143   0.573  0.00  0.00    +0.003 A 
ATOM     20  C   UNL     1       2.494  -0.349   0.539  0.00  0.00    +0.023 A 
ATOM     21  C   UNL     1       2.589   0.682  -0.386  0.00  0.00    +0.035 A 
ATOM     22  C   UNL     1       1.548   0.911  -1.276  0.00  0.00    +0.038 A 
ATOM     23  C   UNL     1       0.420   0.113  -1.237  0.00  0.00    +0.020 A 
ATOM     24  C   UNL     1       0.329  -0.913  -0.313  0.00  0.00    +0.015 A 
ATOM     25 BR   UNL     1      -0.999   0.423  -2.448  0.00  0.00    -0.050 Br
ENDBRANCH  15  21
ENDBRANCH  14  16
ENDBRANCH   1  14
TORSDOF 6
