REMARK  Name = ZINC02793338
REMARK  10 active torsions:
REMARK  status: ('A' for Active; 'I' for Inactive)
REMARK    1  A    between atoms: C_1  and  C_2
REMARK    2  A    between atoms: C_2  and  C_3
REMARK    3  A    between atoms: C_8  and  N_9
REMARK    4  A    between atoms: C_10  and  C_15
REMARK    5  A    between atoms: C_15  and  S_16
REMARK    6  A    between atoms: S_16  and  C_17
REMARK    7  A    between atoms: C_20  and  C_29
REMARK    8  A    between atoms: N_21  and  C_22
REMARK    9  A    between atoms: C_22  and  C_23
REMARK   10  A    between atoms: N_32  and  C_34
REMARK                            x       y       z     vdW  Elec       q    Type
REMARK                         _______ _______ _______ _____ _____    ______ ____
ROOT
ATOM      1  C   UNL     1      -0.011   0.003  -0.002  0.00  0.00    +0.192 A 
ATOM      2  N   UNL     1       1.054  -0.766  -0.012  0.00  0.00    -0.122 NA
ATOM      3  N   UNL     1       0.706  -2.003  -0.015  0.00  0.00    -0.127 NA
ATOM      4  C   UNL     1      -0.603  -2.100  -0.007  0.00  0.00    +0.185 A 
ATOM      5  N   UNL     1      -1.103  -0.818   0.007  0.00  0.00    -0.298 N 
ENDROOT
BRANCH   4   6
ATOM      6  C   UNL     1      -1.392  -3.351  -0.007  0.00  0.00    +0.130 A 
ATOM      7  C   UNL     1      -0.870  -4.661  -0.017  0.00  0.00    +0.052 A 
ATOM      8  C   UNL     1      -1.911  -5.521  -0.013  0.00  0.00    +0.108 A 
ATOM      9  N   UNL     1      -3.051  -4.797  -0.001  0.00  0.00    -0.274 N 
ATOM     10  N   UNL     1      -2.706  -3.439   0.008  0.00  0.00    -0.168 NA
ATOM     11  C   UNL     1      -4.413  -5.338   0.007  0.00  0.00    +0.172 C 
ENDBRANCH   4   6
BRANCH   1  12
ATOM     12  S   UNL     1      -0.029   1.765   0.007  0.00  0.00    -0.078 S 
BRANCH  12  13
ATOM     13  C   UNL     1       1.751   2.097  -0.003  0.00  0.00    +0.154 C 
BRANCH  13  15
ATOM     14  N   UNL     1       2.102   4.394  -1.098  0.00  0.00    -0.273 N 
ATOM     15  C   UNL     1       1.984   3.586   0.002  0.00  0.00    +0.149 A 
ATOM     16  N   UNL     1       2.111   4.344   1.055  0.00  0.00    -0.132 NA
ATOM     17  N   UNL     1       2.295   5.566   0.701  0.00  0.00    -0.121 NA
ATOM     18  C   UNL     1       2.295   5.657  -0.609  0.00  0.00    +0.207 A 
ATOM     19  S   UNL     1       2.511   7.126  -1.557  0.00  0.00    -0.009 SA
BRANCH  14  25
ATOM     20  C   UNL     1       3.191   3.639  -3.120  0.00  0.00    -0.024 A 
ATOM     21  C   UNL     1       3.122   3.253  -4.444  0.00  0.00    +0.005 A 
ATOM     22  C   UNL     1       1.905   3.244  -5.100  0.00  0.00    +0.000 A 
ATOM     23  C   UNL     1       0.752   3.615  -4.431  0.00  0.00    +0.002 A 
ATOM     24  C   UNL     1       0.815   3.997  -3.106  0.00  0.00    +0.026 A 
ATOM     25  C   UNL     1       2.035   4.007  -2.444  0.00  0.00    +0.053 A 
BRANCH  20  27
ATOM     26  C   UNL     1       4.712   2.335  -1.658  0.00  0.00    +0.009 C 
ATOM     27  C   UNL     1       4.519   3.655  -2.407  0.00  0.00    +0.034 C 
ENDBRANCH  20  27
ENDBRANCH  14  25
ENDBRANCH  13  15
ENDBRANCH  12  13
ENDBRANCH   1  12
BRANCH   5  28
ATOM     28  C   UNL     1      -2.512  -0.418   0.025  0.00  0.00    +0.157 C 
BRANCH  28  29
ATOM     29  C   UNL     1      -3.019  -0.273  -1.411  0.00  0.00    +0.138 C 
ATOM     30  C   UNL     1      -4.532   0.062  -1.415  0.00  0.00    +0.035 C 
ATOM     31  C   UNL     1      -4.670   0.778  -2.788  0.00  0.00    +0.031 C 
ATOM     32  C   UNL     1      -3.315   1.506  -2.918  0.00  0.00    +0.160 C 
ATOM     33  O   UNL     1      -2.384   0.844  -2.054  0.00  0.00    -0.375 OA
ENDBRANCH  28  29
ENDBRANCH   5  28
TORSDOF 8
