REMARK  Name = ZINC13569782
REMARK  7 active torsions:
REMARK  status: ('A' for Active; 'I' for Inactive)
REMARK    1  A    between atoms: C_1  and  C_2
REMARK    2  A    between atoms: C_7  and  N_8
REMARK    3  A    between atoms: C_9  and  C_11
REMARK    4  A    between atoms: C_12  and  C_30
REMARK    5  A    between atoms: C_15  and  C_28
REMARK    6  A    between atoms: C_19  and  C_21
REMARK    7  A    between atoms: C_24  and  O_27
REMARK                            x       y       z     vdW  Elec       q    Type
REMARK                         _______ _______ _______ _____ _____    ______ ____
ROOT
ATOM      1  C   UNL     1      -0.021  -0.384   5.029  0.00  0.00    +0.062 C 
ATOM      2  C   UNL     1       0.025  -1.001   6.247  0.00  0.00    +0.051 C 
ATOM      3  N   UNL     1      -0.035  -0.313   7.379  0.00  0.00    -0.234 NA
ATOM      4  C   UNL     1      -0.142   0.998   7.456  0.00  0.00    +0.157 C 
ATOM      5  C   UNL     1      -0.221   1.920   8.599  0.00  0.00    +0.108 C 
ATOM      6  C   UNL     1      -0.323   3.194   8.075  0.00  0.00    +0.110 C 
ATOM      7  N   UNL     1      -0.312   3.117   6.728  0.00  0.00    -0.268 N 
ATOM      8  N   UNL     1      -0.202   1.785   6.332  0.00  0.00    -0.224 N 
ATOM      9  C   UNL     1      -0.138   1.129   5.017  0.00  0.00    +0.162 C 
ATOM     10  C   UNL     1       0.146  -2.502   6.305  0.00  0.00    +0.066 C 
ATOM     11  H   UNL     1      -0.371   3.875   6.126  0.00  0.00    +0.170 HD
ENDROOT
BRANCH   9  12
ATOM     12  C   UNL     1       1.045   1.686   4.267  0.00  0.00    -0.021 A 
ATOM     13  C   UNL     1       2.298   1.677   4.851  0.00  0.00    +0.009 A 
ATOM     14  C   UNL     1       3.384   2.187   4.166  0.00  0.00    +0.046 A 
ATOM     15  C   UNL     1       3.216   2.708   2.891  0.00  0.00    +0.117 A 
ATOM     16  C   UNL     1       1.958   2.714   2.307  0.00  0.00    +0.046 A 
ATOM     17  C   UNL     1       0.876   2.199   2.994  0.00  0.00    +0.009 A 
BRANCH  15  18
ATOM     18  O   UNL     1       4.283   3.210   2.216  0.00  0.00    -0.507 OA
ATOM     19  H   UNL     1       4.748   2.558   1.674  0.00  0.00    +0.292 HD
ENDBRANCH  15  18
ENDBRANCH   9  12
BRANCH   1  21
ATOM     20  N   UNL     1       1.228  -1.595   3.395  0.00  0.00    -0.281 N 
ATOM     21  C   UNL     1       0.044  -1.122   3.832  0.00  0.00    +0.248 C 
ATOM     22  O   UNL     1      -0.971  -1.334   3.191  0.00  0.00    -0.270 OA
ATOM     23  H   UNL     1       2.024  -1.488   3.940  0.00  0.00    +0.155 HD
BRANCH  20  30
ATOM     24  C   UNL     1       3.483  -3.256   2.892  0.00  0.00    +0.045 C 
ATOM     25  C   UNL     1       2.393  -3.060   1.870  0.00  0.00    -0.029 A 
ATOM     26  C   UNL     1       2.467  -3.700   0.648  0.00  0.00    +0.005 A 
ATOM     27  C   UNL     1       1.468  -3.521  -0.290  0.00  0.00    +0.000 A 
ATOM     28  C   UNL     1       0.391  -2.700  -0.009  0.00  0.00    +0.002 A 
ATOM     29  C   UNL     1       0.310  -2.057   1.210  0.00  0.00    +0.023 A 
ATOM     30  C   UNL     1       1.310  -2.240   2.157  0.00  0.00    +0.037 A 
ENDBRANCH  20  30
ENDBRANCH   1  21
BRANCH   5  31
ATOM     31  C   UNL     1      -0.198   1.566   9.986  0.00  0.00    +0.104 C 
ATOM     32  N   UNL     1      -0.180   1.285  11.087  0.00  0.00    -0.191 NA
ENDBRANCH   5  31
TORSDOF 5
