REMARK  Name = ZINC39928926
REMARK  13 active torsions:
REMARK  status: ('A' for Active; 'I' for Inactive)
REMARK    1  A    between atoms: C_1  and  C_2
REMARK    2  A    between atoms: C_5  and  N_8
REMARK    3  A    between atoms: N_8  and  C_9
REMARK    4  A    between atoms: C_9  and  C_10
REMARK    5  A    between atoms: C_16  and  O_22
REMARK    6  A    between atoms: O_22  and  C_23
REMARK    7  A    between atoms: C_24  and  C_26
REMARK    8  A    between atoms: C_28  and  O_36
REMARK    9  A    between atoms: C_29  and  O_34
REMARK   10  A    between atoms: C_30  and  O_32
REMARK   11  A    between atoms: O_32  and  C_33
REMARK   12  A    between atoms: O_34  and  C_35
REMARK   13  A    between atoms: O_36  and  C_37
REMARK                            x       y       z     vdW  Elec       q    Type
REMARK                         _______ _______ _______ _____ _____    ______ ____
ROOT
ATOM      1  N   UNL     1      -0.214  -4.175  -0.067  0.00  0.00    -0.266 N 
ATOM      2  C   UNL     1       0.296  -4.882  -1.095  0.00  0.00    +0.251 C 
ATOM      3  O   UNL     1       0.595  -4.319  -2.131  0.00  0.00    -0.270 OA
ENDROOT
BRANCH   1   8
ATOM      4  C   UNL     1      -0.971   1.424  -0.576  0.00  0.00    +0.044 C 
ATOM      5  C   UNL     1      -0.770  -0.064  -0.441  0.00  0.00    -0.050 A 
ATOM      6  C   UNL     1      -0.105  -0.763  -1.432  0.00  0.00    +0.005 A 
ATOM      7  C   UNL     1       0.081  -2.126  -1.311  0.00  0.00    +0.024 A 
ATOM      8  C   UNL     1      -0.400  -2.794  -0.192  0.00  0.00    +0.037 A 
ATOM      9  C   UNL     1      -1.066  -2.089   0.801  0.00  0.00    +0.024 A 
ATOM     10  C   UNL     1      -1.245  -0.725   0.677  0.00  0.00    +0.005 A 
ENDBRANCH   1   8
BRANCH   2  11
ATOM     11  C   UNL     1       0.490  -6.339  -0.964  0.00  0.00    +0.044 A 
ATOM     12  C   UNL     1      -0.002  -7.202  -1.947  0.00  0.00    +0.062 A 
ATOM     13  C   UNL     1       0.182  -8.566  -1.821  0.00  0.00    +0.166 A 
ATOM     14  C   UNL     1       0.857  -9.081  -0.717  0.00  0.00    +0.204 A 
ATOM     15  C   UNL     1       1.348  -8.223   0.263  0.00  0.00    +0.166 A 
ATOM     16  C   UNL     1       1.172  -6.857   0.140  0.00  0.00    +0.062 A 
BRANCH  15  17
ATOM     17  O   UNL     1       2.006  -8.728   1.341  0.00  0.00    -0.491 OA
ATOM     18  C   UNL     1       2.483  -7.791   2.308  0.00  0.00    +0.277 C 
ENDBRANCH  15  17
BRANCH  14  19
ATOM     19  O   UNL     1       1.036 -10.422  -0.596  0.00  0.00    -0.488 OA
ATOM     20  C   UNL     1       2.223 -10.973  -1.170  0.00  0.00    +0.277 C 
ENDBRANCH  14  19
BRANCH  13  21
ATOM     21  O   UNL     1      -0.297  -9.407  -2.777  0.00  0.00    -0.491 OA
ATOM     22  C   UNL     1      -0.881  -8.807  -3.935  0.00  0.00    +0.277 C 
ENDBRANCH  13  21
ENDBRANCH   2  11
BRANCH   1  23
ATOM     23  C   UNL     1      -0.572  -4.852   1.181  0.00  0.00    +0.131 C 
BRANCH  23  24
ATOM     24  C   UNL     1      -2.082  -5.100   1.212  0.00  0.00    +0.116 C 
ATOM     25  C   UNL     1      -2.443  -5.596   2.598  0.00  0.00    -0.003 C 
ATOM     26  C   UNL     1      -3.055  -6.808   2.688  0.00  0.00    -0.007 A 
ATOM     27  C   UNL     1      -3.437  -7.358   3.991  0.00  0.00    +0.013 A 
ATOM     28  C   UNL     1      -4.044  -8.567   4.043  0.00  0.00    +0.046 A 
ATOM     29  C   UNL     1      -4.311  -9.299   2.876  0.00  0.00    +0.122 A 
ATOM     30  C   UNL     1      -3.976  -8.834   1.623  0.00  0.00    +0.069 A 
ATOM     31  C   UNL     1      -3.345  -7.592   1.473  0.00  0.00    +0.044 A 
ATOM     32  N   UNL     1      -3.023  -7.152   0.254  0.00  0.00    -0.284 N 
ATOM     33  C   UNL     1      -2.429  -5.992   0.041  0.00  0.00    +0.226 C 
ATOM     34  O   UNL     1      -2.161  -5.643  -1.093  0.00  0.00    -0.275 OA
ATOM     35  H   UNL     1      -3.237  -7.710  -0.510  0.00  0.00    +0.155 HD
BRANCH  29  36
ATOM     36  O   UNL     1      -4.921 -10.503   2.985  0.00  0.00    -0.495 OA
ATOM     37  C   UNL     1      -5.251 -10.947   4.302  0.00  0.00    +0.277 C 
ENDBRANCH  29  36
ENDBRANCH  23  24
ENDBRANCH   1  23
TORSDOF 8
