REMARK  Name = ZINC15791914
REMARK  6 active torsions:
REMARK  status: ('A' for Active; 'I' for Inactive)
REMARK    1  A    between atoms: C_1  and  C_2
REMARK    2  A    between atoms: C_7  and  N_12
REMARK    3  A    between atoms: C_9  and  C_11
REMARK    4  A    between atoms: C_13  and  C_15
REMARK    5  A    between atoms: C_19  and  S_21
REMARK    6  A    between atoms: S_21  and  N_24
REMARK                            x       y       z     vdW  Elec       q    Type
REMARK                         _______ _______ _______ _____ _____    ______ ____
ROOT
ATOM      1  C   UNL     1      -3.415  -1.167   1.191  0.00  0.00    +0.039 A 
ATOM      2  C   UNL     1      -4.050  -1.496  -0.008  0.00  0.00    +0.014 A 
ATOM      3  C   UNL     1      -5.341  -1.979   0.009  0.00  0.00    +0.023 A 
ATOM      4  C   UNL     1      -6.013  -2.126   1.211  0.00  0.00    +0.067 A 
ATOM      5  C   UNL     1      -5.391  -1.795   2.403  0.00  0.00    +0.124 A 
ATOM      6  C   UNL     1      -4.097  -1.317   2.400  0.00  0.00    +0.043 A 
ATOM      7 CL   UNL     1      -7.642  -2.727   1.223  0.00  0.00    -0.082 Cl
ENDROOT
BRANCH   1   9
ATOM      8  N   UNL     1      -1.372  -0.511   0.012  0.00  0.00    -0.308 N 
ATOM      9  C   UNL     1      -2.029  -0.655   1.181  0.00  0.00    +0.244 C 
ATOM     10  O   UNL     1      -1.480  -0.364   2.226  0.00  0.00    -0.270 OA
ATOM     11  H   UNL     1      -1.810  -0.743  -0.822  0.00  0.00    +0.149 HD
BRANCH   8  17
ATOM     12  C   UNL     1       2.894  -0.475  -0.028  0.00  0.00    +0.008 C 
ATOM     13  C   UNL     1       2.154   0.032  -1.268  0.00  0.00    -0.009 C 
ATOM     14  C   UNL     1       2.133   1.562  -1.259  0.00  0.00    +0.003 C 
ATOM     15  C   UNL     1       1.417   2.055  -0.000  0.00  0.00    +0.002 C 
ATOM     16  C   UNL     1      -0.019   1.526   0.010  0.00  0.00    +0.022 C 
ATOM     17  C   UNL     1       0.002  -0.004   0.002  0.00  0.00    +0.076 C 
ATOM     18  C   UNL     1       0.718  -0.497  -1.257  0.00  0.00    +0.009 C 
ATOM     19  C   UNL     1       0.739  -2.027  -1.265  0.00  0.00    +0.009 C 
ENDBRANCH   8  17
ENDBRANCH   1   9
BRANCH   5  20
ATOM     20  S   UNL     1      -6.254  -1.985   3.928  0.00  0.00    +0.057 S 
ATOM     21  O   UNL     1      -6.816  -3.291   3.916  0.00  0.00    -0.153 OA
ATOM     22  O   UNL     1      -5.373  -1.544   4.951  0.00  0.00    -0.153 OA
BRANCH  20  23
ATOM     23  N   UNL     1      -7.525  -0.923   3.907  0.00  0.00    -0.203 NA
ATOM     24  H   UNL     1      -7.665  -0.350   3.137  0.00  0.00    +0.144 HD
ATOM     25  H   UNL     1      -8.128  -0.874   4.665  0.00  0.00    +0.144 HD
ENDBRANCH  20  23
ENDBRANCH   5  20
TORSDOF 4
