REMARK  Name = ZINC08592756
REMARK  13 active torsions:
REMARK  status: ('A' for Active; 'I' for Inactive)
REMARK    1  A    between atoms: C_1  and  C_2
REMARK    2  A    between atoms: C_2  and  O_3
REMARK    3  A    between atoms: O_3  and  C_4
REMARK    4  A    between atoms: C_4  and  C_6
REMARK    5  A    between atoms: C_7  and  C_22
REMARK    6  A    between atoms: C_12  and  C_14
REMARK    7  A    between atoms: C_18  and  O_20
REMARK    8  A    between atoms: O_20  and  C_21
REMARK    9  A    between atoms: C_22  and  S_23
REMARK   10  A    between atoms: S_23  and  C_26
REMARK   11  A    between atoms: C_27  and  C_34
REMARK   12  A    between atoms: C_29  and  C_33
REMARK   13  A    between atoms: C_31  and  C_32
REMARK                            x       y       z     vdW  Elec       q    Type
REMARK                         _______ _______ _______ _____ _____    ______ ____
ROOT
ATOM      1  C   UNL     1       2.700  -2.979  -2.067  0.00  0.00    +0.080 C 
ATOM      2  C   UNL     1       2.601  -4.305  -2.302  0.00  0.00    +0.045 C 
ATOM      3  N   UNL     1       3.146  -4.865  -3.422  0.00  0.00    -0.271 N 
ATOM      4  C   UNL     1       3.805  -4.167  -4.356  0.00  0.00    +0.304 C 
ATOM      5  O   UNL     1       4.255  -4.754  -5.320  0.00  0.00    -0.252 OA
ATOM      6  N   UNL     1       3.985  -2.835  -4.261  0.00  0.00    -0.288 N 
ATOM      7  C   UNL     1       3.430  -2.134  -3.091  0.00  0.00    +0.144 C 
ATOM      8  H   UNL     1       3.050  -5.822  -3.549  0.00  0.00    +0.156 HD
ATOM      9  H   UNL     1       4.467  -2.349  -4.949  0.00  0.00    +0.151 HD
ENDROOT
BRANCH   7  10
ATOM     10  C   UNL     1       4.567  -1.435  -2.391  0.00  0.00    -0.019 A 
ATOM     11  C   UNL     1       5.746  -2.114  -2.142  0.00  0.00    +0.006 A 
ATOM     12  C   UNL     1       6.791  -1.476  -1.500  0.00  0.00    +0.004 A 
ATOM     13  C   UNL     1       6.660  -0.158  -1.106  0.00  0.00    +0.045 A 
ATOM     14  C   UNL     1       5.479   0.525  -1.355  0.00  0.00    +0.120 A 
ATOM     15  C   UNL     1       4.434  -0.116  -2.005  0.00  0.00    +0.051 A 
BRANCH  14  16
ATOM     16  O   UNL     1       5.348   1.821  -0.969  0.00  0.00    -0.495 OA
ATOM     17  C   UNL     1       6.466   2.418  -0.311  0.00  0.00    +0.277 C 
ENDBRANCH  14  16
ENDBRANCH   7  10
BRANCH   1  18
ATOM     18  C   UNL     1       2.136  -2.398  -0.907  0.00  0.00    +0.339 C 
ATOM     19  O   UNL     1       1.097  -1.770  -0.985  0.00  0.00    -0.245 OA
BRANCH  18  20
ATOM     20  O   UNL     1       2.752  -2.539   0.286  0.00  0.00    -0.462 OA
BRANCH  20  22
ATOM     21  C   UNL     1       2.963  -2.192   2.668  0.00  0.00    +0.048 C 
ATOM     22  C   UNL     1       2.127  -1.926   1.415  0.00  0.00    +0.229 C 
ENDBRANCH  20  22
ENDBRANCH  18  20
ENDBRANCH   1  18
BRANCH   2  23
ATOM     23  C   UNL     1       1.879  -5.182  -1.311  0.00  0.00    +0.223 C 
BRANCH  23  24
ATOM     24  S   UNL     1       0.245  -5.617  -1.968  0.00  0.00    +0.003 S 
ATOM     25  O   UNL     1      -0.582  -4.462  -2.026  0.00  0.00    -0.169 OA
ATOM     26  O   UNL     1       0.382  -6.468  -3.098  0.00  0.00    -0.169 OA
BRANCH  24  27
ATOM     27  C   UNL     1      -0.486  -6.631  -0.727  0.00  0.00    +0.094 A 
ATOM     28  C   UNL     1      -1.451  -6.108   0.114  0.00  0.00    -0.025 A 
ATOM     29  C   UNL     1      -2.024  -6.904   1.088  0.00  0.00    +0.008 A 
ATOM     30  C   UNL     1      -1.634  -8.223   1.220  0.00  0.00    -0.050 A 
ATOM     31  C   UNL     1      -0.671  -8.747   0.379  0.00  0.00    +0.008 A 
ATOM     32  C   UNL     1      -0.100  -7.952  -0.598  0.00  0.00    -0.025 A 
ATOM     33  C   UNL     1       0.947  -8.524  -1.519  0.00  0.00    +0.046 C 
ATOM     34  C   UNL     1      -2.259  -9.091   2.282  0.00  0.00    +0.044 C 
ATOM     35  C   UNL     1      -1.876  -4.669  -0.030  0.00  0.00    +0.046 C 
ENDBRANCH  24  27
ENDBRANCH  23  24
ENDBRANCH   2  23
TORSDOF 8
