REMARK  Name = ZINC36948322
REMARK  1 active torsions:
REMARK  status: ('A' for Active; 'I' for Inactive)
REMARK    1  A    between atoms: C_2  and  C_8
REMARK                            x       y       z     vdW  Elec       q    Type
REMARK                         _______ _______ _______ _____ _____    ______ ____
ROOT
ATOM      1  C   UNL     1      -0.017   1.380   0.010  0.00  0.00    +0.030 A 
ATOM      2  C   UNL     1       1.207   2.060   0.002  0.00  0.00    +0.038 A 
ATOM      3  C   UNL     1       2.390   1.320  -0.014  0.00  0.00    +0.122 A 
ATOM      4  N   UNL     1       2.356   0.003  -0.020  0.00  0.00    -0.261 NA
ATOM      5  C   UNL     1       1.219  -0.665  -0.013  0.00  0.00    +0.126 A 
ATOM      6  C   UNL     1       0.002  -0.004   0.002  0.00  0.00    +0.037 A 
ATOM      7 BR   UNL     1      -1.617  -0.982   0.013  0.00  0.00    -0.049 Br
ENDROOT
BRANCH   2   8
ATOM      8  C   UNL     1       1.246   3.538   0.009  0.00  0.00    +0.164 A 
ATOM      9  N   UNL     1       2.373   4.327   0.002  0.00  0.00    -0.316 N 
ATOM     10  C   UNL     1       1.921   5.615   0.012  0.00  0.00    +0.200 A 
ATOM     11  N   UNL     1       0.608   5.568   0.024  0.00  0.00    -0.122 NA
ATOM     12  N   UNL     1       0.210   4.346   0.017  0.00  0.00    -0.128 NA
ATOM     13  S   UNL     1       2.914   7.071   0.010  0.00  0.00    -0.009 SA
ATOM     14  H   UNL     1       3.296   4.029  -0.007  0.00  0.00    +0.169 HD
ENDBRANCH   2   8
TORSDOF 1
