REMARK  Name = ZINC39920596
REMARK  9 active torsions:
REMARK  status: ('A' for Active; 'I' for Inactive)
REMARK    1  A    between atoms: C_1  and  C_2
REMARK    2  A    between atoms: C_7  and  O_8
REMARK    3  A    between atoms: O_8  and  C_9
REMARK    4  A    between atoms: C_9  and  C_11
REMARK    5  A    between atoms: C_9  and  C_12
REMARK    6  A    between atoms: N_14  and  N_15
REMARK    7  A    between atoms: C_16  and  C_28
REMARK    8  A    between atoms: C_31  and  O_34
REMARK    9  A    between atoms: O_34  and  C_35
REMARK                            x       y       z     vdW  Elec       q    Type
REMARK                         _______ _______ _______ _____ _____    ______ ____
ROOT
ATOM      1  N   UNL     1      -1.833   0.073   6.777  0.00  0.00    -0.191 N 
ATOM      2  C   UNL     1      -1.146   0.710   7.900  0.00  0.00    +0.212 C 
ATOM      3  N   UNL     1      -1.876   1.908   8.331  0.00  0.00    -0.320 N 
ATOM      4  C   UNL     1      -3.260   1.835   8.451  0.00  0.00    +0.041 A 
ATOM      5  C   UNL     1      -3.958   2.607   9.363  0.00  0.00    +0.025 A 
ATOM      6  C   UNL     1      -5.333   2.494   9.445  0.00  0.00    +0.017 A 
ATOM      7  C   UNL     1      -6.017   1.612   8.622  0.00  0.00    +0.019 A 
ATOM      8  C   UNL     1      -5.336   0.835   7.707  0.00  0.00    +0.030 A 
ATOM      9  C   UNL     1      -3.951   0.941   7.613  0.00  0.00    +0.060 A 
ATOM     10  C   UNL     1      -3.174   0.146   6.645  0.00  0.00    +0.267 C 
ATOM     11  O   UNL     1      -3.736  -0.441   5.741  0.00  0.00    -0.268 OA
ATOM     12 BR   UNL     1      -7.899   1.473   8.755  0.00  0.00    -0.050 Br
ATOM     13  H   UNL     1      -1.405   2.732   8.528  0.00  0.00    +0.148 HD
ENDROOT
BRANCH   2  14
ATOM     14  C   UNL     1      -1.064  -0.261   9.050  0.00  0.00    -0.008 A 
ATOM     15  C   UNL     1      -0.993  -1.619   8.802  0.00  0.00    +0.011 A 
ATOM     16  C   UNL     1      -0.918  -2.511   9.854  0.00  0.00    +0.046 A 
ATOM     17  C   UNL     1      -0.914  -2.043  11.160  0.00  0.00    +0.120 A 
ATOM     18  C   UNL     1      -0.985  -0.680  11.406  0.00  0.00    +0.046 A 
ATOM     19  C   UNL     1      -1.054   0.209  10.350  0.00  0.00    +0.011 A 
BRANCH  17  20
ATOM     20  O   UNL     1      -0.841  -2.919  12.197  0.00  0.00    -0.495 OA
ATOM     21  C   UNL     1      -0.841  -2.365  13.515  0.00  0.00    +0.277 C 
ENDBRANCH  17  20
ENDBRANCH   2  14
BRANCH   1  24
ATOM     22  C   UNL     1      -0.868  -0.071   4.605  0.00  0.00    +0.270 C 
ATOM     23  O   UNL     1      -1.321   1.024   4.346  0.00  0.00    -0.270 OA
ATOM     24  N   UNL     1      -1.085  -0.620   5.816  0.00  0.00    -0.227 N 
ATOM     25  H   UNL     1      -0.723  -1.496   6.024  0.00  0.00    +0.173 HD
BRANCH  22  26
ATOM     26  C   UNL     1      -0.064  -0.817   3.572  0.00  0.00    +0.257 C 
ATOM     27  C   UNL     1       1.342  -1.082   4.115  0.00  0.00    +0.062 C 
BRANCH  26  28
ATOM     28  O   UNL     1       0.025  -0.033   2.381  0.00  0.00    -0.480 OA
BRANCH  28  35
ATOM     29  C   UNL     1      -0.041   1.466  -0.013  0.00  0.00    +0.047 C 
ATOM     30  C   UNL     1       0.216  -0.019   0.009  0.00  0.00    -0.009 A 
ATOM     31  C   UNL     1       0.436  -0.701  -1.172  0.00  0.00    +0.007 A 
ATOM     32  C   UNL     1       0.671  -2.063  -1.153  0.00  0.00    +0.000 A 
ATOM     33  C   UNL     1       0.686  -2.747   0.049  0.00  0.00    +0.004 A 
ATOM     34  C   UNL     1       0.467  -2.070   1.233  0.00  0.00    +0.046 A 
ATOM     35  C   UNL     1       0.236  -0.702   1.217  0.00  0.00    +0.124 A 
ENDBRANCH  28  35
ENDBRANCH  26  28
ENDBRANCH  22  26
ENDBRANCH   1  24
TORSDOF 6
