REMARK  Name = ZINC35779011
REMARK  16 active torsions:
REMARK  status: ('A' for Active; 'I' for Inactive)
REMARK    1  A    between atoms: C_1  and  C_2
REMARK    2  A    between atoms: C_5  and  O_8
REMARK    3  A    between atoms: O_8  and  C_9
REMARK    4  A    between atoms: C_9  and  C_10
REMARK    5  A    between atoms: C_20  and  C_22
REMARK    6  A    between atoms: C_22  and  N_23
REMARK    7  A    between atoms: N_23  and  C_24
REMARK    8  A    between atoms: N_23  and  C_37
REMARK    9  A    between atoms: C_24  and  C_25
REMARK   10  A    between atoms: C_25  and  C_27
REMARK   11  A    between atoms: C_25  and  O_36
REMARK   12  A    between atoms: C_27  and  O_28
REMARK   13  A    between atoms: O_28  and  C_29
REMARK   14  A    between atoms: C_29  and  C_30
REMARK   15  A    between atoms: C_37  and  C_38
REMARK   16  A    between atoms: C_37  and  C_39
REMARK                            x       y       z     vdW  Elec       q    Type
REMARK                         _______ _______ _______ _____ _____    ______ ____
ROOT
ATOM      1  C   UNL     1      -1.646  -4.209   1.587  0.00  0.00    +0.144 C 
ATOM      2  C   UNL     1      -0.167  -4.158   1.210  0.00  0.00    -0.014 A 
ATOM      3  C   UNL     1       0.782  -3.438   1.934  0.00  0.00    +0.013 A 
ATOM      4  C   UNL     1       2.075  -3.435   1.539  0.00  0.00    +0.046 A 
ATOM      5  S   UNL     1       2.019  -4.475   0.087  0.00  0.00    -0.101 S 
ATOM      6  C   UNL     1       0.283  -4.836   0.119  0.00  0.00    -0.004 A 
ATOM      7  C   UNL     1      -0.505  -5.687  -0.823  0.00  0.00    +0.061 C 
ATOM      8  C   UNL     1      -1.998  -5.379  -0.633  0.00  0.00    +0.113 C 
ATOM      9  N   UNL     1      -2.272  -5.288   0.810  0.00  0.00    -0.292 N 
ATOM     10  C   UNL     1      -3.083  -6.181   1.411  0.00  0.00    +0.200 C 
ATOM     11  O   UNL     1      -3.301  -6.097   2.601  0.00  0.00    -0.278 OA
ENDROOT
BRANCH   1  12
ATOM     12  C   UNL     1      -2.313  -2.874   1.250  0.00  0.00    +0.256 C 
BRANCH  12  13
ATOM     13  O   UNL     1      -2.075  -2.555  -0.122  0.00  0.00    -0.490 OA
BRANCH  13  18
ATOM     14  C   UNL     1      -4.267   2.263  -2.046  0.00  0.00    +0.044 C 
ATOM     15  C   UNL     1      -3.680   0.974  -1.531  0.00  0.00    -0.050 A 
ATOM     16  C   UNL     1      -2.950   0.162  -2.378  0.00  0.00    +0.007 A 
ATOM     17  C   UNL     1      -2.411  -1.021  -1.909  0.00  0.00    +0.046 A 
ATOM     18  C   UNL     1      -2.603  -1.392  -0.586  0.00  0.00    +0.121 A 
ATOM     19  C   UNL     1      -3.336  -0.575   0.262  0.00  0.00    +0.046 A 
ATOM     20  C   UNL     1      -3.868   0.609  -0.211  0.00  0.00    +0.007 A 
ENDBRANCH  13  18
ENDBRANCH  12  13
ENDBRANCH   1  12
BRANCH  10  21
ATOM     21  C   UNL     1      -3.720  -7.283   0.604  0.00  0.00    +0.019 C 
BRANCH  21  22
ATOM     22  N   UNL     1      -4.406  -8.217   1.507  0.00  0.00    +0.389 N 
ATOM     23  H   UNL     1      -4.794  -7.707   2.286  0.00  0.00    -0.081 HD
BRANCH  22  24
ATOM     24  C   UNL     1      -3.447  -9.213   2.002  0.00  0.00    -0.074 C 
ATOM     25  C   UNL     1      -2.835  -9.965   0.818  0.00  0.00    -0.014 C 
ATOM     26  C   UNL     1      -2.338  -8.508   2.786  0.00  0.00    -0.014 C 
ENDBRANCH  22  24
BRANCH  22  27
ATOM     27  C   UNL     1      -5.486  -8.896   0.779  0.00  0.00    -0.044 C 
BRANCH  27  28
ATOM     28  C   UNL     1      -6.301  -9.749   1.754  0.00  0.00    +0.124 C 
BRANCH  28  29
ATOM     29  O   UNL     1      -5.508 -10.852   2.199  0.00  0.00    -0.391 OA
ATOM     30  H   UNL     1      -5.162 -11.401   1.483  0.00  0.00    +0.210 HD
ENDBRANCH  28  29
BRANCH  28  31
ATOM     31  C   UNL     1      -7.554 -10.272   1.050  0.00  0.00    +0.189 C 
BRANCH  31  32
ATOM     32  O   UNL     1      -8.372 -10.970   1.991  0.00  0.00    -0.373 OA
BRANCH  32  33
ATOM     33  C   UNL     1      -9.575 -11.502   1.433  0.00  0.00    +0.195 C 
BRANCH  33  34
ATOM     34  C   UNL     1     -10.356 -12.214   2.508  0.00  0.00    -0.022 A 
ATOM     35  C   UNL     1     -10.139 -13.558   2.745  0.00  0.00    +0.006 A 
ATOM     36  C   UNL     1     -10.855 -14.211   3.731  0.00  0.00    +0.000 A 
ATOM     37  C   UNL     1     -11.789 -13.519   4.480  0.00  0.00    +0.000 A 
ATOM     38  C   UNL     1     -12.005 -12.174   4.243  0.00  0.00    +0.000 A 
ATOM     39  C   UNL     1     -11.286 -11.521   3.260  0.00  0.00    +0.006 A 
ENDBRANCH  33  34
ENDBRANCH  32  33
ENDBRANCH  31  32
ENDBRANCH  28  31
ENDBRANCH  27  28
ENDBRANCH  22  27
ENDBRANCH  21  22
ENDBRANCH  10  21
TORSDOF 13
