REMARK  Name = ZINC44929706
REMARK  8 active torsions:
REMARK  status: ('A' for Active; 'I' for Inactive)
REMARK    1  A    between atoms: C_1  and  C_2
REMARK    2  A    between atoms: C_3  and  C_20
REMARK    3  A    between atoms: C_4  and  S_8
REMARK    4  A    between atoms: C_5  and  C_7
REMARK    5  A    between atoms: S_8  and  N_11
REMARK    6  A    between atoms: N_11  and  C_12
REMARK    7  A    between atoms: C_12  and  C_14
REMARK    8  A    between atoms: C_12  and  C_15
REMARK                            x       y       z     vdW  Elec       q    Type
REMARK                         _______ _______ _______ _____ _____    ______ ____
ROOT
ATOM      1  S   UNL     1      -1.499  -3.687  -0.011  0.00  0.00    +0.063 S 
ATOM      2  O   UNL     1      -0.654  -4.694   0.530  0.00  0.00    -0.153 OA
ATOM      3  O   UNL     1      -2.768  -3.377   0.547  0.00  0.00    -0.153 OA
ENDROOT
BRANCH   1   7
ATOM      4  C   UNL     1      -0.018   1.503   0.010  0.00  0.00    +0.087 C 
ATOM      5  C   UNL     1       0.002  -0.004   0.002  0.00  0.00    +0.118 A 
ATOM      6  C   UNL     1      -1.095  -0.819   0.003  0.00  0.00    +0.130 A 
ATOM      7  C   UNL     1      -0.567  -2.192  -0.007  0.00  0.00    +0.160 A 
ATOM      8  C   UNL     1       0.769  -2.073  -0.013  0.00  0.00    +0.129 A 
ATOM      9  O   UNL     1       1.095  -0.771  -0.013  0.00  0.00    -0.462 OA
ATOM     10  C   UNL     1       1.748  -3.219  -0.023  0.00  0.00    +0.088 C 
BRANCH   6  11
ATOM     11  C   UNL     1      -2.506  -0.409   0.012  0.00  0.00    +0.392 C 
ATOM     12  O   UNL     1      -2.799   0.779   0.020  0.00  0.00    -0.240 OA
ATOM     13  O   UNL     1      -3.389  -1.257   0.012  0.00  0.00    -0.240 OA
ENDBRANCH   6  11
ENDBRANCH   1   7
BRANCH   1  14
ATOM     14  N   UNL     1      -1.765  -4.094  -1.594  0.00  0.00    -0.180 NA
ATOM     15  H   UNL     1      -2.668  -4.099  -1.948  0.00  0.00    +0.149 HD
BRANCH  14  16
ATOM     16  C   UNL     1      -0.637  -4.447  -2.459  0.00  0.00    +0.145 C 
ATOM     17  C   UNL     1      -0.182  -3.209  -3.235  0.00  0.00    +0.034 C 
BRANCH  16  18
ATOM     18  C   UNL     1      -1.063  -5.519  -3.429  0.00  0.00    +0.195 A 
ATOM     19  N   UNL     1      -0.386  -6.612  -3.747  0.00  0.00    -0.109 NA
ATOM     20  N   UNL     1      -1.087  -7.269  -4.606  0.00  0.00    -0.021 NA
ATOM     21  N   UNL     1      -2.178  -6.626  -4.838  0.00  0.00    -0.021 NA
ATOM     22  N   UNL     1      -2.191  -5.551  -4.125  0.00  0.00    -0.109 NA
ENDBRANCH  16  18
ENDBRANCH  14  16
ENDBRANCH   1  14
TORSDOF 5
