REMARK  Name = ZINC03314791
REMARK  10 active torsions:
REMARK  status: ('A' for Active; 'I' for Inactive)
REMARK    1  A    between atoms: C_1  and  C_2
REMARK    2  A    between atoms: C_4  and  C_34
REMARK    3  A    between atoms: C_5  and  S_9
REMARK    4  A    between atoms: C_6  and  C_8
REMARK    5  A    between atoms: S_9  and  N_12
REMARK    6  A    between atoms: N_12  and  C_13
REMARK    7  A    between atoms: C_18  and  C_19
REMARK    8  A    between atoms: C_19  and  O_21
REMARK    9  A    between atoms: O_21  and  C_22
REMARK   10  A    between atoms: C_22  and  C_23
REMARK                            x       y       z     vdW  Elec       q    Type
REMARK                         _______ _______ _______ _____ _____    ______ ____
ROOT
ATOM      1  C   UNL     1       5.289  -1.432  -2.701  0.00  0.00    +0.062 A 
ATOM      2  C   UNL     1       5.336  -0.061  -2.475  0.00  0.00    +0.025 A 
ATOM      3  C   UNL     1       5.339   0.815  -3.541  0.00  0.00    +0.002 A 
ATOM      4  C   UNL     1       5.284   0.339  -4.842  0.00  0.00    +0.001 A 
ATOM      5  C   UNL     1       5.232  -1.016  -5.086  0.00  0.00    +0.017 A 
ATOM      6  C   UNL     1       5.234  -1.917  -4.017  0.00  0.00    +0.081 A 
ENDROOT
BRANCH   1   7
ATOM      7  N   UNL     1       5.292  -2.316  -1.630  0.00  0.00    -0.215 N 
ATOM      8  H   UNL     1       4.504  -2.849  -1.440  0.00  0.00    +0.174 HD
BRANCH   7   9
ATOM      9  S   UNL     1       6.639  -2.459  -0.679  0.00  0.00    +0.073 S 
ATOM     10  O   UNL     1       7.731  -2.704  -1.555  0.00  0.00    -0.150 OA
ATOM     11  O   UNL     1       6.298  -3.346   0.378  0.00  0.00    -0.150 OA
BRANCH   9  16
ATOM     12  C   UNL     1       7.629   2.929   1.848  0.00  0.00    +0.044 C 
ATOM     13  C   UNL     1       7.378   1.585   1.214  0.00  0.00    -0.050 A 
ATOM     14  C   UNL     1       6.474   0.710   1.785  0.00  0.00    +0.008 A 
ATOM     15  C   UNL     1       6.249  -0.526   1.208  0.00  0.00    -0.023 A 
ATOM     16  C   UNL     1       6.927  -0.885   0.058  0.00  0.00    +0.114 A 
ATOM     17  C   UNL     1       7.832  -0.010  -0.513  0.00  0.00    -0.023 A 
ATOM     18  C   UNL     1       8.057   1.226   0.065  0.00  0.00    +0.008 A 
ATOM     19  C   UNL     1       8.572  -0.402  -1.766  0.00  0.00    +0.046 C 
ATOM     20  C   UNL     1       5.263  -1.480   1.830  0.00  0.00    +0.046 C 
ENDBRANCH   9  16
ENDBRANCH   7   9
ENDBRANCH   1   7
BRANCH   6  21
ATOM     21  C   UNL     1       5.177  -3.367  -4.271  0.00  0.00    +0.341 C 
ATOM     22  O   UNL     1       5.178  -4.147  -3.339  0.00  0.00    -0.245 OA
BRANCH  21  23
ATOM     23  O   UNL     1       5.123  -3.828  -5.536  0.00  0.00    -0.452 OA
BRANCH  23  24
ATOM     24  C   UNL     1       5.070  -5.269  -5.710  0.00  0.00    +0.328 C 
BRANCH  24  25
ATOM     25  C   UNL     1       5.015  -5.595  -7.181  0.00  0.00    +0.258 C 
ATOM     26  O   UNL     1       5.020  -4.701  -8.001  0.00  0.00    -0.272 OA
ATOM     27  N   UNL     1       4.959  -6.879  -7.585  0.00  0.00    -0.268 N 
ATOM     28  C   UNL     1       4.902  -7.319  -8.981  0.00  0.00    +0.118 C 
ATOM     29  C   UNL     1       4.853  -8.854  -8.919  0.00  0.00    +0.056 C 
ATOM     30  C   UNL     1       4.886  -9.177  -7.442  0.00  0.00    -0.024 A 
ATOM     31  C   UNL     1       4.953  -7.988  -6.732  0.00  0.00    +0.040 A 
ATOM     32  C   UNL     1       4.988  -8.032  -5.338  0.00  0.00    +0.024 A 
ATOM     33  C   UNL     1       4.968  -9.244  -4.679  0.00  0.00    +0.002 A 
ATOM     34  C   UNL     1       4.907 -10.424  -5.397  0.00  0.00    +0.000 A 
ATOM     35  C   UNL     1       4.866 -10.388  -6.778  0.00  0.00    +0.005 A 
ENDBRANCH  24  25
ENDBRANCH  23  24
ENDBRANCH  21  23
ENDBRANCH   6  21
TORSDOF 7
