REMARK  Name = ZINC43743320
REMARK  13 active torsions:
REMARK  status: ('A' for Active; 'I' for Inactive)
REMARK    1  A    between atoms: C_1  and  C_2
REMARK    2  A    between atoms: C_10  and  C_23
REMARK    3  A    between atoms: C_15  and  C_16
REMARK    4  A    between atoms: C_15  and  O_19
REMARK    5  A    between atoms: C_16  and  C_18
REMARK    6  A    between atoms: O_19  and  C_20
REMARK    7  A    between atoms: C_20  and  C_22
REMARK    8  A    between atoms: C_24  and  C_42
REMARK    9  A    between atoms: C_27  and  O_31
REMARK   10  A    between atoms: O_31  and  C_32
REMARK   11  A    between atoms: C_32  and  C_34
REMARK   12  A    between atoms: C_34  and  C_35
REMARK   13  A    between atoms: C_35  and  N_36
REMARK                            x       y       z     vdW  Elec       q    Type
REMARK                         _______ _______ _______ _____ _____    ______ ____
ROOT
ATOM      1  C   UNL     1       0.532   1.452  -1.420  0.00  0.00    +0.044 C 
ATOM      2  C   UNL     1       0.344   0.041  -0.926  0.00  0.00    -0.051 C 
ATOM      3  C   UNL     1      -0.085  -0.899  -1.754  0.00  0.00    -0.019 C 
ATOM      4  C   UNL     1      -0.282  -2.325  -1.350  0.00  0.00    +0.020 C 
ATOM      5  C   UNL     1      -0.447  -2.479   0.156  0.00  0.00    +0.006 C 
ATOM      6  C   UNL     1      -1.774  -1.835   0.578  0.00  0.00    +0.005 C 
ATOM      7  C   UNL     1      -2.915  -2.587  -0.105  0.00  0.00    +0.011 C 
ATOM      8  C   UNL     1      -2.792  -2.518  -1.609  0.00  0.00    +0.018 C 
ATOM      9  C   UNL     1      -1.438  -2.960  -2.116  0.00  0.00    +0.006 C 
ATOM     10  C   UNL     1      -1.401  -2.377  -3.554  0.00  0.00    +0.009 C 
ATOM     11  C   UNL     1      -2.313  -1.135  -3.541  0.00  0.00    +0.057 C 
ATOM     12  C   UNL     1      -2.913  -1.080  -2.146  0.00  0.00    +0.176 C 
ATOM     13  C   UNL     1      -3.877  -3.389  -2.245  0.00  0.00    +0.016 C 
ATOM     14  C   UNL     1       0.709  -1.748   0.850  0.00  0.00    -0.003 C 
ATOM     15  C   UNL     1       0.643  -0.297   0.483  0.00  0.00    -0.039 C 
ATOM     16  C   UNL     1       0.815   0.673   1.359  0.00  0.00    +0.021 C 
ATOM     17  C   UNL     1       1.071   0.433   2.818  0.00  0.00    +0.200 C 
ATOM     18  C   UNL     1       1.641  -0.971   3.026  0.00  0.00    +0.050 C 
ATOM     19  C   UNL     1       0.676  -1.974   2.350  0.00  0.00    +0.015 C 
ATOM     20  C   UNL     1       2.032  -2.287   0.300  0.00  0.00    +0.016 C 
ENDROOT
BRANCH  12  21
ATOM     21  C   UNL     1      -4.359  -0.659  -2.212  0.00  0.00    +0.174 C 
ATOM     22  O   UNL     1      -4.973  -0.768  -3.246  0.00  0.00    -0.293 OA
ATOM     23  C   UNL     1      -5.038  -0.101  -0.988  0.00  0.00    +0.090 C 
ENDBRANCH  12  21
BRANCH  12  24
ATOM     24  O   UNL     1      -2.160  -0.175  -1.336  0.00  0.00    -0.450 OA
BRANCH  24  25
ATOM     25  C   UNL     1      -2.310   1.135  -1.586  0.00  0.00    +0.305 C 
ATOM     26  O   UNL     1      -2.944   1.498  -2.548  0.00  0.00    -0.251 OA
ATOM     27  C   UNL     1      -1.688   2.154  -0.666  0.00  0.00    +0.136 C 
ENDBRANCH  24  25
ENDBRANCH  12  24
BRANCH  17  28
ATOM     28  O   UNL     1       2.008   1.399   3.299  0.00  0.00    -0.457 OA
BRANCH  28  29
ATOM     29  C   UNL     1       1.507   2.546   3.784  0.00  0.00    +0.306 C 
ATOM     30  O   UNL     1       0.312   2.724   3.799  0.00  0.00    -0.251 OA
BRANCH  29  31
ATOM     31  C   UNL     1       2.435   3.611   4.309  0.00  0.00    +0.102 C 
BRANCH  31  32
ATOM     32  C   UNL     1       1.614   4.806   4.798  0.00  0.00    -0.068 C 
BRANCH  32  33
ATOM     33  N   UNL     1       2.518   5.845   5.309  0.00  0.00    +0.380 N 
ATOM     34  C   UNL     1       3.223   5.338   6.493  0.00  0.00    -0.079 C 
ATOM     35  C   UNL     1       4.226   6.385   6.982  0.00  0.00    -0.019 C 
ATOM     36  C   UNL     1       3.476   7.670   7.345  0.00  0.00    -0.004 C 
ATOM     37  C   UNL     1       2.685   8.150   6.124  0.00  0.00    -0.019 C 
ATOM     38  C   UNL     1       1.740   7.037   5.667  0.00  0.00    -0.079 C 
ATOM     39  H   UNL     1       3.191   6.085   4.597  0.00  0.00    -0.082 HD
ENDBRANCH  32  33
ENDBRANCH  31  32
ENDBRANCH  29  31
ENDBRANCH  28  29
ENDBRANCH  17  28
TORSDOF 8
