REMARK  Name = ZINC38211802
REMARK  10 active torsions:
REMARK  status: ('A' for Active; 'I' for Inactive)
REMARK    1  A    between atoms: C_4  and  C_7
REMARK    2  A    between atoms: C_7  and  N_8
REMARK    3  A    between atoms: N_8  and  C_9
REMARK    4  A    between atoms: N_8  and  C_25
REMARK    5  A    between atoms: C_9  and  C_10
REMARK    6  A    between atoms: C_10  and  C_12
REMARK    7  A    between atoms: C_10  and  O_24
REMARK    8  A    between atoms: C_25  and  C_26
REMARK    9  A    between atoms: C_26  and  C_28
REMARK   10  A    between atoms: C_26  and  O_40
REMARK                            x       y       z     vdW  Elec       q    Type
REMARK                         _______ _______ _______ _____ _____    ______ ____
ROOT
ATOM      1  N   UNL     1       3.650  -0.309   0.591  0.00  0.00    +0.386 N 
ATOM      2  H   UNL     1       3.790  -0.999  -0.132  0.00  0.00    -0.081 HD
ENDROOT
BRANCH   1   3
ATOM      3  C   UNL     1       2.265  -0.382   1.075  0.00  0.00    -0.043 C 
BRANCH   3   7
ATOM      4  C   UNL     1       0.570   3.538   1.138  0.00  0.00    +0.000 A 
ATOM      5  C   UNL     1       0.304   2.687   0.081  0.00  0.00    +0.000 A 
ATOM      6  C   UNL     1       0.852   1.419   0.061  0.00  0.00    +0.002 A 
ATOM      7  C   UNL     1       1.667   1.002   1.097  0.00  0.00    -0.064 A 
ATOM      8  C   UNL     1       1.934   1.853   2.152  0.00  0.00    +0.002 A 
ATOM      9  C   UNL     1       1.384   3.121   2.174  0.00  0.00    +0.000 A 
ENDBRANCH   3   7
ENDBRANCH   1   3
BRANCH   1  10
ATOM     10  C   UNL     1       3.909   1.030   0.046  0.00  0.00    -0.043 C 
BRANCH  10  11
ATOM     11  C   UNL     1       4.324   0.912  -1.422  0.00  0.00    +0.139 C 
BRANCH  11  12
ATOM     12  C   UNL     1       4.169   2.271  -2.107  0.00  0.00    +0.200 C 
ATOM     13  C   UNL     1       4.451   2.129  -3.608  0.00  0.00    +0.052 C 
ATOM     14  C   UNL     1       4.396   3.521  -4.241  0.00  0.00    +0.042 C 
ATOM     15  C   UNL     1       3.147   4.236  -3.790  0.00  0.00    -0.003 A 
ATOM     16  C   UNL     1       2.708   5.331  -4.514  0.00  0.00    +0.045 A 
ATOM     17  C   UNL     1       1.569   6.013  -4.127  0.00  0.00    +0.124 A 
ATOM     18  C   UNL     1       0.863   5.599  -3.009  0.00  0.00    +0.042 A 
ATOM     19  C   UNL     1       1.297   4.508  -2.286  0.00  0.00    +0.049 A 
ATOM     20  C   UNL     1       2.441   3.819  -2.675  0.00  0.00    +0.124 A 
ATOM     21  O   UNL     1       2.830   2.743  -1.942  0.00  0.00    -0.486 OA
ATOM     22  F   UNL     1       1.145   7.081  -4.837  0.00  0.00    -0.205 F 
ENDBRANCH  11  12
BRANCH  11  23
ATOM     23  O   UNL     1       3.493  -0.049  -2.076  0.00  0.00    -0.390 OA
ATOM     24  H   UNL     1       2.561   0.203  -2.121  0.00  0.00    +0.210 HD
ENDBRANCH  11  23
ENDBRANCH  10  11
ENDBRANCH   1  10
BRANCH   1  25
ATOM     25  C   UNL     1       4.572  -0.572   1.703  0.00  0.00    -0.043 C 
BRANCH  25  26
ATOM     26  C   UNL     1       6.001  -0.240   1.271  0.00  0.00    +0.139 C 
BRANCH  26  27
ATOM     27  C   UNL     1       6.984  -0.733   2.335  0.00  0.00    +0.200 C 
ATOM     28  C   UNL     1       8.423  -0.526   1.844  0.00  0.00    +0.052 C 
ATOM     29  C   UNL     1       9.377  -0.925   2.973  0.00  0.00    +0.042 C 
ATOM     30  C   UNL     1       8.973  -2.266   3.529  0.00  0.00    -0.003 A 
ATOM     31  C   UNL     1       9.892  -2.981   4.279  0.00  0.00    +0.045 A 
ATOM     32  C   UNL     1       9.554  -4.213   4.809  0.00  0.00    +0.124 A 
ATOM     33  C   UNL     1       8.290  -4.736   4.589  0.00  0.00    +0.042 A 
ATOM     34  C   UNL     1       7.373  -4.028   3.841  0.00  0.00    +0.049 A 
ATOM     35  C   UNL     1       7.711  -2.789   3.306  0.00  0.00    +0.124 A 
ATOM     36  O   UNL     1       6.782  -2.127   2.567  0.00  0.00    -0.486 OA
ATOM     37  F   UNL     1      10.455  -4.906   5.539  0.00  0.00    -0.205 F 
ENDBRANCH  26  27
BRANCH  26  38
ATOM     38  O   UNL     1       6.284  -0.883   0.026  0.00  0.00    -0.390 OA
ATOM     39  H   UNL     1       6.233  -1.848   0.062  0.00  0.00    +0.210 HD
ENDBRANCH  26  38
ENDBRANCH  25  26
ENDBRANCH   1  25
TORSDOF 10
