REMARK  Name = ZINC19471551
REMARK  3 active torsions:
REMARK  status: ('A' for Active; 'I' for Inactive)
REMARK    1  A    between atoms: C_1  and  C_2
REMARK    2  A    between atoms: C_15  and  C_18
REMARK    3  A    between atoms: N_19  and  O_20
REMARK                            x       y       z     vdW  Elec       q    Type
REMARK                         _______ _______ _______ _____ _____    ______ ____
ROOT
ATOM      1  C   UNL     1       1.974   6.325   1.269  0.00  0.00    +0.029 C 
ATOM      2  C   UNL     1       1.585   5.540   0.014  0.00  0.00    +0.082 C 
ATOM      3  C   UNL     1       2.286   4.172   0.001  0.00  0.00    +0.059 C 
ATOM      4  C   UNL     1       1.157   3.167   0.010  0.00  0.00    -0.024 A 
ATOM      5  C   UNL     1       1.174   1.785   0.005  0.00  0.00    +0.005 A 
ATOM      6  C   UNL     1      -0.013   1.076   0.015  0.00  0.00    +0.000 A 
ATOM      7  C   UNL     1      -1.218   1.753   0.025  0.00  0.00    +0.002 A 
ATOM      8  C   UNL     1      -1.241   3.131   0.036  0.00  0.00    +0.024 A 
ATOM      9  C   UNL     1      -0.046   3.854   0.026  0.00  0.00    +0.039 A 
ATOM     10  N   UNL     1       0.151   5.237   0.029  0.00  0.00    -0.282 N 
ATOM     11  C   UNL     1      -0.863   6.185   0.044  0.00  0.00    +0.126 A 
ATOM     12  C   UNL     1      -1.304   6.738  -1.156  0.00  0.00    +0.045 A 
ATOM     13  C   UNL     1      -2.312   7.680  -1.134  0.00  0.00    +0.016 A 
ATOM     14  C   UNL     1      -2.856   8.045   0.105  0.00  0.00    +0.036 A 
ATOM     15  C   UNL     1      -2.362   7.447   1.264  0.00  0.00    +0.124 A 
ATOM     16  N   UNL     1      -1.401   6.548   1.199  0.00  0.00    -0.239 NA
ENDROOT
BRANCH  14  17
ATOM     17  C   UNL     1      -3.938   9.050   0.183  0.00  0.00    +0.164 C 
ATOM     18  N   UNL     1      -4.392   9.602  -0.904  0.00  0.00    -0.071 NA
ATOM     19  N   UNL     1      -4.468   9.403   1.413  0.00  0.00    -0.340 N 
ATOM     20  H   UNL     1      -5.273  10.150   1.470  0.00  0.00    +0.144 HD
ATOM     21  H   UNL     1      -4.084   8.936   2.332  0.00  0.00    +0.144 HD
BRANCH  18  22
ATOM     22  O   UNL     1      -5.428  10.565  -0.830  0.00  0.00    -0.408 OA
ATOM     23  H   UNL     1      -5.812  11.032  -1.749  0.00  0.00    +0.328 HD
ENDBRANCH  18  22
ENDBRANCH  14  17
TORSDOF 2
