REMARK  Name = ZINC36585046
REMARK  12 active torsions:
REMARK  status: ('A' for Active; 'I' for Inactive)
REMARK    1  A    between atoms: C_1  and  C_2
REMARK    2  A    between atoms: C_5  and  S_8
REMARK    3  A    between atoms: S_8  and  C_11
REMARK    4  A    between atoms: C_11  and  N_12
REMARK    5  A    between atoms: C_13  and  C_15
REMARK    6  A    between atoms: C_15  and  C_17
REMARK    7  A    between atoms: C_15  and  N_26
REMARK    8  A    between atoms: N_26  and  C_34
REMARK    9  A    between atoms: C_27  and  C_29
REMARK   10  A    between atoms: C_34  and  C_35
REMARK   11  A    between atoms: C_34  and  C_36
REMARK   12  A    between atoms: C_34  and  C_37
REMARK                            x       y       z     vdW  Elec       q    Type
REMARK                         _______ _______ _______ _____ _____    ______ ____
ROOT
ATOM      1  C   UNL     1       3.007  -6.522   0.941  0.00  0.00    +0.193 C 
ENDROOT
BRANCH   1   2
ATOM      2  C   UNL     1       4.129  -7.525   0.849  0.00  0.00    -0.014 A 
ATOM      3  C   UNL     1       4.366  -8.392   1.900  0.00  0.00    +0.010 A 
ATOM      4  C   UNL     1       5.393  -9.313   1.820  0.00  0.00    +0.050 A 
ATOM      5  C   UNL     1       6.188  -9.370   0.687  0.00  0.00    +0.166 A 
ATOM      6  C   UNL     1       5.949  -8.497  -0.371  0.00  0.00    +0.167 A 
ATOM      7  C   UNL     1       4.914  -7.580  -0.287  0.00  0.00    +0.055 A 
ATOM      8  O   UNL     1       6.856  -8.749  -1.359  0.00  0.00    -0.453 OA
ATOM      9  C   UNL     1       7.908  -9.506  -0.731  0.00  0.00    +0.466 C 
ATOM     10  O   UNL     1       7.246 -10.170   0.362  0.00  0.00    -0.453 OA
ENDBRANCH   1   2
BRANCH   1  12
ATOM     11  N   UNL     1       2.514  -5.953  -1.415  0.00  0.00    -0.294 N 
ATOM     12  C   UNL     1       2.151  -6.612  -0.297  0.00  0.00    +0.239 C 
ATOM     13  O   UNL     1       1.137  -7.276  -0.285  0.00  0.00    -0.273 OA
ATOM     14  H   UNL     1       3.325  -5.422  -1.424  0.00  0.00    +0.150 HD
BRANCH  11  15
ATOM     15  C   UNL     1       1.682  -6.040  -2.618  0.00  0.00    +0.278 C 
BRANCH  15  16
ATOM     16  S   UNL     1       0.547  -4.625  -2.672  0.00  0.00    +0.013 S 
ATOM     17  O   UNL     1      -0.081  -4.453  -1.409  0.00  0.00    -0.168 OA
ATOM     18  O   UNL     1      -0.223  -4.661  -3.866  0.00  0.00    -0.168 OA
BRANCH  16  23
ATOM     19  C   UNL     1       4.113   0.203  -3.288  0.00  0.00    +0.044 C 
ATOM     20  C   UNL     1       3.223  -1.003  -3.135  0.00  0.00    -0.050 A 
ATOM     21  C   UNL     1       2.746  -1.658  -4.255  0.00  0.00    +0.005 A 
ATOM     22  C   UNL     1       1.929  -2.764  -4.114  0.00  0.00    +0.027 A 
ATOM     23  C   UNL     1       1.589  -3.216  -2.852  0.00  0.00    +0.090 A 
ATOM     24  C   UNL     1       2.067  -2.562  -1.732  0.00  0.00    +0.027 A 
ATOM     25  C   UNL     1       2.887  -1.458  -1.873  0.00  0.00    +0.005 A 
ENDBRANCH  16  23
ENDBRANCH  15  16
ENDBRANCH  11  15
ENDBRANCH   1  12
BRANCH   1  26
ATOM     26  N   UNL     1       2.190  -6.810   2.122  0.00  0.00    -0.274 N 
ATOM     27  C   UNL     1       2.144  -5.929   3.141  0.00  0.00    +0.283 C 
ATOM     28  O   UNL     1       1.347  -6.088   4.047  0.00  0.00    -0.267 OA
BRANCH  27  29
ATOM     29  C   UNL     1       3.054  -4.779   3.157  0.00  0.00    +0.189 A 
ATOM     30  C   UNL     1       3.069  -3.782   4.090  0.00  0.00    +0.054 A 
ATOM     31  C   UNL     1       4.094  -2.898   3.718  0.00  0.00    +0.042 A 
ATOM     32  C   UNL     1       4.652  -3.388   2.590  0.00  0.00    +0.196 A 
ATOM     33  O   UNL     1       4.026  -4.525   2.258  0.00  0.00    -0.458 OA
ENDBRANCH  27  29
BRANCH  26  34
ATOM     34  C   UNL     1       1.422  -8.056   2.195  0.00  0.00    +0.030 C 
ATOM     35  C   UNL     1       1.969  -9.053   1.172  0.00  0.00    +0.031 C 
ATOM     36  C   UNL     1       1.545  -8.649   3.600  0.00  0.00    +0.031 C 
ATOM     37  C   UNL     1      -0.049  -7.767   1.890  0.00  0.00    +0.031 C 
ENDBRANCH  26  34
ENDBRANCH   1  26
TORSDOF 8
