REMARK  Name = ZINC39623465
REMARK  9 active torsions:
REMARK  status: ('A' for Active; 'I' for Inactive)
REMARK    1  A    between atoms: C_1  and  C_2
REMARK    2  A    between atoms: C_2  and  C_3
REMARK    3  A    between atoms: C_3  and  C_4
REMARK    4  A    between atoms: C_4  and  C_5
REMARK    5  A    between atoms: C_5  and  N_6
REMARK    6  A    between atoms: C_7  and  C_9
REMARK    7  A    between atoms: C_20  and  C_22
REMARK    8  A    between atoms: C_27  and  S_28
REMARK    9  A    between atoms: S_28  and  C_29
REMARK                            x       y       z     vdW  Elec       q    Type
REMARK                         _______ _______ _______ _____ _____    ______ ____
ROOT
ATOM      1  C   UNL     1       2.143  -6.189   3.453  0.00  0.00    +0.100 C 
ATOM      2  C   UNL     1       2.819  -6.717   2.168  0.00  0.00    +0.121 C 
ATOM      3  N   UNL     1       4.232  -6.942   2.554  0.00  0.00    -0.296 N 
ATOM      4  C   UNL     1       4.155  -7.502   3.925  0.00  0.00    +0.115 C 
ATOM      5  C   UNL     1       3.021  -6.709   4.604  0.00  0.00    -0.004 C 
ATOM      6  C   UNL     1       3.597  -5.541   5.398  0.00  0.00    -0.010 C 
ATOM      7  C   UNL     1       4.420  -6.084   6.570  0.00  0.00    -0.082 C 
ATOM      8  N   UNL     1       3.564  -6.911   7.429  0.00  0.00    +0.379 N 
ATOM      9  C   UNL     1       3.088  -8.082   6.684  0.00  0.00    -0.082 C 
ATOM     10  C   UNL     1       2.209  -7.624   5.516  0.00  0.00    -0.010 C 
ATOM     11  C   UNL     1       5.338  -6.695   1.824  0.00  0.00    +0.249 C 
ATOM     12  O   UNL     1       5.243  -6.141   0.746  0.00  0.00    -0.270 OA
ATOM     13  H   UNL     1       4.092  -7.217   8.233  0.00  0.00    -0.086 HD
ATOM     14  H   UNL     1       2.773  -6.366   7.738  0.00  0.00    -0.086 HD
ENDROOT
BRANCH  11  15
ATOM     15  C   UNL     1       6.662  -7.095   2.333  0.00  0.00    +0.069 A 
ATOM     16  C   UNL     1       6.813  -8.268   3.081  0.00  0.00    +0.017 A 
ATOM     17  C   UNL     1       8.077  -8.600   3.535  0.00  0.00    +0.020 A 
ATOM     18  C   UNL     1       9.147  -7.772   3.240  0.00  0.00    +0.112 A 
ATOM     19  N   UNL     1       8.984  -6.672   2.534  0.00  0.00    -0.248 NA
ATOM     20  C   UNL     1       7.797  -6.309   2.070  0.00  0.00    +0.114 A 
BRANCH  20  21
ATOM     21  S   UNL     1       7.640  -4.830   1.125  0.00  0.00    -0.069 S 
BRANCH  21  22
ATOM     22  C   UNL     1       9.250  -4.117   1.178  0.00  0.00    +0.014 A 
ATOM     23  C   UNL     1      10.151  -4.352   0.146  0.00  0.00    +0.015 A 
ATOM     24  C   UNL     1      11.412  -3.791   0.191  0.00  0.00    +0.001 A 
ATOM     25  C   UNL     1      11.779  -2.996   1.262  0.00  0.00    +0.000 A 
ATOM     26  C   UNL     1      10.886  -2.760   2.290  0.00  0.00    +0.001 A 
ATOM     27  C   UNL     1       9.621  -3.313   2.249  0.00  0.00    +0.015 A 
ENDBRANCH  21  22
ENDBRANCH  20  21
ENDBRANCH  11  15
BRANCH   1  29
ATOM     28  N   UNL     1       1.119  -4.024   4.072  0.00  0.00    -0.315 N 
ATOM     29  C   UNL     1       2.118  -4.682   3.451  0.00  0.00    +0.218 C 
ATOM     30  O   UNL     1       2.998  -4.062   2.892  0.00  0.00    -0.275 OA
ATOM     31  H   UNL     1       0.416  -4.520   4.520  0.00  0.00    +0.149 HD
BRANCH  28  32
ATOM     32  C   UNL     1       1.095  -2.559   4.071  0.00  0.00    +0.104 C 
BRANCH  32  33
ATOM     33  C   UNL     1      -0.134  -2.068   4.838  0.00  0.00    +0.019 C 
BRANCH  33  34
ATOM     34  C   UNL     1      -0.159  -0.539   4.836  0.00  0.00    +0.001 C 
BRANCH  34  36
ATOM     35  C   UNL     1      -1.414   1.482   5.602  0.00  0.00    +0.004 C 
ATOM     36  C   UNL     1      -1.389  -0.048   5.604  0.00  0.00    -0.003 C 
ENDBRANCH  34  36
ENDBRANCH  33  34
ENDBRANCH  32  33
ENDBRANCH  28  32
ENDBRANCH   1  29
TORSDOF 8
