REMARK  Name = ZINC12412691
REMARK  9 active torsions:
REMARK  status: ('A' for Active; 'I' for Inactive)
REMARK    1  A    between atoms: C_1  and  C_2
REMARK    2  A    between atoms: C_2  and  O_3
REMARK    3  A    between atoms: O_3  and  C_4
REMARK    4  A    between atoms: C_4  and  C_6
REMARK    5  A    between atoms: C_7  and  C_31
REMARK    6  A    between atoms: C_11  and  N_23
REMARK    7  A    between atoms: C_12  and  C_14
REMARK    8  A    between atoms: C_19  and  C_22
REMARK    9  A    between atoms: C_24  and  C_26
REMARK                            x       y       z     vdW  Elec       q    Type
REMARK                         _______ _______ _______ _____ _____    ______ ____
ROOT
ATOM      1  C   UNL     1      10.383  -0.623   0.190  0.00  0.00    +0.066 C 
ATOM      2  C   UNL     1      10.485   0.713   0.189  0.00  0.00    +0.016 C 
ATOM      3  N   UNL     1       9.403   1.521  -0.073  0.00  0.00    -0.312 N 
ATOM      4  C   UNL     1       8.164   0.929  -0.071  0.00  0.00    +0.076 A 
ATOM      5  C   UNL     1       7.932  -0.430  -0.079  0.00  0.00    +0.015 A 
ATOM      6  C   UNL     1       6.609  -0.836  -0.067  0.00  0.00    +0.050 A 
ATOM      7  C   UNL     1       5.603   0.131  -0.052  0.00  0.00    +0.097 A 
ATOM      8  S   UNL     1       6.549   1.648  -0.061  0.00  0.00    -0.067 S 
ATOM      9  C   UNL     1       9.122  -1.382  -0.104  0.00  0.00    +0.098 C 
ATOM     10  C   UNL     1      11.820   1.347   0.482  0.00  0.00    +0.061 C 
ATOM     11  H   UNL     1       9.511   2.468  -0.251  0.00  0.00    +0.152 HD
ENDROOT
BRANCH   7  12
ATOM     12  C   UNL     1       4.205  -0.043  -0.039  0.00  0.00    +0.258 C 
ATOM     13  O   UNL     1       3.731  -1.166  -0.041  0.00  0.00    -0.269 OA
ATOM     14  N   UNL     1       3.392   1.032  -0.025  0.00  0.00    -0.263 N 
ATOM     15  C   UNL     1       2.009   0.860  -0.013  0.00  0.00    +0.168 A 
ATOM     16  C   UNL     1       1.303  -0.373  -0.012  0.00  0.00    +0.091 A 
ATOM     17  C   UNL     1       0.002  -0.004   0.002  0.00  0.00    +0.136 A 
ATOM     18  O   UNL     1      -0.016   1.337   0.009  0.00  0.00    -0.358 OA
ATOM     19  N   UNL     1       1.101   1.800   0.001  0.00  0.00    -0.063 NA
ATOM     20  C   UNL     1      -1.194  -0.921   0.008  0.00  0.00    +0.089 C 
ATOM     21  H   UNL     1       3.769   1.925  -0.024  0.00  0.00    +0.157 HD
ENDBRANCH   7  12
BRANCH   9  22
ATOM     22  C   UNL     1       9.226  -2.019  -1.466  0.00  0.00    +0.002 A 
ATOM     23  C   UNL     1       9.175  -3.332  -1.801  0.00  0.00    +0.012 A 
ATOM     24  C   UNL     1       9.290  -3.689  -3.131  0.00  0.00    +0.008 A 
ATOM     25  C   UNL     1       9.462  -2.717  -4.060  0.00  0.00    +0.045 A 
ATOM     26  S   UNL     1       9.457  -1.241  -3.056  0.00  0.00    -0.101 S 
ENDBRANCH   9  22
BRANCH   6  27
ATOM     27  N   UNL     1       6.286  -2.189  -0.071  0.00  0.00    -0.357 N 
ATOM     28  H   UNL     1       5.356  -2.466  -0.064  0.00  0.00    +0.142 HD
ATOM     29  H   UNL     1       6.991  -2.856  -0.083  0.00  0.00    +0.142 HD
ENDBRANCH   6  27
BRANCH   1  30
ATOM     30  C   UNL     1      11.544  -1.370   0.488  0.00  0.00    +0.338 C 
ATOM     31  O   UNL     1      12.590  -0.797   0.732  0.00  0.00    -0.245 OA
BRANCH  30  32
ATOM     32  O   UNL     1      11.494  -2.719   0.502  0.00  0.00    -0.462 OA
BRANCH  32  34
ATOM     33  C   UNL     1      12.455  -4.918   0.779  0.00  0.00    +0.048 C 
ATOM     34  C   UNL     1      12.706  -3.409   0.811  0.00  0.00    +0.229 C 
ENDBRANCH  32  34
ENDBRANCH  30  32
ENDBRANCH   1  30
TORSDOF 6
