REMARK  Name = ZINC20077892
REMARK  5 active torsions:
REMARK  status: ('A' for Active; 'I' for Inactive)
REMARK    1  A    between atoms: C_1  and  C_2
REMARK    2  A    between atoms: C_5  and  O_9
REMARK    3  A    between atoms: O_9  and  C_10
REMARK    4  A    between atoms: C_12  and  C_16
REMARK    5  A    between atoms: N_17  and  O_18
REMARK                            x       y       z     vdW  Elec       q    Type
REMARK                         _______ _______ _______ _____ _____    ______ ____
ROOT
ATOM      1  C   UNL     1      -0.046  -4.761  -1.219  0.00  0.00    +0.221 A 
ATOM      2  C   UNL     1      -0.142  -6.145  -1.259  0.00  0.00    +0.079 A 
ATOM      3  C   UNL     1      -0.247  -6.780  -2.497  0.00  0.00    +0.024 A 
ATOM      4  C   UNL     1      -0.251  -5.986  -3.650  0.00  0.00    +0.031 A 
ATOM      5  C   UNL     1      -0.151  -4.617  -3.523  0.00  0.00    +0.115 A 
ATOM      6  N   UNL     1      -0.058  -4.050  -2.334  0.00  0.00    -0.221 NA
ENDROOT
BRANCH   3   7
ATOM      7  C   UNL     1      -0.352  -8.255  -2.589  0.00  0.00    +0.163 C 
ATOM      8  N   UNL     1      -0.347  -8.976  -1.508  0.00  0.00    -0.072 NA
ATOM      9  N   UNL     1      -0.456  -8.866  -3.828  0.00  0.00    -0.340 N 
ATOM     10  H   UNL     1      -0.460  -8.328  -4.635  0.00  0.00    +0.144 HD
ATOM     11  H   UNL     1      -0.524  -9.831  -3.888  0.00  0.00    +0.144 HD
BRANCH   8  12
ATOM     12  O   UNL     1      -0.447 -10.385  -1.596  0.00  0.00    -0.408 OA
ATOM     13  H   UNL     1      -0.435 -10.835  -0.740  0.00  0.00    +0.328 HD
ENDBRANCH   8  12
ENDBRANCH   3   7
BRANCH   1  14
ATOM     14  O   UNL     1       0.057  -4.130  -0.022  0.00  0.00    -0.437 OA
BRANCH  14  19
ATOM     15  C   UNL     1       0.130   1.503  -0.004  0.00  0.00    +0.044 C 
ATOM     16  C   UNL     1       0.110  -0.004  -0.008  0.00  0.00    -0.049 A 
ATOM     17  C   UNL     1       1.299  -0.710  -0.018  0.00  0.00    +0.007 A 
ATOM     18  C   UNL     1       1.284  -2.091  -0.022  0.00  0.00    +0.048 A 
ATOM     19  C   UNL     1       0.074  -2.771  -0.017  0.00  0.00    +0.144 A 
ATOM     20  C   UNL     1      -1.118  -2.060  -0.007  0.00  0.00    +0.060 A 
ATOM     21  C   UNL     1      -1.097  -0.678   0.003  0.00  0.00    +0.022 A 
ATOM     22 BR   UNL     1      -2.769  -2.982  -0.001  0.00  0.00    -0.046 Br
ENDBRANCH  14  19
ENDBRANCH   1  14
TORSDOF 4
