REMARK  Name = ZINC35505382
REMARK  9 active torsions:
REMARK  status: ('A' for Active; 'I' for Inactive)
REMARK    1  A    between atoms: C_1  and  C_2
REMARK    2  A    between atoms: C_6  and  C_12
REMARK    3  A    between atoms: C_12  and  O_13
REMARK    4  A    between atoms: O_13  and  C_14
REMARK    5  A    between atoms: C_14  and  C_16
REMARK    6  A    between atoms: C_21  and  N_22
REMARK    7  A    between atoms: C_23  and  C_25
REMARK    8  A    between atoms: C_25  and  O_26
REMARK    9  A    between atoms: O_26  and  C_27
REMARK                            x       y       z     vdW  Elec       q    Type
REMARK                         _______ _______ _______ _____ _____    ______ ____
ROOT
ATOM      1  C   UNL     1      -3.732  -7.154   2.603  0.00  0.00    +0.080 A 
ATOM      2  C   UNL     1      -3.610  -6.247   3.659  0.00  0.00    +0.017 A 
ATOM      3  C   UNL     1      -4.340  -6.433   4.813  0.00  0.00    +0.001 A 
ATOM      4  C   UNL     1      -5.195  -7.517   4.933  0.00  0.00    +0.002 A 
ATOM      5  C   UNL     1      -5.326  -8.422   3.899  0.00  0.00    +0.024 A 
ATOM      6  C   UNL     1      -4.604  -8.247   2.726  0.00  0.00    +0.048 A 
ENDROOT
BRANCH   6   7
ATOM      7  N   UNL     1      -4.739  -9.156   1.679  0.00  0.00    -0.282 N 
ATOM      8  C   UNL     1      -5.934  -9.731   1.436  0.00  0.00    +0.255 C 
ATOM      9  O   UNL     1      -6.911  -9.387   2.066  0.00  0.00    -0.272 OA
ATOM     10  H   UNL     1      -3.974  -9.374   1.125  0.00  0.00    +0.155 HD
BRANCH   8  11
ATOM     11  C   UNL     1      -6.054 -10.801   0.382  0.00  0.00    +0.325 C 
BRANCH  11  12
ATOM     12  O   UNL     1      -7.409 -11.251   0.312  0.00  0.00    -0.480 OA
BRANCH  12  13
ATOM     13  C   UNL     1      -7.691 -12.223  -0.596  0.00  0.00    +0.156 A 
ATOM     14  C   UNL     1      -6.684 -12.736  -1.399  0.00  0.00    +0.048 A 
ATOM     15  C   UNL     1      -6.972 -13.723  -2.321  0.00  0.00    +0.004 A 
ATOM     16  C   UNL     1      -8.264 -14.200  -2.445  0.00  0.00    +0.003 A 
ATOM     17  C   UNL     1      -9.271 -13.691  -1.647  0.00  0.00    +0.042 A 
ATOM     18  C   UNL     1      -8.987 -12.707  -0.717  0.00  0.00    +0.165 A 
ATOM     19  F   UNL     1      -9.970 -12.213   0.068  0.00  0.00    -0.202 F 
ENDBRANCH  12  13
ENDBRANCH  11  12
ENDBRANCH   8  11
ENDBRANCH   6   7
BRANCH   1  20
ATOM     20  C   UNL     1      -2.956  -6.961   1.365  0.00  0.00    +0.341 C 
ATOM     21  O   UNL     1      -2.999  -7.796   0.484  0.00  0.00    -0.245 OA
BRANCH  20  22
ATOM     22  O   UNL     1      -2.197  -5.858   1.212  0.00  0.00    -0.455 OA
BRANCH  22  23
ATOM     23  C   UNL     1      -1.471  -5.735  -0.013  0.00  0.00    +0.288 C 
BRANCH  23  29
ATOM     24  C   UNL     1      -0.017   1.509   0.051  0.00  0.00    +0.089 C 
ATOM     25  C   UNL     1       0.003   0.002   0.036  0.00  0.00    +0.134 A 
ATOM     26  C   UNL     1      -1.084  -0.791   0.035  0.00  0.00    +0.093 A 
ATOM     27  C   UNL     1      -0.654  -2.136   0.019  0.00  0.00    +0.177 A 
ATOM     28  N   UNL     1      -1.321  -3.286   0.011  0.00  0.00    -0.228 NA
ATOM     29  C   UNL     1      -0.686  -4.449  -0.005  0.00  0.00    +0.086 A 
ATOM     30  C   UNL     1       0.694  -4.484  -0.014  0.00  0.00    +0.100 A 
ATOM     31  C   UNL     1       1.400  -3.272  -0.006  0.00  0.00    +0.287 A 
ATOM     32  O   UNL     1       2.621  -3.264  -0.013  0.00  0.00    -0.265 OA
ATOM     33  N   UNL     1       0.707  -2.117   0.011  0.00  0.00    -0.119 N 
ATOM     34  O   UNL     1       1.106  -0.759   0.016  0.00  0.00    -0.373 OA
ENDBRANCH  23  29
ENDBRANCH  22  23
ENDBRANCH  20  22
ENDBRANCH   1  20
TORSDOF 8
