REMARK  Name = ZINC66349123
REMARK  13 active torsions:
REMARK  status: ('A' for Active; 'I' for Inactive)
REMARK    1  A    between atoms: C_1  and  C_2
REMARK    2  A    between atoms: C_2  and  C_3
REMARK    3  A    between atoms: C_7  and  C_11
REMARK    4  A    between atoms: C_7  and  C_12
REMARK    5  A    between atoms: N_13  and  C_14
REMARK    6  A    between atoms: C_14  and  CA_15
REMARK    7  A    between atoms: CA_15  and  C_17
REMARK    8  A    between atoms: CA_15  and  N_20
REMARK    9  A    between atoms: C_21  and  O_23
REMARK   10  A    between atoms: O_23  and  C_24
REMARK   11  A    between atoms: C_24  and  C_25
REMARK   12  A    between atoms: C_24  and  C_26
REMARK   13  A    between atoms: C_24  and  C_27
REMARK                            x       y       z     vdW  Elec       q    Type
REMARK                         _______ _______ _______ _____ _____    ______ ____
ROOT
ATOM      1  C   UNL     1      -0.016   0.166  -2.367  0.00  0.00    +0.175 C 
ENDROOT
BRANCH   1   4
ATOM      2  C   UNL     1      -0.363   1.504   0.051  0.00  0.00    +0.066 C 
ATOM      3  C   UNL     1      -0.092   0.022   0.020  0.00  0.00    +0.047 C 
ATOM      4  N   UNL     1       0.012  -0.594  -1.115  0.00  0.00    -0.285 NA
BRANCH   3   5
ATOM      5  C   UNL     1       0.053  -0.726   1.279  0.00  0.00    +0.080 C 
ATOM      6  C   UNL     1      -0.985  -1.552   1.709  0.00  0.00    +0.169 C 
ATOM      7  O   UNL     1      -2.001  -1.645   1.038  0.00  0.00    -0.292 OA
ATOM      8  C   UNL     1      -0.864  -2.331   2.993  0.00  0.00    +0.086 C 
ATOM      9  C   UNL     1       0.039  -1.568   3.966  0.00  0.00    -0.021 C 
ATOM     10  C   UNL     1       1.406  -1.350   3.312  0.00  0.00    +0.086 C 
ATOM     11  C   UNL     1       1.229  -0.600   2.018  0.00  0.00    +0.169 C 
ATOM     12  O   UNL     1       2.122   0.129   1.614  0.00  0.00    -0.292 OA
ATOM     13  C   UNL     1       0.209  -2.381   5.250  0.00  0.00    +0.012 C 
ATOM     14  C   UNL     1      -0.593  -0.214   4.295  0.00  0.00    +0.012 C 
ENDBRANCH   3   5
ENDBRANCH   1   4
BRANCH   1  15
ATOM     15  CA  UNL     1       1.331   0.026  -3.078  0.00  0.00    +0.210 C 
BRANCH  15  16
ATOM     16  N   UNL     1       2.408   0.432  -2.171  0.00  0.00    -0.266 N 
ATOM     17  C   UNL     1       3.654  -0.052  -2.345  0.00  0.00    +0.401 C 
ATOM     18  O   UNL     1       3.884  -0.825  -3.253  0.00  0.00    -0.226 OA
ATOM     19  H   UNL     1       2.224   1.049  -1.446  0.00  0.00    +0.153 HD
BRANCH  17  20
ATOM     20  O   UNL     1       4.643   0.321  -1.511  0.00  0.00    -0.445 OA
BRANCH  20  21
ATOM     21  C   UNL     1       5.939  -0.231  -1.754  0.00  0.00    +0.107 C 
ATOM     22  C   UNL     1       6.409   0.168  -3.154  0.00  0.00    +0.055 C 
ATOM     23  C   UNL     1       6.924   0.305  -0.713  0.00  0.00    +0.055 C 
ATOM     24  C   UNL     1       5.870  -1.756  -1.653  0.00  0.00    +0.055 C 
ENDBRANCH  20  21
ENDBRANCH  17  20
ENDBRANCH  15  16
BRANCH  15  25
ATOM     25  C   UNL     1       1.347   0.905  -4.302  0.00  0.00    +0.378 C 
ATOM     26  O   UNL     1       1.741   2.056  -4.221  0.00  0.00    -0.244 OA
ATOM     27  OXT UNL     1       0.966   0.466  -5.374  0.00  0.00    -0.244 OA
ENDBRANCH  15  25
ENDBRANCH   1  15
TORSDOF 7
