REMARK  Name = ZINC45443340
REMARK  12 active torsions:
REMARK  status: ('A' for Active; 'I' for Inactive)
REMARK    1  A    between atoms: C_1  and  C_2
REMARK    2  A    between atoms: C_2  and  C_4
REMARK    3  A    between atoms: C_2  and  N_14
REMARK    4  A    between atoms: C_15  and  C_17
REMARK    5  A    between atoms: C_17  and  S_18
REMARK    6  A    between atoms: S_18  and  C_19
REMARK    7  A    between atoms: C_22  and  C_31
REMARK    8  A    between atoms: N_23  and  C_24
REMARK    9  A    between atoms: C_31  and  C_33
REMARK   10  A    between atoms: C_31  and  N_34
REMARK   11  A    between atoms: N_34  and  C_35
REMARK   12  A    between atoms: N_34  and  C_36
REMARK                            x       y       z     vdW  Elec       q    Type
REMARK                         _______ _______ _______ _____ _____    ______ ____
ROOT
ATOM      1  S   UNL     1      -0.732  -1.398   4.887  0.00  0.00    -0.076 S 
ENDROOT
BRANCH   1   2
ATOM      2  C   UNL     1       0.169  -1.993   6.280  0.00  0.00    +0.197 A 
ATOM      3  N   UNL     1       1.459  -2.231   6.332  0.00  0.00    -0.122 NA
ATOM      4  N   UNL     1       1.779  -2.655   7.502  0.00  0.00    -0.135 NA
ATOM      5  C   UNL     1       0.723  -2.713   8.263  0.00  0.00    +0.125 A 
ATOM      6  N   UNL     1      -0.342  -2.287   7.514  0.00  0.00    -0.275 N 
BRANCH   6   7
ATOM      7  C   UNL     1      -1.679  -2.179   7.926  0.00  0.00    +0.050 A 
ATOM      8  C   UNL     1      -2.031  -1.262   8.908  0.00  0.00    +0.028 A 
ATOM      9  C   UNL     1      -3.348  -1.157   9.311  0.00  0.00    +0.022 A 
ATOM     10  C   UNL     1      -4.315  -1.964   8.738  0.00  0.00    +0.041 A 
ATOM     11  C   UNL     1      -3.966  -2.878   7.760  0.00  0.00    +0.022 A 
ATOM     12  C   UNL     1      -2.652  -2.983   7.349  0.00  0.00    +0.028 A 
ATOM     13 CL   UNL     1      -5.969  -1.830   9.248  0.00  0.00    -0.084 Cl
ENDBRANCH   6   7
BRANCH   5  14
ATOM     14  C   UNL     1       0.681  -3.160   9.702  0.00  0.00    -0.003 C 
ATOM     15  C   UNL     1       0.810  -4.683   9.767  0.00  0.00    -0.005 C 
BRANCH  14  16
ATOM     16  N   UNL     1       1.793  -2.543  10.438  0.00  0.00    +0.382 N 
ATOM     17  C   UNL     1       1.669  -1.080  10.376  0.00  0.00    -0.096 C 
ATOM     18  C   UNL     1       1.752  -2.978  11.841  0.00  0.00    -0.096 C 
ATOM     19  H   UNL     1       2.668  -2.824  10.024  0.00  0.00    -0.082 HD
ENDBRANCH  14  16
ENDBRANCH   5  14
ENDBRANCH   1   2
BRANCH   1  20
ATOM     20  C   UNL     1       0.528  -1.218   3.594  0.00  0.00    +0.173 C 
BRANCH  20  22
ATOM     21  N   UNL     1       0.630  -0.498   1.230  0.00  0.00    -0.308 N 
ATOM     22  C   UNL     1      -0.118  -0.710   2.331  0.00  0.00    +0.224 C 
ATOM     23  O   UNL     1      -1.310  -0.490   2.306  0.00  0.00    -0.275 OA
ATOM     24  H   UNL     1       1.584  -0.674   1.250  0.00  0.00    +0.149 HD
BRANCH  21  26
ATOM     25  C   UNL     1      -0.038   1.525   0.030  0.00  0.00    +0.033 C 
ATOM     26  C   UNL     1       0.002  -0.004   0.002  0.00  0.00    +0.101 C 
BRANCH  26  27
ATOM     27  C   UNL     1       0.800  -0.464  -1.191  0.00  0.00    -0.020 A 
ATOM     28  C   UNL     1       2.132  -0.715  -1.067  0.00  0.00    +0.006 A 
ATOM     29  C   UNL     1       2.886  -1.141  -2.158  0.00  0.00    +0.001 A 
ATOM     30  C   UNL     1       2.313  -1.319  -3.380  0.00  0.00    +0.008 A 
ATOM     31  C   UNL     1       0.940  -1.070  -3.546  0.00  0.00    -0.018 A 
ATOM     32  C   UNL     1       0.172  -0.642  -2.435  0.00  0.00    -0.013 A 
ATOM     33  C   UNL     1      -1.203  -0.399  -2.600  0.00  0.00    +0.009 A 
ATOM     34  C   UNL     1      -1.777  -0.583  -3.820  0.00  0.00    +0.001 A 
ATOM     35  C   UNL     1      -1.023  -1.009  -4.912  0.00  0.00    +0.001 A 
ATOM     36  C   UNL     1       0.313  -1.242  -4.792  0.00  0.00    +0.008 A 
ENDBRANCH  26  27
ENDBRANCH  21  26
ENDBRANCH  20  22
ENDBRANCH   1  20
TORSDOF 8
