REMARK  Name = ZINC39706131
REMARK  7 active torsions:
REMARK  status: ('A' for Active; 'I' for Inactive)
REMARK    1  A    between atoms: C_1  and  C_2
REMARK    2  A    between atoms: C_2  and  N_3
REMARK    3  A    between atoms: C_5  and  C_9
REMARK    4  A    between atoms: C_6  and  C_8
REMARK    5  A    between atoms: C_11  and  C_22
REMARK    6  A    between atoms: C_12  and  N_21
REMARK    7  A    between atoms: C_16  and  C_20
REMARK                            x       y       z     vdW  Elec       q    Type
REMARK                         _______ _______ _______ _____ _____    ______ ____
ROOT
ATOM      1  C   UNL     1      -0.142  -3.768  -2.986  0.00  0.00    +0.096 C 
ATOM      2  C   UNL     1      -0.898  -4.575  -1.956  0.00  0.00    +0.098 C 
ATOM      3  C   UNL     1      -0.292  -5.537  -1.223  0.00  0.00    +0.200 C 
ATOM      4  O   UNL     1       1.010  -5.863  -1.337  0.00  0.00    -0.422 OA
ATOM      5  C   UNL     1       1.692  -5.393  -2.419  0.00  0.00    +0.243 C 
ATOM      6  C   UNL     1       1.187  -4.423  -3.204  0.00  0.00    +0.032 C 
ATOM      7  C   UNL     1       2.228  -4.199  -4.266  0.00  0.00    +0.157 C 
ATOM      8  N   UNL     1       3.280  -5.167  -3.897  0.00  0.00    -0.176 NA
ATOM      9  N   UNL     1       2.905  -5.771  -2.881  0.00  0.00    -0.115 NA
ATOM     10  C   UNL     1       1.663  -4.507  -5.654  0.00  0.00    +0.039 C 
ENDROOT
BRANCH   1  13
ATOM     11  N   UNL     1       0.690  -0.478  -1.207  0.00  0.00    -0.226 NA
ATOM     12  C   UNL     1       0.785  -1.951  -1.218  0.00  0.00    +0.138 C 
ATOM     13  C   UNL     1       0.060  -2.362  -2.482  0.00  0.00    -0.024 C 
ATOM     14  C   UNL     1      -0.360  -1.253  -3.057  0.00  0.00    +0.017 C 
ATOM     15  N   UNL     1      -0.004  -0.134  -2.331  0.00  0.00    -0.282 N 
ATOM     16  C   UNL     1      -1.133  -1.212  -4.350  0.00  0.00    +0.062 C 
ATOM     17  H   UNL     1      -0.220   0.777  -2.586  0.00  0.00    +0.166 HD
BRANCH  11  19
ATOM     18  C   UNL     1      -0.019   1.526   0.010  0.00  0.00    +0.022 C 
ATOM     19  C   UNL     1       0.002  -0.004   0.002  0.00  0.00    +0.102 C 
ENDBRANCH  11  19
ENDBRANCH   1  13
BRANCH   3  20
ATOM     20  N   UNL     1      -1.051  -6.223  -0.307  0.00  0.00    -0.328 N 
ATOM     21  H   UNL     1      -1.991  -6.012  -0.201  0.00  0.00    +0.145 HD
ATOM     22  H   UNL     1      -0.646  -6.919   0.234  0.00  0.00    +0.145 HD
ENDBRANCH   3  20
BRANCH   2  23
ATOM     23  C   UNL     1      -2.291  -4.315  -1.751  0.00  0.00    +0.101 C 
ATOM     24  N   UNL     1      -3.397  -4.109  -1.589  0.00  0.00    -0.191 NA
ENDBRANCH   2  23
TORSDOF 4
