REMARK  Name = ZINC01148387
REMARK  8 active torsions:
REMARK  status: ('A' for Active; 'I' for Inactive)
REMARK    1  A    between atoms: C_1  and  O_2
REMARK    2  A    between atoms: O_2  and  C_3
REMARK    3  A    between atoms: C_6  and  N_9
REMARK    4  A    between atoms: N_9  and  S_10
REMARK    5  A    between atoms: S_10  and  C_13
REMARK    6  A    between atoms: C_16  and  N_19
REMARK    7  A    between atoms: N_19  and  S_20
REMARK    8  A    between atoms: S_20  and  C_23
REMARK                            x       y       z     vdW  Elec       q    Type
REMARK                         _______ _______ _______ _____ _____    ______ ____
ROOT
ATOM      1  C   UNL     1       4.662  -1.917   3.530  0.00  0.00    +0.109 A 
ATOM      2  C   UNL     1       5.475  -0.798   3.559  0.00  0.00    +0.030 A 
ATOM      3  C   UNL     1       5.246   0.246   2.685  0.00  0.00    +0.026 A 
ATOM      4  C   UNL     1       4.199   0.172   1.775  0.00  0.00    +0.048 A 
ATOM      5  C   UNL     1       3.381  -0.951   1.752  0.00  0.00    +0.026 A 
ATOM      6  C   UNL     1       3.619  -1.994   2.626  0.00  0.00    +0.030 A 
ENDROOT
BRANCH   1   7
ATOM      7  S   UNL     1       4.957  -3.247   4.648  0.00  0.00    +0.072 S 
ATOM      8  O   UNL     1       4.294  -4.383   4.111  0.00  0.00    -0.150 OA
ATOM      9  O   UNL     1       6.350  -3.240   4.929  0.00  0.00    -0.150 OA
BRANCH   7  10
ATOM     10  N   UNL     1       4.186  -2.875   6.066  0.00  0.00    -0.216 N 
ATOM     11  H   UNL     1       4.702  -2.719   6.872  0.00  0.00    +0.174 HD
BRANCH  10  15
ATOM     12  C   UNL     1       0.028  -2.611   6.170  0.00  0.00    +0.120 A 
ATOM     13  C   UNL     1       0.641  -3.851   6.077  0.00  0.00    +0.047 A 
ATOM     14  C   UNL     1       2.019  -3.939   6.042  0.00  0.00    +0.028 A 
ATOM     15  C   UNL     1       2.790  -2.786   6.100  0.00  0.00    +0.048 A 
ATOM     16  C   UNL     1       2.175  -1.545   6.199  0.00  0.00    +0.028 A 
ATOM     17  C   UNL     1       0.797  -1.458   6.227  0.00  0.00    +0.047 A 
BRANCH  12  19
ATOM     18  C   UNL     1      -1.894  -1.215   6.300  0.00  0.00    +0.277 C 
ATOM     19  O   UNL     1      -1.329  -2.524   6.204  0.00  0.00    -0.495 OA
ENDBRANCH  12  19
ENDBRANCH  10  15
ENDBRANCH   7  10
ENDBRANCH   1   7
BRANCH   4  20
ATOM     20  N   UNL     1       3.964   1.226   0.890  0.00  0.00    -0.216 N 
ATOM     21  H   UNL     1       3.964   2.140   1.214  0.00  0.00    +0.174 HD
BRANCH  20  22
ATOM     22  S   UNL     1       3.687   0.915  -0.713  0.00  0.00    +0.079 S 
ATOM     23  O   UNL     1       3.593   2.176  -1.361  0.00  0.00    -0.149 OA
ATOM     24  O   UNL     1       2.643  -0.048  -0.765  0.00  0.00    -0.149 OA
BRANCH  22  25
ATOM     25  C   UNL     1       5.130   0.129  -1.348  0.00  0.00    +0.147 A 
ATOM     26  C   UNL     1       5.467  -1.183  -1.324  0.00  0.00    +0.038 A 
ATOM     27  C   UNL     1       6.665  -1.579  -1.891  0.00  0.00    +0.025 A 
ATOM     28  C   UNL     1       7.467  -0.640  -2.453  0.00  0.00    +0.057 A 
ATOM     29  S   UNL     1       6.527   0.855  -2.190  0.00  0.00    -0.061 S 
ATOM     30 BR   UNL     1       9.145  -0.859  -3.297  0.00  0.00    -0.043 Br
ENDBRANCH  22  25
ENDBRANCH  20  22
ENDBRANCH   4  20
TORSDOF 7
