REMARK  Name = ZINC26570616
REMARK  13 active torsions:
REMARK  status: ('A' for Active; 'I' for Inactive)
REMARK    1  A    between atoms: C_1  and  C_2
REMARK    2  A    between atoms: C_2  and  O_3
REMARK    3  A    between atoms: O_3  and  C_4
REMARK    4  A    between atoms: C_4  and  C_6
REMARK    5  A    between atoms: C_7  and  C_37
REMARK    6  A    between atoms: C_14  and  C_15
REMARK    7  A    between atoms: C_16  and  C_17
REMARK    8  A    between atoms: C_20  and  N_23
REMARK    9  A    between atoms: N_23  and  C_24
REMARK   10  A    between atoms: N_23  and  C_25
REMARK   11  A    between atoms: C_27  and  C_29
REMARK   12  A    between atoms: C_32  and  O_35
REMARK   13  A    between atoms: O_35  and  C_36
REMARK                            x       y       z     vdW  Elec       q    Type
REMARK                         _______ _______ _______ _____ _____    ______ ____
ROOT
ATOM      1  C   UNL     1       4.596   5.367   0.040  0.00  0.00    +0.085 C 
ATOM      2  C   UNL     1       5.423   4.281  -0.048  0.00  0.00    +0.053 C 
ATOM      3  N   UNL     1       4.922   3.054  -0.102  0.00  0.00    -0.228 NA
ATOM      4  C   UNL     1       3.644   2.767  -0.079  0.00  0.00    +0.178 A 
ATOM      5  N   UNL     1       2.644   3.708   0.005  0.00  0.00    -0.275 N 
ATOM      6  C   UNL     1       1.371   3.292   0.015  0.00  0.00    +0.268 A 
ATOM      7  O   UNL     1       0.453   4.090   0.083  0.00  0.00    -0.266 OA
ATOM      8  C   UNL     1       1.115   1.851  -0.054  0.00  0.00    +0.080 A 
ATOM      9  C   UNL     1      -0.084   1.175  -0.056  0.00  0.00    +0.020 C 
ATOM     10  S   UNL     1       2.779   1.210  -0.142  0.00  0.00    -0.046 S 
ATOM     11  C   UNL     1       3.104   5.123   0.072  0.00  0.00    +0.162 C 
ATOM     12  C   UNL     1       6.916   4.481  -0.083  0.00  0.00    +0.066 C 
ENDROOT
BRANCH  11  13
ATOM     13  C   UNL     1       2.564   5.727   1.343  0.00  0.00    -0.020 A 
ATOM     14  C   UNL     1       2.541   4.980   2.506  0.00  0.00    +0.009 A 
ATOM     15  C   UNL     1       2.051   5.533   3.674  0.00  0.00    +0.046 A 
ATOM     16  C   UNL     1       1.571   6.835   3.675  0.00  0.00    +0.120 A 
ATOM     17  C   UNL     1       1.590   7.580   2.505  0.00  0.00    +0.046 A 
ATOM     18  C   UNL     1       2.086   7.024   1.342  0.00  0.00    +0.009 A 
BRANCH  16  19
ATOM     19  O   UNL     1       1.083   7.378   4.821  0.00  0.00    -0.495 OA
ATOM     20  C   UNL     1       1.094   6.553   5.987  0.00  0.00    +0.277 C 
ENDBRANCH  16  19
ENDBRANCH  11  13
BRANCH   1  21
ATOM     21  C   UNL     1       5.117   6.669   0.098  0.00  0.00    +0.339 C 
ATOM     22  O   UNL     1       6.320   6.841   0.181  0.00  0.00    -0.245 OA
BRANCH  21  23
ATOM     23  O   UNL     1       4.284   7.732   0.062  0.00  0.00    -0.462 OA
BRANCH  23  25
ATOM     24  C   UNL     1       3.790  10.098   0.071  0.00  0.00    +0.048 C 
ATOM     25  C   UNL     1       4.883   9.028   0.125  0.00  0.00    +0.229 C 
ENDBRANCH  23  25
ENDBRANCH  21  23
ENDBRANCH   1  21
BRANCH   9  26
ATOM     26  C   UNL     1      -1.294   1.889   0.016  0.00  0.00    +0.002 C 
ATOM     27  C   UNL     1      -2.475   1.223   0.008  0.00  0.00    +0.008 C 
BRANCH  27  28
ATOM     28  C   UNL     1      -3.738   1.968   0.083  0.00  0.00    -0.025 A 
ATOM     29  C   UNL     1      -3.725   3.366   0.169  0.00  0.00    +0.010 A 
ATOM     30  C   UNL     1      -4.907   4.058   0.233  0.00  0.00    +0.023 A 
ATOM     31  C   UNL     1      -6.119   3.372   0.225  0.00  0.00    +0.029 A 
ATOM     32  C   UNL     1      -6.137   1.982   0.146  0.00  0.00    +0.023 A 
ATOM     33  C   UNL     1      -4.960   1.282   0.075  0.00  0.00    +0.010 A 
BRANCH  31  34
ATOM     34  N   UNL     1      -7.316   4.079   0.295  0.00  0.00    -0.336 N 
ATOM     35  C   UNL     1      -8.593   3.360   0.286  0.00  0.00    +0.129 C 
ATOM     36  C   UNL     1      -7.300   5.541   0.378  0.00  0.00    +0.129 C 
ENDBRANCH  31  34
ENDBRANCH  27  28
ENDBRANCH   9  26
TORSDOF 8
