REMARK  Name = ZINC43223123
REMARK  7 active torsions:
REMARK  status: ('A' for Active; 'I' for Inactive)
REMARK    1  A    between atoms: C_9  and  N_11
REMARK    2  A    between atoms: C_12  and  C_14
REMARK    3  A    between atoms: C_19  and  C_21
REMARK    4  A    between atoms: N_23  and  C_24
REMARK    5  A    between atoms: C_24  and  C_25
REMARK    6  A    between atoms: C_27  and  C_35
REMARK    7  A    between atoms: C_29  and  C_31
REMARK                            x       y       z     vdW  Elec       q    Type
REMARK                         _______ _______ _______ _____ _____    ______ ____
ROOT
ATOM      1  C   UNL     1       6.566   0.843  -1.604  0.00  0.00    +0.068 C 
ATOM      2  C   UNL     1       5.901   1.598  -2.775  0.00  0.00    -0.069 C 
ATOM      3  N   UNL     1       5.990   3.031  -2.394  0.00  0.00    +0.380 N 
ATOM      4  C   UNL     1       7.335   3.162  -1.777  0.00  0.00    -0.069 C 
ATOM      5  C   UNL     1       7.512   1.869  -0.947  0.00  0.00    +0.068 C 
ATOM      6  H   UNL     1       5.918   3.619  -3.211  0.00  0.00    -0.086 HD
ATOM      7  H   UNL     1       5.271   3.264  -1.726  0.00  0.00    -0.086 HD
ENDROOT
BRANCH   1   9
ATOM      8  N   UNL     1       4.577  -0.496  -0.997  0.00  0.00    -0.308 N 
ATOM      9  C   UNL     1       5.524   0.384  -0.617  0.00  0.00    +0.215 C 
ATOM     10  O   UNL     1       5.538   0.807   0.520  0.00  0.00    -0.276 OA
ATOM     11  H   UNL     1       4.566  -0.835  -1.906  0.00  0.00    +0.149 HD
BRANCH   8  20
ATOM     12  C   UNL     1      -0.017   1.377   0.010  0.00  0.00    +0.000 A 
ATOM     13  C   UNL     1       1.172   2.083   0.002  0.00  0.00    +0.000 A 
ATOM     14  C   UNL     1       2.376   1.406  -0.013  0.00  0.00    +0.006 A 
ATOM     15  C   UNL     1       2.396   0.021  -0.021  0.00  0.00    -0.024 A 
ATOM     16  C   UNL     1       1.208  -0.685  -0.013  0.00  0.00    -0.042 A 
ATOM     17  C   UNL     1       0.002  -0.004   0.002  0.00  0.00    +0.004 A 
ATOM     18  C   UNL     1       1.496  -2.171  -0.025  0.00  0.00    +0.037 C 
ATOM     19  C   UNL     1       2.966  -2.294  -0.480  0.00  0.00    +0.032 C 
ATOM     20  C   UNL     1       3.564  -0.942  -0.037  0.00  0.00    +0.104 C 
ENDBRANCH   8  20
ENDBRANCH   1   9
BRANCH   5  21
ATOM     21  C   UNL     1       8.938   1.389  -1.020  0.00  0.00    +0.215 C 
ATOM     22  O   UNL     1       9.194   0.326  -1.545  0.00  0.00    -0.276 OA
ATOM     23  N   UNL     1       9.930   2.141  -0.502  0.00  0.00    -0.311 N 
ATOM     24  H   UNL     1       9.725   2.991  -0.082  0.00  0.00    +0.149 HD
BRANCH  23  25
ATOM     25  C   UNL     1      11.316   1.674  -0.572  0.00  0.00    +0.139 C 
BRANCH  25  26
ATOM     26  C   UNL     1      12.222   2.690   0.074  0.00  0.00    -0.029 A 
ATOM     27  C   UNL     1      12.765   3.712  -0.682  0.00  0.00    +0.017 A 
ATOM     28  C   UNL     1      13.596   4.644  -0.089  0.00  0.00    +0.056 A 
ATOM     29  C   UNL     1      13.883   4.555   1.260  0.00  0.00    +0.024 A 
ATOM     30  C   UNL     1      13.340   3.533   2.016  0.00  0.00    +0.056 A 
ATOM     31  C   UNL     1      12.505   2.604   1.424  0.00  0.00    +0.017 A 
BRANCH  30  32
ATOM     32  C   UNL     1      13.653   3.436   3.487  0.00  0.00    +0.417 C 
ATOM     33  F   UNL     1      14.508   4.481   3.852  0.00  0.00    -0.166 F 
ATOM     34  F   UNL     1      12.467   3.524   4.224  0.00  0.00    -0.166 F 
ATOM     35  F   UNL     1      14.276   2.211   3.751  0.00  0.00    -0.166 F 
ENDBRANCH  30  32
BRANCH  28  36
ATOM     36  C   UNL     1      14.189   5.758  -0.914  0.00  0.00    +0.417 C 
ATOM     37  F   UNL     1      13.328   6.860  -0.896  0.00  0.00    -0.166 F 
ATOM     38  F   UNL     1      15.428   6.125  -0.378  0.00  0.00    -0.166 F 
ATOM     39  F   UNL     1      14.361   5.321  -2.232  0.00  0.00    -0.166 F 
ENDBRANCH  28  36
ENDBRANCH  25  26
ENDBRANCH  23  25
ENDBRANCH   5  21
TORSDOF 7
