REMARK  Name = ZINC05383646
REMARK  6 active torsions:
REMARK  status: ('A' for Active; 'I' for Inactive)
REMARK    1  A    between atoms: C_1  and  C_2
REMARK    2  A    between atoms: C_2  and  C_3
REMARK    3  A    between atoms: C_2  and  C_4
REMARK    4  A    between atoms: C_2  and  N_5
REMARK    5  A    between atoms: C_6  and  C_8
REMARK    6  A    between atoms: C_14  and  C_16
REMARK                            x       y       z     vdW  Elec       q    Type
REMARK                         _______ _______ _______ _____ _____    ______ ____
ROOT
ATOM      1  C   UNL     1       2.458   0.028   0.382  0.00  0.00    +0.093 C 
ATOM      2  C   UNL     1       1.307  -0.903  -0.005  0.00  0.00    +0.040 C 
ATOM      3  C   UNL     1       0.004  -0.159   0.037  0.00  0.00    -0.030 C 
ATOM      4  C   UNL     1      -0.095   1.131   0.040  0.00  0.00    -0.030 C 
ATOM      5  C   UNL     1       1.080   2.064   0.013  0.00  0.00    +0.042 C 
ATOM      6  C   UNL     1       2.336   1.317  -0.441  0.00  0.00    +0.118 C 
ENDROOT
BRANCH   1   8
ATOM      7  N   UNL     1       3.498   0.440   2.588  0.00  0.00    -0.310 N 
ATOM      8  C   UNL     1       2.373   0.355   1.851  0.00  0.00    +0.218 C 
ATOM      9  O   UNL     1       1.293   0.541   2.369  0.00  0.00    -0.275 OA
ATOM     10  H   UNL     1       4.362   0.291   2.173  0.00  0.00    +0.149 HD
BRANCH   7  12
ATOM     11  C   UNL     1       2.587  -0.312   4.729  0.00  0.00    +0.031 C 
ATOM     12  C   UNL     1       3.416   0.758   4.016  0.00  0.00    +0.026 C 
ATOM     13  C   UNL     1       4.825   0.793   4.612  0.00  0.00    +0.031 C 
ATOM     14  C   UNL     1       2.751   2.124   4.197  0.00  0.00    +0.031 C 
ENDBRANCH   7  12
ENDBRANCH   1   8
BRANCH   6  15
ATOM     15  C   UNL     1       3.553   2.178  -0.215  0.00  0.00    +0.360 C 
ATOM     16  O   UNL     1       4.429   1.803   0.526  0.00  0.00    -0.246 OA
ATOM     17  O   UNL     1       3.662   3.362  -0.839  0.00  0.00    -0.246 OA
ENDBRANCH   6  15
TORSDOF 3
