REMARK  Name = ZINC28292644
REMARK  11 active torsions:
REMARK  status: ('A' for Active; 'I' for Inactive)
REMARK    1  A    between atoms: C_1  and  N_2
REMARK    2  A    between atoms: N_2  and  C_3
REMARK    3  A    between atoms: N_2  and  S_4
REMARK    4  A    between atoms: S_4  and  C_7
REMARK    5  A    between atoms: C_10  and  C_13
REMARK    6  A    between atoms: C_13  and  O_15
REMARK    7  A    between atoms: O_15  and  C_16
REMARK    8  A    between atoms: C_16  and  C_17
REMARK    9  A    between atoms: N_19  and  C_20
REMARK   10  A    between atoms: C_25  and  O_26
REMARK   11  A    between atoms: O_26  and  C_27
REMARK                            x       y       z     vdW  Elec       q    Type
REMARK                         _______ _______ _______ _____ _____    ______ ____
ROOT
ATOM      1  C   UNL     1       3.605   2.013  -0.803  0.00  0.00    +0.255 C 
ATOM      2  O   UNL     1       3.480   3.174  -1.131  0.00  0.00    -0.272 OA
ATOM      3  N   UNL     1       4.797   1.560  -0.367  0.00  0.00    -0.280 N 
ATOM      4  H   UNL     1       4.907   0.511  -0.055  0.00  0.00    +0.155 HD
ENDROOT
BRANCH   3   5
ATOM      5  C   UNL     1       5.897   2.426  -0.312  0.00  0.00    +0.076 A 
ATOM      6  C   UNL     1       5.702   3.799  -0.302  0.00  0.00    +0.027 A 
ATOM      7  C   UNL     1       6.789   4.651  -0.247  0.00  0.00    +0.002 A 
ATOM      8  C   UNL     1       8.073   4.138  -0.202  0.00  0.00    +0.004 A 
ATOM      9  C   UNL     1       8.275   2.770  -0.212  0.00  0.00    +0.048 A 
ATOM     10  C   UNL     1       7.191   1.909  -0.261  0.00  0.00    +0.150 A 
BRANCH  10  11
ATOM     11  O   UNL     1       7.388   0.564  -0.265  0.00  0.00    -0.454 OA
BRANCH  11  12
ATOM     12  C   UNL     1       7.364  -0.081  -1.461  0.00  0.00    +0.129 A 
ATOM     13  C   UNL     1       7.036   0.612  -2.618  0.00  0.00    +0.046 A 
ATOM     14  C   UNL     1       7.017  -0.045  -3.832  0.00  0.00    +0.004 A 
ATOM     15  C   UNL     1       7.315  -1.394  -3.895  0.00  0.00    +0.000 A 
ATOM     16  C   UNL     1       7.637  -2.088  -2.743  0.00  0.00    +0.004 A 
ATOM     17  C   UNL     1       7.662  -1.435  -1.526  0.00  0.00    +0.046 A 
ENDBRANCH  11  12
ENDBRANCH  10  11
ENDBRANCH   3   5
BRANCH   1  18
ATOM     18  C   UNL     1       2.427   1.076  -0.883  0.00  0.00    +0.328 C 
BRANCH  18  19
ATOM     19  O   UNL     1       1.268   1.798  -1.378  0.00  0.00    -0.452 OA
BRANCH  19  20
ATOM     20  C   UNL     1       0.123   1.100  -1.509  0.00  0.00    +0.340 C 
ATOM     21  O   UNL     1       0.094  -0.079  -1.218  0.00  0.00    -0.245 OA
BRANCH  20  25
ATOM     22  C   UNL     1      -3.379   3.017  -2.956  0.00  0.00    +0.105 A 
ATOM     23  C   UNL     1      -3.416   1.674  -2.626  0.00  0.00    +0.029 A 
ATOM     24  C   UNL     1      -2.282   1.045  -2.155  0.00  0.00    +0.017 A 
ATOM     25  C   UNL     1      -1.095   1.767  -2.012  0.00  0.00    +0.059 A 
ATOM     26  C   UNL     1      -1.067   3.123  -2.342  0.00  0.00    +0.017 A 
ATOM     27  C   UNL     1      -2.206   3.738  -2.817  0.00  0.00    +0.029 A 
BRANCH  22  28
ATOM     28  S   UNL     1      -4.832   3.812  -3.557  0.00  0.00    +0.060 S 
ATOM     29  O   UNL     1      -4.397   4.936  -4.310  0.00  0.00    -0.153 OA
ATOM     30  O   UNL     1      -5.652   2.794  -4.112  0.00  0.00    -0.153 OA
BRANCH  28  32
ATOM     31  C   UNL     1      -5.363   5.764  -1.761  0.00  0.00    +0.131 C 
ATOM     32  N   UNL     1      -5.643   4.409  -2.242  0.00  0.00    -0.183 NA
ATOM     33  C   UNL     1      -6.641   3.581  -1.560  0.00  0.00    +0.131 C 
ENDBRANCH  28  32
ENDBRANCH  22  28
ENDBRANCH  20  25
ENDBRANCH  19  20
ENDBRANCH  18  19
ENDBRANCH   1  18
TORSDOF 9
