REMARK  Name = ZINC12603063
REMARK  8 active torsions:
REMARK  status: ('A' for Active; 'I' for Inactive)
REMARK    1  A    between atoms: C_1  and  N_2
REMARK    2  A    between atoms: C_6  and  C_7
REMARK    3  A    between atoms: C_7  and  N_8
REMARK    4  A    between atoms: N_8  and  C_9
REMARK    5  A    between atoms: C_12  and  C_35
REMARK    6  A    between atoms: C_15  and  C_31
REMARK    7  A    between atoms: C_31  and  O_33
REMARK    8  A    between atoms: O_33  and  C_34
REMARK                            x       y       z     vdW  Elec       q    Type
REMARK                         _______ _______ _______ _____ _____    ______ ____
ROOT
ATOM      1  C   UNL     1       5.312   1.975   1.209  0.00  0.00    -0.068 C 
ATOM      2  C   UNL     1       5.979   0.620   1.457  0.00  0.00    +0.008 C 
ATOM      3  C   UNL     1       5.518  -0.378   0.391  0.00  0.00    +0.090 C 
ATOM      4  N   UNL     1       4.057  -0.507   0.447  0.00  0.00    -0.274 NA
ATOM      5  C   UNL     1       3.571  -1.583  -0.424  0.00  0.00    +0.172 C 
ATOM      6  C   UNL     1       2.127  -1.938  -0.040  0.00  0.00    +0.068 C 
ATOM      7  C   UNL     1       1.339  -0.657   0.065  0.00  0.00    -0.016 A 
ATOM      8  C   UNL     1      -0.093  -0.463   0.097  0.00  0.00    +0.003 A 
ATOM      9  C   UNL     1      -1.174  -1.349   0.043  0.00  0.00    +0.010 A 
ATOM     10  C   UNL     1      -2.431  -0.800   0.098  0.00  0.00    +0.001 A 
ATOM     11  C   UNL     1      -2.633   0.567   0.202  0.00  0.00    +0.002 A 
ATOM     12  C   UNL     1      -1.583   1.467   0.253  0.00  0.00    +0.026 A 
ATOM     13  C   UNL     1      -0.295   0.938   0.203  0.00  0.00    +0.047 A 
ATOM     14  N   UNL     1       0.937   1.526   0.232  0.00  0.00    -0.356 N 
ATOM     15  H   UNL     1       1.023   2.620   0.313  0.00  0.00    +0.166 HD
ATOM     16  C   UNL     1       1.910   0.567   0.148  0.00  0.00    +0.038 A 
ATOM     17  C   UNL     1       3.404   0.775   0.144  0.00  0.00    +0.103 C 
ATOM     18  C   UNL     1       3.790   1.801   1.212  0.00  0.00    +0.009 C 
ENDROOT
BRANCH   3  19
ATOM     19  C   UNL     1       6.152  -1.720   0.650  0.00  0.00    +0.005 A 
ATOM     20  C   UNL     1       7.181  -2.166  -0.158  0.00  0.00    +0.008 A 
ATOM     21  C   UNL     1       7.764  -3.397   0.080  0.00  0.00    +0.000 A 
ATOM     22  C   UNL     1       7.318  -4.183   1.127  0.00  0.00    +0.003 A 
ATOM     23  C   UNL     1       6.289  -3.740   1.936  0.00  0.00    +0.038 A 
ATOM     24  C   UNL     1       5.708  -2.505   1.701  0.00  0.00    +0.128 A 
ATOM     25  F   UNL     1       4.706  -2.068   2.494  0.00  0.00    -0.205 F 
ENDBRANCH   3  19
BRANCH   1  26
ATOM     26  N   UNL     1       5.700   2.914   2.271  0.00  0.00    +0.385 N 
ATOM     27  H   UNL     1       5.789   2.359   3.216  0.00  0.00    -0.085 HD
ATOM     28  H   UNL     1       4.916   3.680   2.368  0.00  0.00    -0.085 HD
BRANCH  26  29
ATOM     29  C   UNL     1       6.981   3.561   1.959  0.00  0.00    -0.028 C 
BRANCH  29  35
ATOM     30  C   UNL     1       6.037   6.500   2.246  0.00  0.00    +0.148 C 
ATOM     31  N   UNL     1       6.923   5.805   3.183  0.00  0.00    -0.355 N 
ATOM     32  C   UNL     1       7.461   6.343   4.314  0.00  0.00    +0.085 A 
ATOM     33  C   UNL     1       8.218   5.400   4.910  0.00  0.00    +0.019 A 
ATOM     34  C   UNL     1       8.140   4.235   4.121  0.00  0.00    +0.021 A 
ATOM     35  C   UNL     1       7.345   4.514   3.068  0.00  0.00    +0.001 A 
ENDBRANCH  29  35
ENDBRANCH  26  29
ENDBRANCH   1  26
BRANCH   5  36
ATOM     36  C   UNL     1       3.611  -1.124  -1.859  0.00  0.00    +0.325 C 
ATOM     37  O   UNL     1       4.179  -0.098  -2.150  0.00  0.00    -0.249 OA
BRANCH  36  38
ATOM     38  O   UNL     1       3.015  -1.855  -2.814  0.00  0.00    -0.467 OA
ATOM     39  C   UNL     1       3.094  -1.353  -4.174  0.00  0.00    +0.280 C 
ENDBRANCH  36  38
ENDBRANCH   5  36
TORSDOF 6
