REMARK  Name = ZINC63804515
REMARK  10 active torsions:
REMARK  status: ('A' for Active; 'I' for Inactive)
REMARK    1  A    between atoms: C_1  and  C_2
REMARK    2  A    between atoms: C_2  and  O_3
REMARK    3  A    between atoms: O_3  and  C_4
REMARK    4  A    between atoms: C_7  and  S_11
REMARK    5  A    between atoms: C_9  and  C_10
REMARK    6  A    between atoms: S_11  and  N_14
REMARK    7  A    between atoms: N_14  and  C_15
REMARK    8  A    between atoms: C_15  and  C_16
REMARK    9  A    between atoms: C_16  and  C_17
REMARK   10  A    between atoms: C_25  and  C_27
REMARK                            x       y       z     vdW  Elec       q    Type
REMARK                         _______ _______ _______ _____ _____    ______ ____
ROOT
ATOM      1  N   UNL     1      -2.080  -6.839   1.569  0.00  0.00    -0.190 NA
ATOM      2  H   UNL     1      -1.379  -7.409   1.921  0.00  0.00    +0.148 HD
ENDROOT
BRANCH   1   3
ATOM      3  S   UNL     1      -2.031  -6.345  -0.011  0.00  0.00    +0.058 S 
ATOM      4  O   UNL     1      -3.318  -6.600  -0.557  0.00  0.00    -0.153 OA
ATOM      5  O   UNL     1      -0.845  -6.893  -0.570  0.00  0.00    -0.153 OA
BRANCH   3   9
ATOM      6  C   UNL     1      -1.498  -1.848   0.006  0.00  0.00    +0.123 A 
ATOM      7  C   UNL     1      -0.387  -2.679  -0.003  0.00  0.00    +0.048 A 
ATOM      8  C   UNL     1      -0.552  -4.051  -0.008  0.00  0.00    +0.032 A 
ATOM      9  C   UNL     1      -1.823  -4.596  -0.004  0.00  0.00    +0.106 A 
ATOM     10  C   UNL     1      -2.932  -3.769   0.004  0.00  0.00    +0.035 A 
ATOM     11  C   UNL     1      -2.772  -2.397   0.016  0.00  0.00    -0.007 A 
ATOM     12  C   UNL     1      -3.981  -1.497   0.032  0.00  0.00    +0.047 C 
BRANCH   6  13
ATOM     13  O   UNL     1      -1.339  -0.499   0.012  0.00  0.00    -0.492 OA
BRANCH  13  15
ATOM     14  C   UNL     1      -0.019   1.526   0.010  0.00  0.00    +0.048 C 
ATOM     15  C   UNL     1       0.002  -0.004   0.002  0.00  0.00    +0.225 C 
ENDBRANCH  13  15
ENDBRANCH   6  13
ENDBRANCH   3   9
ENDBRANCH   1   3
BRANCH   1  16
ATOM     16  C   UNL     1      -3.183  -6.414   2.435  0.00  0.00    +0.110 C 
BRANCH  16  17
ATOM     17  C   UNL     1      -3.205  -7.280   3.695  0.00  0.00    +0.050 C 
BRANCH  17  18
ATOM     18  C   UNL     1      -4.339  -6.843   4.586  0.00  0.00    -0.037 C 
ATOM     19  C   UNL     1      -5.226  -5.851   4.345  0.00  0.00    +0.001 A 
ATOM     20  C   UNL     1      -5.396  -4.917   3.227  0.00  0.00    +0.010 A 
ATOM     21  C   UNL     1      -6.397  -4.010   3.263  0.00  0.00    +0.002 A 
ATOM     22  C   UNL     1      -7.292  -3.922   4.337  0.00  0.00    +0.022 A 
ATOM     23  C   UNL     1      -7.220  -4.736   5.414  0.00  0.00    +0.064 A 
ATOM     24  C   UNL     1      -6.172  -5.760   5.481  0.00  0.00    +0.062 A 
ATOM     25  N   UNL     1      -5.881  -6.660   6.388  0.00  0.00    -0.377 N 
ATOM     26  C   UNL     1      -4.720  -7.430   5.927  0.00  0.00    +0.103 C 
ATOM     27  C   UNL     1      -5.091  -8.906   5.771  0.00  0.00    +0.035 C 
ATOM     28 CL   UNL     1      -8.363  -4.571   6.710  0.00  0.00    -0.081 Cl
ATOM     29  H   UNL     1      -6.356  -6.796   7.222  0.00  0.00    +0.160 HD
ENDBRANCH  17  18
ENDBRANCH  16  17
ENDBRANCH   1  16
TORSDOF 7
