REMARK  Name = ZINC11855395
REMARK  7 active torsions:
REMARK  status: ('A' for Active; 'I' for Inactive)
REMARK    1  A    between atoms: C_1  and  C_2
REMARK    2  A    between atoms: C_3  and  C_4
REMARK    3  A    between atoms: N_6  and  C_7
REMARK    4  A    between atoms: C_9  and  C_28
REMARK    5  A    between atoms: C_17  and  C_21
REMARK    6  A    between atoms: C_18  and  C_20
REMARK    7  A    between atoms: C_21  and  C_22
REMARK                            x       y       z     vdW  Elec       q    Type
REMARK                         _______ _______ _______ _____ _____    ______ ____
ROOT
ATOM      1  C   UNL     1       2.297   6.891   0.018  0.00  0.00    +0.132 A 
ATOM      2  C   UNL     1       2.267   5.534   0.011  0.00  0.00    +0.074 A 
ATOM      3  C   UNL     1       0.915   5.132   0.022  0.00  0.00    +0.102 A 
ATOM      4  N   UNL     1       0.164   6.215   0.029  0.00  0.00    -0.162 NA
ATOM      5  N   UNL     1       1.005   7.335   0.032  0.00  0.00    -0.185 N 
ATOM      6  C   UNL     1       0.599   8.655   0.043  0.00  0.00    +0.234 A 
ATOM      7  N   UNL     1      -0.729   8.945   0.051  0.00  0.00    -0.291 N 
ATOM      8  H   UNL     1      -1.383   8.229   0.049  0.00  0.00    +0.172 HD
ATOM      9  C   UNL     1      -1.134  10.233   0.065  0.00  0.00    +0.257 A 
ATOM     10  O   UNL     1      -2.321  10.512   0.077  0.00  0.00    -0.267 OA
ATOM     11  C   UNL     1      -0.158  11.248   0.061  0.00  0.00    +0.042 A 
ATOM     12  C   UNL     1       1.159  10.895   0.048  0.00  0.00    +0.051 A 
ATOM     13  N   UNL     1       1.505   9.609   0.039  0.00  0.00    -0.217 NA
ATOM     14  C   UNL     1       2.224  11.961   0.043  0.00  0.00    +0.066 C 
ENDROOT
BRANCH   3  15
ATOM     15  C   UNL     1       0.425   3.737   0.018  0.00  0.00    +0.039 A 
ATOM     16  C   UNL     1      -0.864   3.276   0.028  0.00  0.00    +0.018 A 
ATOM     17  C   UNL     1      -1.080   1.915   0.017  0.00  0.00    +0.008 A 
ATOM     18  C   UNL     1      -0.013   1.076   0.008  0.00  0.00    +0.046 A 
ATOM     19  S   UNL     1       1.360   2.217   0.001  0.00  0.00    -0.095 S 
ENDBRANCH   3  15
BRANCH   1  22
ATOM     20  C   UNL     1       4.659   7.116  -0.002  0.00  0.00    +0.242 C 
ATOM     21  O   UNL     1       4.763   5.904  -0.009  0.00  0.00    -0.270 OA
ATOM     22  N   UNL     1       3.439   7.688   0.012  0.00  0.00    -0.267 N 
ATOM     23  H   UNL     1       3.356   8.654   0.018  0.00  0.00    +0.157 HD
BRANCH  20  26
ATOM     24  C   UNL     1       7.198   5.891  -0.031  0.00  0.00    +0.035 C 
ATOM     25  C   UNL     1       7.070   7.393  -0.022  0.00  0.00    -0.025 C 
ATOM     26  C   UNL     1       5.865   7.957  -0.008  0.00  0.00    +0.063 C 
ENDBRANCH  20  26
ENDBRANCH   1  22
BRANCH  11  27
ATOM     27  C   UNL     1      -0.563  12.700   0.070  0.00  0.00    +0.077 C 
BRANCH  27  28
ATOM     28  C   UNL     1      -0.829  13.156  -1.341  0.00  0.00    -0.043 A 
ATOM     29  C   UNL     1       0.195  13.691  -2.100  0.00  0.00    +0.004 A 
ATOM     30  C   UNL     1      -0.049  14.105  -3.396  0.00  0.00    +0.000 A 
ATOM     31  C   UNL     1      -1.319  13.993  -3.930  0.00  0.00    +0.000 A 
ATOM     32  C   UNL     1      -2.344  13.464  -3.169  0.00  0.00    +0.000 A 
ATOM     33  C   UNL     1      -2.100  13.045  -1.875  0.00  0.00    +0.004 A 
ENDBRANCH  27  28
ENDBRANCH  11  27
TORSDOF 5
