REMARK  Name = ZINC12375499
REMARK  6 active torsions:
REMARK  status: ('A' for Active; 'I' for Inactive)
REMARK    1  A    between atoms: C_5  and  C_7
REMARK    2  A    between atoms: C_7  and  N_8
REMARK    3  A    between atoms: C_15  and  C_18
REMARK    4  A    between atoms: C_15  and  O_30
REMARK    5  A    between atoms: C_18  and  C_19
REMARK    6  A    between atoms: C_19  and  C_21
REMARK                            x       y       z     vdW  Elec       q    Type
REMARK                         _______ _______ _______ _____ _____    ______ ____
ROOT
ATOM      1  N   UNL     1      -7.250   2.884   2.010  0.00  0.00    -0.264 N 
ATOM      2  C   UNL     1      -8.065   1.937   1.389  0.00  0.00    +0.043 A 
ATOM      3  C   UNL     1      -9.295   1.403   1.770  0.00  0.00    +0.024 A 
ATOM      4  C   UNL     1      -9.917   0.462   0.977  0.00  0.00    +0.002 A 
ATOM      5  C   UNL     1      -9.328   0.041  -0.201  0.00  0.00    +0.000 A 
ATOM      6  C   UNL     1      -8.107   0.566  -0.587  0.00  0.00    +0.009 A 
ATOM      7  C   UNL     1      -7.484   1.506   0.204  0.00  0.00    +0.015 A 
ATOM      8  C   UNL     1      -6.179   2.257   0.072  0.00  0.00    +0.175 C 
ATOM      9  C   UNL     1      -6.130   3.129   1.308  0.00  0.00    +0.257 C 
ATOM     10  O   UNL     1      -5.246   3.903   1.610  0.00  0.00    -0.272 OA
ENDROOT
BRANCH   8  11
ATOM     11  O   UNL     1      -6.180   3.059  -1.110  0.00  0.00    -0.374 OA
ATOM     12  H   UNL     1      -5.378   3.586  -1.229  0.00  0.00    +0.211 HD
ENDBRANCH   8  11
BRANCH   1  13
ATOM     13  C   UNL     1      -7.577   3.537   3.280  0.00  0.00    +0.151 C 
BRANCH  13  18
ATOM     14  C   UNL     1      -7.341   1.132   6.180  0.00  0.00    +0.000 A 
ATOM     15  C   UNL     1      -6.003   1.231   6.514  0.00  0.00    +0.003 A 
ATOM     16  C   UNL     1      -5.173   2.076   5.803  0.00  0.00    +0.038 A 
ATOM     17  C   UNL     1      -5.682   2.824   4.754  0.00  0.00    +0.128 A 
ATOM     18  C   UNL     1      -7.022   2.724   4.420  0.00  0.00    +0.005 A 
ATOM     19  C   UNL     1      -7.851   1.882   5.137  0.00  0.00    +0.008 A 
ATOM     20  F   UNL     1      -4.872   3.651   4.058  0.00  0.00    -0.205 F 
ENDBRANCH  13  18
ENDBRANCH   1  13
BRANCH   8  21
ATOM     21  C   UNL     1      -4.999   1.283   0.056  0.00  0.00    +0.129 C 
BRANCH  21  22
ATOM     22  C   UNL     1      -3.707   2.059   0.048  0.00  0.00    +0.167 C 
ATOM     23  O   UNL     1      -3.728   3.272   0.054  0.00  0.00    -0.292 OA
BRANCH  22  24
ATOM     24  C   UNL     1      -2.423   1.347   0.032  0.00  0.00    +0.021 A 
ATOM     25  C   UNL     1      -2.396  -0.053   0.024  0.00  0.00    +0.015 A 
ATOM     26  C   UNL     1      -1.190  -0.717   0.009  0.00  0.00    +0.050 A 
ATOM     27  C   UNL     1       0.002  -0.004   0.002  0.00  0.00    +0.166 A 
ATOM     28  C   UNL     1      -0.017   1.392   0.010  0.00  0.00    +0.167 A 
ATOM     29  C   UNL     1      -1.221   2.066   0.030  0.00  0.00    +0.061 A 
ATOM     30  O   UNL     1       1.271   1.845  -0.000  0.00  0.00    -0.453 OA
ATOM     31  C   UNL     1       2.076   0.720   0.399  0.00  0.00    +0.466 C 
ATOM     32  O   UNL     1       1.300  -0.421  -0.013  0.00  0.00    -0.453 OA
ENDBRANCH  22  24
ENDBRANCH  21  22
ENDBRANCH   8  21
TORSDOF 6
