REMARK  Name = ZINC47069957
REMARK  5 active torsions:
REMARK  status: ('A' for Active; 'I' for Inactive)
REMARK    1  A    between atoms: C_5  and  N_7
REMARK    2  A    between atoms: N_7  and  N_8
REMARK    3  A    between atoms: N_11  and  C_12
REMARK    4  A    between atoms: C_12  and  C_13
REMARK    5  A    between atoms: C_13  and  C_14
REMARK                            x       y       z     vdW  Elec       q    Type
REMARK                         _______ _______ _______ _____ _____    ______ ____
ROOT
ATOM      1  N   UNL     1       0.035  -2.798  -0.014  0.00  0.00    -0.220 N 
ATOM      2  C   UNL     1       0.057  -4.146  -0.021  0.00  0.00    +0.316 C 
ATOM      3  O   UNL     1      -0.986  -4.770  -0.015  0.00  0.00    -0.251 OA
ATOM      4  N   UNL     1       1.235  -4.801  -0.037  0.00  0.00    -0.298 N 
ATOM      5  H   UNL     1      -0.812  -2.326  -0.003  0.00  0.00    +0.174 HD
ATOM      6  H   UNL     1       2.067  -4.302  -0.042  0.00  0.00    +0.150 HD
ENDROOT
BRANCH   1   7
ATOM      7  N   UNL     1       1.237  -2.078  -0.021  0.00  0.00    -0.262 N 
ATOM      8  H   UNL     1       2.085  -2.549  -0.032  0.00  0.00    +0.170 HD
BRANCH   7  13
ATOM      9  C   UNL     1      -0.017   1.377   0.010  0.00  0.00    +0.002 A 
ATOM     10  C   UNL     1       1.170   2.087   0.002  0.00  0.00    +0.002 A 
ATOM     11  C   UNL     1       2.380   1.417  -0.013  0.00  0.00    +0.022 A 
ATOM     12  C   UNL     1       2.406   0.035  -0.021  0.00  0.00    +0.063 A 
ATOM     13  C   UNL     1       1.215  -0.681  -0.013  0.00  0.00    +0.063 A 
ATOM     14  C   UNL     1       0.002  -0.004   0.002  0.00  0.00    +0.026 A 
ATOM     15 CL   UNL     1       3.925  -0.805  -0.040  0.00  0.00    -0.082 Cl
ENDBRANCH   7  13
ENDBRANCH   1   7
BRANCH   4  16
ATOM     16  C   UNL     1       1.258  -6.265  -0.045  0.00  0.00    +0.110 C 
BRANCH  16  17
ATOM     17  C   UNL     1       2.708  -6.752  -0.062  0.00  0.00    +0.057 C 
BRANCH  17  18
ATOM     18  C   UNL     1       2.733  -8.259  -0.071  0.00  0.00    -0.001 A 
ATOM     19  C   UNL     1       2.854  -8.954   1.117  0.00  0.00    +0.045 A 
ATOM     20  C   UNL     1       2.877 -10.338   1.109  0.00  0.00    +0.124 A 
ATOM     21  C   UNL     1       2.779 -11.026  -0.088  0.00  0.00    +0.047 A 
ATOM     22  C   UNL     1       2.659 -10.333  -1.278  0.00  0.00    +0.023 A 
ATOM     23  C   UNL     1       2.627  -8.947  -1.271  0.00  0.00    +0.132 A 
ATOM     24  O   UNL     1       2.495  -8.253  -2.434  0.00  0.00    -0.466 OA
ATOM     25  C   UNL     1       2.751  -8.968  -3.646  0.00  0.00    +0.394 C 
ATOM     26  O   UNL     1       2.054 -10.219  -3.596  0.00  0.00    -0.339 OA
ATOM     27  C   UNL     1       2.557 -11.093  -2.577  0.00  0.00    +0.202 C 
ATOM     28  F   UNL     1       2.995 -11.018   2.271  0.00  0.00    -0.205 F 
ENDBRANCH  17  18
ENDBRANCH  16  17
ENDBRANCH   4  16
TORSDOF 5
