REMARK  Name = ZINC39990203
REMARK  15 active torsions:
REMARK  status: ('A' for Active; 'I' for Inactive)
REMARK    1  A    between atoms: C_1  and  C_2
REMARK    2  A    between atoms: C_2  and  C_3
REMARK    3  A    between atoms: C_3  and  C_4
REMARK    4  A    between atoms: C_4  and  C_5
REMARK    5  A    between atoms: C_5  and  C_7
REMARK    6  A    between atoms: C_5  and  C_9
REMARK    7  A    between atoms: C_7  and  C_8
REMARK    8  A    between atoms: C_9  and  N_10
REMARK    9  A    between atoms: C_14  and  C_15
REMARK   10  A    between atoms: C_16  and  C_34
REMARK   11  A    between atoms: C_17  and  C_32
REMARK   12  A    between atoms: N_20  and  C_29
REMARK   13  A    between atoms: C_21  and  N_22
REMARK   14  A    between atoms: C_29  and  C_30
REMARK   15  A    between atoms: C_30  and  C_31
REMARK                            x       y       z     vdW  Elec       q    Type
REMARK                         _______ _______ _______ _____ _____    ______ ____
ROOT
ATOM      1  C   UNL     1       5.949  -5.897   6.457  0.00  0.00    +0.019 A 
ATOM      2  C   UNL     1       4.994  -6.403   7.355  0.00  0.00    -0.017 A 
ATOM      3  C   UNL     1       5.428  -6.964   8.553  0.00  0.00    +0.120 A 
ATOM      4  C   UNL     1       6.816  -7.012   8.837  0.00  0.00    +0.270 A 
ATOM      5  O   UNL     1       7.202  -7.503   9.884  0.00  0.00    -0.266 OA
ATOM      6  N   UNL     1       7.711  -6.521   7.961  0.00  0.00    -0.295 N 
ATOM      7  C   UNL     1       7.313  -5.973   6.784  0.00  0.00    +0.112 A 
ATOM      8  C   UNL     1       3.525  -6.338   7.027  0.00  0.00    +0.046 C 
ENDROOT
BRANCH   1  13
ATOM      9  N   UNL     1       3.942  -6.663   2.181  0.00  0.00    -0.255 N 
ATOM     10  C   UNL     1       4.462  -5.713   2.938  0.00  0.00    +0.258 C 
ATOM     11  O   UNL     1       4.519  -4.560   2.548  0.00  0.00    -0.269 OA
ATOM     12  C   UNL     1       4.954  -6.077   4.229  0.00  0.00    +0.077 C 
ATOM     13  C   UNL     1       5.527  -5.301   5.188  0.00  0.00    +0.032 C 
ATOM     14  S   UNL     1       4.611  -7.832   4.241  0.00  0.00    -0.061 S 
ATOM     15  C   UNL     1       3.873  -7.940   2.617  0.00  0.00    +0.121 C 
ATOM     16  S   UNL     1       3.242  -9.315   1.815  0.00  0.00    -0.027 S 
BRANCH   9  17
ATOM     17  C   UNL     1       3.428  -6.326   0.851  0.00  0.00    +0.118 C 
BRANCH  17  18
ATOM     18  C   UNL     1       1.950  -5.944   0.958  0.00  0.00    +0.007 C 
BRANCH  18  19
ATOM     19  C   UNL     1       1.812  -4.663   1.782  0.00  0.00    +0.002 C 
ATOM     20  C   UNL     1       0.330  -4.350   1.995  0.00  0.00    +0.004 C 
ENDBRANCH  18  19
BRANCH  18  21
ATOM     21  C   UNL     1       1.381  -5.713  -0.444  0.00  0.00    +0.005 C 
BRANCH  21  22
ATOM     22  C   UNL     1       1.389  -7.030  -1.221  0.00  0.00    +0.000 C 
BRANCH  22  24
ATOM     23  C   UNL     1       0.708  -8.147  -3.350  0.00  0.00    +0.004 C 
ATOM     24  C   UNL     1       0.700  -6.830  -2.572  0.00  0.00    -0.003 C 
ENDBRANCH  22  24
ENDBRANCH  21  22
ENDBRANCH  18  21
ENDBRANCH  17  18
ENDBRANCH   9  17
ENDBRANCH   1  13
BRANCH   7  25
ATOM     25  N   UNL     1       8.246  -5.489   5.914  0.00  0.00    -0.316 N 
ATOM     26  C   UNL     1       8.771  -4.160   6.130  0.00  0.00    +0.106 C 
ATOM     27  C   UNL     1       7.886  -3.125   5.393  0.00  0.00    +0.019 C 
ATOM     28  C   UNL     1       8.079  -3.232   3.938  0.00  0.00    +0.002 C 
ATOM     29  C   UNL     1       7.663  -4.575   3.346  0.00  0.00    +0.002 C 
ATOM     30  C   UNL     1       8.804  -5.554   3.475  0.00  0.00    +0.019 C 
ATOM     31  C   UNL     1       8.681  -6.346   4.793  0.00  0.00    +0.106 C 
ENDBRANCH   7  25
BRANCH   3  32
ATOM     32  C   UNL     1       4.480  -7.488   9.489  0.00  0.00    +0.105 C 
ATOM     33  N   UNL     1       3.728  -7.904  10.233  0.00  0.00    -0.191 NA
ENDBRANCH   3  32
BRANCH   6  34
ATOM     34  C   UNL     1       9.139  -6.583   8.280  0.00  0.00    +0.126 C 
BRANCH  34  35
ATOM     35  C   UNL     1       9.727  -7.886   7.736  0.00  0.00    +0.018 C 
ATOM     36  C   UNL     1      11.189  -8.007   8.170  0.00  0.00    +0.005 C 
ENDBRANCH  34  35
ENDBRANCH   6  34
TORSDOF 11
