REMARK  Name = ZINC32145816
REMARK  5 active torsions:
REMARK  status: ('A' for Active; 'I' for Inactive)
REMARK    1  A    between atoms: C_3  and  S_18
REMARK    2  A    between atoms: C_6  and  C_7
REMARK    3  A    between atoms: N_9  and  C_10
REMARK    4  A    between atoms: S_18  and  N_21
REMARK    5  A    between atoms: N_21  and  C_22
REMARK                            x       y       z     vdW  Elec       q    Type
REMARK                         _______ _______ _______ _____ _____    ______ ____
ROOT
ATOM      1  C   UNL     1       4.156   3.452  -0.194  0.00  0.00    +0.015 A 
ATOM      2  C   UNL     1       5.515   3.683  -0.136  0.00  0.00    +0.029 A 
ATOM      3  C   UNL     1       6.340   2.806   0.544  0.00  0.00    +0.109 A 
ATOM      4  C   UNL     1       5.810   1.695   1.175  0.00  0.00    +0.029 A 
ATOM      5  C   UNL     1       4.452   1.455   1.130  0.00  0.00    +0.015 A 
ATOM      6  C   UNL     1       3.613   2.336   0.445  0.00  0.00    +0.037 A 
ENDROOT
BRANCH   6   7
ATOM      7  C   UNL     1       2.157   2.085   0.392  0.00  0.00    +0.244 C 
ATOM      8  O   UNL     1       1.688   1.109   0.946  0.00  0.00    -0.270 OA
ATOM      9  N   UNL     1       1.350   2.937  -0.270  0.00  0.00    -0.308 N 
ATOM     10  H   UNL     1       1.774   3.819  -0.771  0.00  0.00    +0.149 HD
BRANCH   9  11
ATOM     11  C   UNL     1      -0.093   2.688  -0.323  0.00  0.00    +0.073 C 
ATOM     12  C   UNL     1      -0.755   3.264   0.930  0.00  0.00    +0.022 C 
ATOM     13  C   UNL     1      -2.265   3.368   0.706  0.00  0.00    +0.002 C 
ATOM     14  C   UNL     1      -2.894   1.977   0.818  0.00  0.00    +0.000 C 
ATOM     15  C   UNL     1      -2.598   1.181  -0.455  0.00  0.00    +0.000 C 
ATOM     16  C   UNL     1      -2.819   2.072  -1.678  0.00  0.00    +0.000 C 
ATOM     17  C   UNL     1      -1.479   2.331  -2.370  0.00  0.00    +0.002 C 
ATOM     18  C   UNL     1      -0.681   3.358  -1.566  0.00  0.00    +0.022 C 
ENDBRANCH   9  11
ENDBRANCH   6   7
BRANCH   3  19
ATOM     19  S   UNL     1       8.076   3.106   0.607  0.00  0.00    +0.072 S 
ATOM     20  O   UNL     1       8.264   4.475   0.278  0.00  0.00    -0.150 OA
ATOM     21  O   UNL     1       8.541   2.544   1.827  0.00  0.00    -0.150 OA
BRANCH  19  22
ATOM     22  N   UNL     1       8.769   2.226  -0.613  0.00  0.00    -0.216 N 
ATOM     23  H   UNL     1       9.478   1.419  -0.376  0.00  0.00    +0.174 HD
BRANCH  22  24
ATOM     24  C   UNL     1       8.454   2.508  -1.939  0.00  0.00    +0.051 A 
ATOM     25  C   UNL     1       7.626   1.659  -2.674  0.00  0.00    +0.042 A 
ATOM     26  C   UNL     1       7.334   1.977  -3.984  0.00  0.00    +0.084 A 
ATOM     27  N   UNL     1       7.835   3.062  -4.545  0.00  0.00    -0.367 N 
ATOM     28  C   UNL     1       8.626   3.887  -3.885  0.00  0.00    +0.084 A 
ATOM     29  C   UNL     1       8.962   3.644  -2.570  0.00  0.00    +0.042 A 
ATOM     30  H   UNL     1       7.597   3.300  -5.592  0.00  0.00    +0.165 HD
ENDBRANCH  22  24
ENDBRANCH  19  22
ENDBRANCH   3  19
TORSDOF 5
