REMARK  Name = ZINC64023928
REMARK  9 active torsions:
REMARK  status: ('A' for Active; 'I' for Inactive)
REMARK    1  A    between atoms: C_1  and  C_2
REMARK    2  A    between atoms: C_6  and  C_7
REMARK    3  A    between atoms: C_7  and  N_8
REMARK    4  A    between atoms: C_10  and  N_19
REMARK    5  A    between atoms: C_13  and  C_15
REMARK    6  A    between atoms: C_15  and  O_17
REMARK    7  A    between atoms: O_17  and  C_18
REMARK    8  A    between atoms: C_20  and  C_22
REMARK    9  A    between atoms: C_24  and  C_33
REMARK                            x       y       z     vdW  Elec       q    Type
REMARK                         _______ _______ _______ _____ _____    ______ ____
ROOT
ATOM      1  N   UNL     1      -1.601  -0.230   2.998  0.00  0.00    -0.283 NA
ATOM      2  C   UNL     1      -2.428   0.683   2.181  0.00  0.00    +0.108 C 
ATOM      3  C   UNL     1      -3.516   1.206   3.151  0.00  0.00    +0.089 C 
ATOM      4  C   UNL     1      -2.717   1.346   4.473  0.00  0.00    +0.054 C 
ATOM      5  C   UNL     1      -1.739   0.153   4.415  0.00  0.00    +0.168 C 
ENDROOT
BRANCH   3   6
ATOM      6  N   UNL     1      -4.032   2.505   2.709  0.00  0.00    -0.309 N 
ATOM      7  C   UNL     1      -5.045   2.561   1.821  0.00  0.00    +0.240 C 
ATOM      8  O   UNL     1      -5.528   1.537   1.387  0.00  0.00    -0.273 OA
ATOM      9  H   UNL     1      -3.645   3.324   3.056  0.00  0.00    +0.149 HD
BRANCH   7  10
ATOM     10  C   UNL     1      -5.575   3.896   1.367  0.00  0.00    +0.193 C 
ATOM     11  C   UNL     1      -4.686   4.470   0.286  0.00  0.00    -0.033 C 
ATOM     12  C   UNL     1      -5.467   4.603  -0.810  0.00  0.00    +0.001 A 
ATOM     13  C   UNL     1      -5.201   5.096  -2.167  0.00  0.00    +0.030 A 
ATOM     14  C   UNL     1      -6.208   5.108  -3.070  0.00  0.00    +0.042 A 
ATOM     15  C   UNL     1      -7.497   4.661  -2.743  0.00  0.00    +0.022 A 
ATOM     16  C   UNL     1      -7.818   4.194  -1.518  0.00  0.00    +0.027 A 
ATOM     17  C   UNL     1      -6.836   4.137  -0.491  0.00  0.00    +0.043 A 
ATOM     18  N   UNL     1      -6.899   3.733   0.756  0.00  0.00    -0.370 N 
ATOM     19 CL   UNL     1      -5.897   5.691  -4.676  0.00  0.00    -0.084 Cl
ATOM     20  C   UNL     1      -3.226   4.824   0.406  0.00  0.00    +0.042 C 
ATOM     21  H   UNL     1      -7.688   3.385   1.200  0.00  0.00    +0.161 HD
ENDBRANCH   7  10
ENDBRANCH   3   6
BRANCH   5  22
ATOM     22  C   UNL     1      -2.293  -1.002   5.208  0.00  0.00    +0.324 C 
ATOM     23  O   UNL     1      -2.550  -2.046   4.656  0.00  0.00    -0.249 OA
BRANCH  22  24
ATOM     24  O   UNL     1      -2.500  -0.873   6.528  0.00  0.00    -0.467 OA
ATOM     25  C   UNL     1      -3.027  -2.009   7.216  0.00  0.00    +0.280 C 
ENDBRANCH  22  24
ENDBRANCH   5  22
BRANCH   1  26
ATOM     26  C   UNL     1      -0.195  -0.188   2.576  0.00  0.00    +0.128 C 
BRANCH  26  32
ATOM     27  C   UNL     1       0.187  -3.217   2.236  0.00  0.00    +0.044 C 
ATOM     28  C   UNL     1       0.132  -2.264   1.070  0.00  0.00    -0.039 A 
ATOM     29  C   UNL     1       0.248  -2.732  -0.225  0.00  0.00    +0.011 A 
ATOM     30  C   UNL     1       0.194  -1.848  -1.251  0.00  0.00    +0.046 A 
ATOM     31  S   UNL     1      -0.027  -0.299  -0.392  0.00  0.00    -0.100 S 
ATOM     32  C   UNL     1      -0.038  -0.935   1.276  0.00  0.00    +0.007 A 
ENDBRANCH  26  32
ENDBRANCH   1  26
TORSDOF 6
