REMARK  Name = ZINC08738856
REMARK  12 active torsions:
REMARK  status: ('A' for Active; 'I' for Inactive)
REMARK    1  A    between atoms: C_1  and  C_2
REMARK    2  A    between atoms: C_2  and  C_4
REMARK    3  A    between atoms: C_8  and  C_37
REMARK    4  A    between atoms: C_17  and  C_36
REMARK    5  A    between atoms: N_21  and  O_22
REMARK    6  A    between atoms: C_23  and  C_34
REMARK    7  A    between atoms: C_23  and  C_35
REMARK    8  A    between atoms: C_28  and  C_33
REMARK    9  A    between atoms: C_29  and  C_32
REMARK   10  A    between atoms: C_37  and  O_38
REMARK   11  A    between atoms: O_38  and  C_39
REMARK   12  A    between atoms: C_39  and  C_41
REMARK                            x       y       z     vdW  Elec       q    Type
REMARK                         _______ _______ _______ _____ _____    ______ ____
ROOT
ATOM      1  C   UNL     1      -1.414   0.274   1.648  0.00  0.00    +0.018 C 
ATOM      2  C   UNL     1       0.125   0.272   1.841  0.00  0.00    +0.009 C 
ATOM      3  C   UNL     1       0.736  -0.204   0.497  0.00  0.00    +0.011 C 
ATOM      4  C   UNL     1      -0.362   0.132  -0.529  0.00  0.00    +0.009 C 
ATOM      5  C   UNL     1      -1.635  -0.277   0.243  0.00  0.00    +0.009 C 
ATOM      6  C   UNL     1      -2.862   0.107  -0.522  0.00  0.00    -0.000 C 
ATOM      7  C   UNL     1      -4.144  -0.145   0.264  0.00  0.00    +0.005 C 
ATOM      8  C   UNL     1      -4.553  -1.618   0.227  0.00  0.00    +0.005 C 
ATOM      9  C   UNL     1      -4.790  -1.985  -1.237  0.00  0.00    +0.002 C 
ATOM     10  C   UNL     1      -5.555  -3.298  -1.367  0.00  0.00    -0.025 C 
ATOM     11  C   UNL     1      -6.994  -3.045  -0.868  0.00  0.00    +0.013 C 
ATOM     12  C   UNL     1      -7.764  -4.356  -0.830  0.00  0.00    +0.055 C 
ATOM     13  C   UNL     1      -7.567  -5.180  -2.070  0.00  0.00    +0.063 C 
ATOM     14  N   UNL     1      -8.389  -6.164  -2.283  0.00  0.00    -0.096 NA
ATOM     15  C   UNL     1      -6.480  -4.946  -3.083  0.00  0.00    +0.010 C 
ATOM     16  C   UNL     1      -5.676  -3.686  -2.836  0.00  0.00    +0.007 C 
ATOM     17  C   UNL     1      -4.306  -3.729  -3.507  0.00  0.00    +0.005 C 
ATOM     18  C   UNL     1      -3.700  -2.317  -3.459  0.00  0.00    +0.008 C 
ATOM     19  C   UNL     1      -3.476  -1.908  -1.997  0.00  0.00    -0.023 C 
ATOM     20  C   UNL     1      -2.900  -0.489  -1.929  0.00  0.00    -0.023 C 
ATOM     21  C   UNL     1      -1.552  -0.440  -2.642  0.00  0.00    +0.008 C 
ATOM     22  C   UNL     1      -0.313  -0.697  -1.798  0.00  0.00    +0.011 C 
ATOM     23  C   UNL     1      -3.828   0.447  -2.753  0.00  0.00    +0.012 C 
ATOM     24  C   UNL     1      -2.448  -2.889  -1.415  0.00  0.00    +0.012 C 
ATOM     25  C   UNL     1      -7.169  -4.809  -4.463  0.00  0.00    +0.017 C 
ATOM     26  C   UNL     1      -5.585  -6.190  -3.156  0.00  0.00    +0.017 C 
ATOM     27  C   UNL     1      -4.949  -4.403  -0.514  0.00  0.00    +0.012 C 
ENDROOT
BRANCH   1  29
ATOM     28  C   UNL     1      -2.540   2.411   0.673  0.00  0.00    +0.039 C 
ATOM     29  C   UNL     1      -1.965   1.657   1.844  0.00  0.00    -0.076 C 
ATOM     30  C   UNL     1      -1.947   2.207   3.033  0.00  0.00    +0.007 C 
ENDBRANCH   1  29
BRANCH  14  31
ATOM     31  O   UNL     1      -9.431  -6.430  -1.362  0.00  0.00    -0.409 OA
ATOM     32  H   UNL     1      -9.989  -7.180  -1.606  0.00  0.00    +0.328 HD
ENDBRANCH  14  31
BRANCH   4  33
ATOM     33  C   UNL     1      -0.300   1.617  -0.875  0.00  0.00    +0.239 C 
BRANCH  33  34
ATOM     34  O   UNL     1       0.949   1.903  -1.559  0.00  0.00    -0.464 OA
BRANCH  34  35
ATOM     35  C   UNL     1       1.160   3.174  -1.934  0.00  0.00    +0.304 C 
ATOM     36  O   UNL     1       0.330   4.020  -1.699  0.00  0.00    -0.251 OA
ATOM     37  C   UNL     1       2.434   3.546  -2.649  0.00  0.00    +0.136 C 
ENDBRANCH  34  35
ENDBRANCH  33  34
ENDBRANCH   4  33
TORSDOF 5
