REMARK  Name = ZINC45630331
REMARK  11 active torsions:
REMARK  status: ('A' for Active; 'I' for Inactive)
REMARK    1  A    between atoms: C_1  and  C_2
REMARK    2  A    between atoms: C_2  and  O_3
REMARK    3  A    between atoms: O_3  and  C_4
REMARK    4  A    between atoms: C_7  and  O_32
REMARK    5  A    between atoms: C_8  and  N_10
REMARK    6  A    between atoms: C_11  and  C_13
REMARK    7  A    between atoms: C_13  and  N_14
REMARK    8  A    between atoms: C_17  and  C_21
REMARK    9  A    between atoms: C_17  and  C_22
REMARK   10  A    between atoms: O_32  and  C_33
REMARK   11  A    between atoms: C_33  and  C_34
REMARK                            x       y       z     vdW  Elec       q    Type
REMARK                         _______ _______ _______ _____ _____    ______ ____
ROOT
ATOM      1  N   UNL     1       3.859  -2.829  -6.855  0.00  0.00    -0.215 N 
ATOM      2  C   UNL     1       2.954  -2.417  -7.765  0.00  0.00    +0.251 C 
ATOM      3  O   UNL     1       1.857  -2.890  -7.972  0.00  0.00    -0.272 OA
ATOM      4  C   UNL     1       3.592  -1.240  -8.474  0.00  0.00    +0.136 C 
ATOM      5  N   UNL     1       4.906  -1.113  -7.821  0.00  0.00    -0.281 N 
ATOM      6  C   UNL     1       4.967  -2.080  -6.888  0.00  0.00    +0.310 C 
ATOM      7  O   UNL     1       5.923  -2.256  -6.158  0.00  0.00    -0.252 OA
ATOM      8  C   UNL     1       2.763   0.029  -8.265  0.00  0.00    +0.047 C 
ATOM      9  H   UNL     1       5.593  -0.458  -8.022  0.00  0.00    +0.152 HD
ENDROOT
BRANCH   4  10
ATOM     10  C   UNL     1       3.757  -1.532  -9.943  0.00  0.00    -0.008 A 
ATOM     11  C   UNL     1       5.000  -1.593 -10.494  0.00  0.00    +0.007 A 
ATOM     12  C   UNL     1       5.172  -1.861 -11.850  0.00  0.00    +0.001 A 
ATOM     13  C   UNL     1       4.101  -2.070 -12.664  0.00  0.00    +0.008 A 
ATOM     14  C   UNL     1       2.802  -2.015 -12.132  0.00  0.00    -0.018 A 
ATOM     15  C   UNL     1       2.628  -1.748 -10.751  0.00  0.00    -0.012 A 
ATOM     16  C   UNL     1       1.328  -1.699 -10.218  0.00  0.00    +0.009 A 
ATOM     17  C   UNL     1       0.258  -1.913 -11.031  0.00  0.00    +0.001 A 
ATOM     18  C   UNL     1       0.430  -2.183 -12.387  0.00  0.00    +0.001 A 
ATOM     19  C   UNL     1       1.673  -2.225 -12.942  0.00  0.00    +0.008 A 
ENDBRANCH   4  10
BRANCH   1  20
ATOM     20  C   UNL     1       3.653  -3.954  -5.940  0.00  0.00    +0.214 C 
BRANCH  20  22
ATOM     21  N   UNL     1       2.729  -4.321  -3.675  0.00  0.00    -0.281 N 
ATOM     22  C   UNL     1       3.014  -3.457  -4.669  0.00  0.00    +0.235 C 
ATOM     23  O   UNL     1       2.756  -2.279  -4.540  0.00  0.00    -0.274 OA
ATOM     24  H   UNL     1       3.010  -5.247  -3.742  0.00  0.00    +0.155 HD
BRANCH  21  29
ATOM     25  C   UNL     1       0.517  -2.332  -1.505  0.00  0.00    +0.122 A 
ATOM     26  C   UNL     1       0.638  -3.018  -0.306  0.00  0.00    +0.049 A 
ATOM     27  C   UNL     1       1.450  -4.133  -0.223  0.00  0.00    +0.051 A 
ATOM     28  C   UNL     1       2.145  -4.569  -1.339  0.00  0.00    +0.142 A 
ATOM     29  C   UNL     1       2.026  -3.883  -2.545  0.00  0.00    +0.079 A 
ATOM     30  C   UNL     1       1.207  -2.767  -2.626  0.00  0.00    +0.072 A 
BRANCH  25  31
ATOM     31  O   UNL     1      -0.283  -1.235  -1.583  0.00  0.00    -0.492 OA
BRANCH  31  33
ATOM     32  C   UNL     1      -1.809   0.402  -0.670  0.00  0.00    +0.048 C 
ATOM     33  C   UNL     1      -0.964  -0.843  -0.389  0.00  0.00    +0.225 C 
ENDBRANCH  31  33
ENDBRANCH  25  31
BRANCH  28  34
ATOM     34  O   UNL     1       2.945  -5.667  -1.257  0.00  0.00    -0.490 OA
BRANCH  34  35
ATOM     35  C   UNL     1       3.020  -6.322   0.011  0.00  0.00    +0.226 C 
ATOM     36  C   UNL     1       3.959  -7.525  -0.091  0.00  0.00    +0.048 C 
ENDBRANCH  34  35
ENDBRANCH  28  34
ENDBRANCH  21  29
ENDBRANCH  20  22
ENDBRANCH   1  20
TORSDOF 8
