REMARK  Name = ZINC03819270
REMARK  5 active torsions:
REMARK  status: ('A' for Active; 'I' for Inactive)
REMARK    1  A    between atoms: C_3  and  C_8
REMARK    2  A    between atoms: C_11  and  C_13
REMARK    3  A    between atoms: C_16  and  O_19
REMARK    4  A    between atoms: O_19  and  C_20
REMARK    5  A    between atoms: C_23  and  N_26
REMARK                            x       y       z     vdW  Elec       q    Type
REMARK                         _______ _______ _______ _____ _____    ______ ____
ROOT
ATOM      1  C   UNL     1       1.208  -0.665  -0.056  0.00  0.00    +0.221 A 
ATOM      2  C   UNL     1      -0.014  -0.015   0.065  0.00  0.00    +0.069 A 
ATOM      3  C   UNL     1      -0.049   1.367   0.040  0.00  0.00    +0.030 A 
ATOM      4  C   UNL     1       1.153   2.059  -0.107  0.00  0.00    +0.049 A 
ATOM      5  C   UNL     1       2.335   1.342  -0.222  0.00  0.00    +0.137 A 
ATOM      6  N   UNL     1       2.329   0.023  -0.193  0.00  0.00    -0.219 NA
ENDROOT
BRANCH   4   7
ATOM      7  N   UNL     1       1.166   3.458  -0.138  0.00  0.00    -0.308 N 
ATOM      8  C   UNL     1      -0.202   4.005   0.007  0.00  0.00    +0.107 C 
ATOM      9  C   UNL     1      -0.018   5.324   0.801  0.00  0.00    +0.022 C 
ATOM     10  C   UNL     1       1.123   4.945   1.783  0.00  0.00    +0.046 C 
ATOM     11  C   UNL     1       1.997   4.000   0.943  0.00  0.00    +0.189 C 
ATOM     12  C   UNL     1       3.095   4.829   0.320  0.00  0.00    +0.253 C 
ATOM     13  O   UNL     1       2.845   5.767  -0.406  0.00  0.00    -0.272 OA
ATOM     14  N   UNL     1       4.370   4.479   0.609  0.00  0.00    -0.238 N 
ATOM     15  C   UNL     1       4.651   3.446   1.410  0.00  0.00    +0.312 C 
ATOM     16  O   UNL     1       5.823   3.201   1.617  0.00  0.00    -0.252 OA
ATOM     17  N   UNL     1       3.744   2.660   2.003  0.00  0.00    -0.238 N 
ATOM     18  C   UNL     1       2.416   2.854   1.833  0.00  0.00    +0.253 C 
ATOM     19  O   UNL     1       1.598   2.139   2.372  0.00  0.00    -0.272 OA
ATOM     20  H   UNL     1       5.099   4.991   0.224  0.00  0.00    +0.159 HD
ATOM     21  H   UNL     1       4.047   1.933   2.569  0.00  0.00    +0.159 HD
ENDBRANCH   4   7
BRANCH   1  22
ATOM     22  O   UNL     1       1.252  -2.021  -0.032  0.00  0.00    -0.438 OA
BRANCH  22  26
ATOM     23  C   UNL     1       4.890  -3.855  -0.703  0.00  0.00    +0.037 A 
ATOM     24  C   UNL     1       4.618  -3.272   0.536  0.00  0.00    +0.017 A 
ATOM     25  C   UNL     1       3.403  -2.660   0.756  0.00  0.00    +0.047 A 
ATOM     26  C   UNL     1       2.448  -2.625  -0.253  0.00  0.00    +0.130 A 
ATOM     27  C   UNL     1       2.713  -3.209  -1.485  0.00  0.00    +0.047 A 
ATOM     28  C   UNL     1       3.928  -3.817  -1.714  0.00  0.00    +0.017 A 
BRANCH  23  32
ATOM     29  C   UNL     1       7.808  -5.576  -1.902  0.00  0.00    +0.110 A 
ATOM     30  C   UNL     1       8.207  -5.276  -0.641  0.00  0.00    +0.226 A 
ATOM     31  O   UNL     1       7.195  -4.608  -0.053  0.00  0.00    -0.443 OA
ATOM     32  C   UNL     1       6.191  -4.512  -0.943  0.00  0.00    +0.228 A 
ATOM     33  N   UNL     1       6.559  -5.092  -2.060  0.00  0.00    -0.209 NA
BRANCH  29  36
ATOM     34  C   UNL     1      10.622  -7.428  -3.573  0.00  0.00    +0.003 A 
ATOM     35  C   UNL     1       9.889  -6.747  -2.623  0.00  0.00    +0.010 A 
ATOM     36  C   UNL     1       8.602  -6.305  -2.923  0.00  0.00    +0.006 A 
ATOM     37  C   UNL     1       8.065  -6.545  -4.186  0.00  0.00    +0.048 A 
ATOM     38  C   UNL     1       8.809  -7.224  -5.132  0.00  0.00    +0.124 A 
ATOM     39  C   UNL     1      10.086  -7.665  -4.826  0.00  0.00    +0.038 A 
ATOM     40  F   UNL     1       8.290  -7.458  -6.358  0.00  0.00    -0.205 F 
ENDBRANCH  29  36
ENDBRANCH  23  32
ENDBRANCH  22  26
ENDBRANCH   1  22
TORSDOF 5
