REMARK  Name = ZINC39029500
REMARK  5 active torsions:
REMARK  status: ('A' for Active; 'I' for Inactive)
REMARK    1  A    between atoms: C_1  and  N_2
REMARK    2  A    between atoms: C_9  and  O_34
REMARK    3  A    between atoms: C_11  and  C_15
REMARK    4  A    between atoms: C_15  and  N_17
REMARK    5  A    between atoms: C_21  and  C_24
REMARK                            x       y       z     vdW  Elec       q    Type
REMARK                         _______ _______ _______ _____ _____    ______ ____
ROOT
ATOM      1  N   UNL     1       2.046  -2.289   2.313  0.00  0.00    -0.156 NA
ATOM      2  C   UNL     1       1.963  -2.725   3.572  0.00  0.00    +0.163 A 
ATOM      3  N   UNL     1       1.026  -3.544   4.122  0.00  0.00    -0.339 N 
ATOM      4  H   UNL     1       0.297  -3.892   3.585  0.00  0.00    +0.167 HD
ATOM      5  C   UNL     1       1.130  -3.868   5.439  0.00  0.00    +0.031 A 
ATOM      6  C   UNL     1       2.161  -3.353   6.118  0.00  0.00    +0.070 A 
ATOM      7  S   UNL     1       2.994  -2.402   4.860  0.00  0.00    -0.060 S 
ENDROOT
BRANCH   5   8
ATOM      8  C   UNL     1       0.124  -4.770   6.106  0.00  0.00    +0.012 C 
ATOM      9  C   UNL     1      -1.267  -4.143   6.008  0.00  0.00    +0.016 C 
ATOM     10  C   UNL     1      -2.289  -5.059   6.686  0.00  0.00    -0.010 C 
ATOM     11  C   UNL     1      -1.913  -5.240   8.158  0.00  0.00    +0.007 C 
ATOM     12  C   UNL     1      -0.522  -5.868   8.256  0.00  0.00    -0.010 C 
ATOM     13  C   UNL     1       0.500  -4.952   7.578  0.00  0.00    +0.016 C 
ATOM     14  C   UNL     1      -0.526  -7.230   7.559  0.00  0.00    +0.007 C 
ATOM     15  C   UNL     1      -0.901  -7.048   6.087  0.00  0.00    -0.010 C 
ATOM     16  C   UNL     1      -2.293  -6.421   5.989  0.00  0.00    +0.007 C 
ATOM     17  C   UNL     1       0.120  -6.133   5.409  0.00  0.00    +0.016 C 
ENDBRANCH   5   8
BRANCH   1  18
ATOM     18  C   UNL     1       1.132  -2.653   1.423  0.00  0.00    +0.253 C 
ATOM     19  O   UNL     1       0.217  -3.384   1.754  0.00  0.00    -0.273 OA
BRANCH  18  29
ATOM     20  C   UNL     1      -0.018   1.461   0.010  0.00  0.00    +0.138 C 
ATOM     21  N   UNL     1       0.002  -0.004   0.002  0.00  0.00    -0.273 N 
ATOM     22  C   UNL     1      -1.202  -0.715   0.004  0.00  0.00    +0.042 A 
ATOM     23  C   UNL     1      -2.380  -0.092   0.395  0.00  0.00    +0.024 A 
ATOM     24  C   UNL     1      -3.566  -0.800   0.395  0.00  0.00    +0.002 A 
ATOM     25  C   UNL     1      -3.581  -2.127   0.006  0.00  0.00    +0.000 A 
ATOM     26  C   UNL     1      -2.409  -2.750  -0.383  0.00  0.00    +0.008 A 
ATOM     27  C   UNL     1      -1.221  -2.047  -0.385  0.00  0.00    +0.003 A 
ATOM     28  C   UNL     1       0.058  -2.723  -0.809  0.00  0.00    +0.167 C 
ATOM     29  C   UNL     1       1.226  -2.160   0.002  0.00  0.00    +0.196 C 
ATOM     30  C   UNL     1       1.179  -0.656  -0.013  0.00  0.00    +0.234 C 
ATOM     31  O   UNL     1       2.214  -0.025  -0.034  0.00  0.00    -0.274 OA
BRANCH  28  32
ATOM     32  O   UNL     1       0.285  -2.483  -2.199  0.00  0.00    -0.386 OA
ATOM     33  H   UNL     1      -0.418  -2.815  -2.775  0.00  0.00    +0.210 HD
ENDBRANCH  28  32
ENDBRANCH  18  29
ENDBRANCH   1  18
TORSDOF 4
