REMARK  Name = ZINC22784075
REMARK  5 active torsions:
REMARK  status: ('A' for Active; 'I' for Inactive)
REMARK    1  A    between atoms: C_4  and  C_7
REMARK    2  A    between atoms: C_16  and  C_18
REMARK    3  A    between atoms: C_18  and  N_19
REMARK    4  A    between atoms: N_22  and  C_25
REMARK    5  A    between atoms: C_25  and  C_26
REMARK                            x       y       z     vdW  Elec       q    Type
REMARK                         _______ _______ _______ _____ _____    ______ ____
ROOT
ATOM      1  C   UNL     1      -1.821   4.971   0.046  0.00  0.00    -0.003 C 
ENDROOT
BRANCH   1  11
ATOM      2  C   UNL     1       2.266   0.998  -0.014  0.00  0.00    +0.004 A 
ATOM      3  C   UNL     1       1.766  -0.261  -0.016  0.00  0.00    +0.056 A 
ATOM      4  S   UNL     1       0.002  -0.004   0.002  0.00  0.00    -0.076 S 
ATOM      5  C   UNL     1      -0.022   1.770   0.012  0.00  0.00    +0.116 A 
ATOM      6  C   UNL     1       1.338   2.122   0.001  0.00  0.00    +0.080 A 
ATOM      7  C   UNL     1       1.615   3.526   0.006  0.00  0.00    +0.260 A 
ATOM      8  O   UNL     1       2.765   3.930  -0.003  0.00  0.00    -0.267 OA
ATOM      9  N   UNL     1       0.586   4.394   0.021  0.00  0.00    -0.312 N 
ATOM     10  H   UNL     1       0.780   5.477   0.026  0.00  0.00    +0.170 HD
ATOM     11  C   UNL     1      -0.701   3.962   0.030  0.00  0.00    +0.094 A 
ATOM     12  N   UNL     1      -0.986   2.687   0.031  0.00  0.00    -0.229 NA
BRANCH   2  16
ATOM     13  C   UNL     1       6.466   1.659  -0.052  0.00  0.00    +0.000 A 
ATOM     14  C   UNL     1       5.914   0.785   0.868  0.00  0.00    +0.001 A 
ATOM     15  C   UNL     1       4.551   0.567   0.885  0.00  0.00    +0.008 A 
ATOM     16  C   UNL     1       3.731   1.228  -0.027  0.00  0.00    -0.017 A 
ATOM     17  C   UNL     1       4.293   2.103  -0.956  0.00  0.00    +0.008 A 
ATOM     18  C   UNL     1       5.656   2.318  -0.960  0.00  0.00    +0.001 A 
ENDBRANCH   2  16
ENDBRANCH   1  11
BRANCH   1  19
ATOM     19  N   UNL     1      -3.111   4.269   0.054  0.00  0.00    +0.386 N 
ATOM     20  C   UNL     1      -3.321   3.538  -1.203  0.00  0.00    -0.063 C 
ATOM     21  C   UNL     1      -4.636   2.759  -1.124  0.00  0.00    +0.066 C 
ATOM     22  N   UNL     1      -5.742   3.694  -0.870  0.00  0.00    -0.302 NA
ATOM     23  C   UNL     1      -5.532   4.425   0.387  0.00  0.00    +0.066 C 
ATOM     24  C   UNL     1      -4.217   5.204   0.307  0.00  0.00    -0.063 C 
ATOM     25  H   UNL     1      -3.091   3.537   0.874  0.00  0.00    -0.081 HD
BRANCH  22  26
ATOM     26  C   UNL     1      -7.033   2.993  -0.862  0.00  0.00    +0.119 C 
BRANCH  26  27
ATOM     27  C   UNL     1      -7.108   2.065  -2.047  0.00  0.00    -0.033 A 
ATOM     28  C   UNL     1      -7.628   2.513  -3.248  0.00  0.00    +0.008 A 
ATOM     29  C   UNL     1      -7.698   1.668  -4.336  0.00  0.00    +0.046 A 
ATOM     30  C   UNL     1      -7.255   0.351  -4.231  0.00  0.00    +0.124 A 
ATOM     31  C   UNL     1      -6.734  -0.087  -3.021  0.00  0.00    -0.002 A 
ATOM     32  C   UNL     1      -6.661   0.760  -1.936  0.00  0.00    +0.012 A 
ATOM     33  C   UNL     1      -6.325  -1.535  -3.211  0.00  0.00    +0.080 C 
ATOM     34  C   UNL     1      -6.322  -1.666  -4.752  0.00  0.00    +0.234 C 
ATOM     35  O   UNL     1      -7.247  -0.644  -5.160  0.00  0.00    -0.491 OA
ENDBRANCH  26  27
ENDBRANCH  22  26
ENDBRANCH   1  19
TORSDOF 5
