REMARK  Name = ZINC20916527
REMARK  9 active torsions:
REMARK  status: ('A' for Active; 'I' for Inactive)
REMARK    1  A    between atoms: C_4  and  O_7
REMARK    2  A    between atoms: O_7  and  C_8
REMARK    3  A    between atoms: C_8  and  C_9
REMARK    4  A    between atoms: C_9  and  S_10
REMARK    5  A    between atoms: S_10  and  C_11
REMARK    6  A    between atoms: N_15  and  N_16
REMARK    7  A    between atoms: N_17  and  N_18
REMARK    8  A    between atoms: C_19  and  C_20
REMARK    9  A    between atoms: C_29  and  O_30
REMARK                            x       y       z     vdW  Elec       q    Type
REMARK                         _______ _______ _______ _____ _____    ______ ____
ROOT
ATOM      1  C   UNL     1       0.045   1.043  -2.809  0.00  0.00    +0.210 A 
ATOM      2  N   UNL     1       1.127   0.307  -2.715  0.00  0.00    -0.119 NA
ATOM      3  N   UNL     1       1.558   0.003  -4.013  0.00  0.00    -0.109 NA
ATOM      4  C   UNL     1       0.731   0.570  -4.858  0.00  0.00    +0.254 A 
ATOM      5  N   UNL     1      -0.226   1.228  -4.135  0.00  0.00    -0.211 N 
ATOM      6  N   UNL     1       0.812   0.513  -6.241  0.00  0.00    -0.204 N 
ATOM      7  H   UNL     1       0.061   1.028  -6.858  0.00  0.00    +0.177 HD
ENDROOT
BRANCH   5   8
ATOM      8  N   UNL     1      -1.270   1.943  -4.649  0.00  0.00    -0.294 N 
ATOM      9  H   UNL     1      -1.395   2.028  -5.739  0.00  0.00    +0.163 HD
ATOM     10  H   UNL     1      -1.986   2.434  -3.974  0.00  0.00    +0.163 HD
ENDBRANCH   5   8
BRANCH   6  11
ATOM     11  N   UNL     1       1.851  -0.201  -6.853  0.00  0.00    -0.187 NA
ATOM     12  C   UNL     1       1.927  -0.254  -8.150  0.00  0.00    +0.142 C 
BRANCH  12  13
ATOM     13  C   UNL     1       3.017  -1.002  -8.792  0.00  0.00    +0.044 A 
ATOM     14  C   UNL     1       3.114  -1.078 -10.248  0.00  0.00    -0.006 A 
ATOM     15  C   UNL     1       2.180  -0.445 -11.077  0.00  0.00    +0.009 A 
ATOM     16  C   UNL     1       2.307  -0.540 -12.431  0.00  0.00    +0.001 A 
ATOM     17  C   UNL     1       3.353  -1.259 -13.002  0.00  0.00    +0.001 A 
ATOM     18  C   UNL     1       4.285  -1.878 -12.226  0.00  0.00    +0.008 A 
ATOM     19  C   UNL     1       4.183  -1.806 -10.826  0.00  0.00    -0.017 A 
ATOM     20  C   UNL     1       5.116  -2.446  -9.993  0.00  0.00    +0.012 A 
ATOM     21  C   UNL     1       5.007  -2.370  -8.639  0.00  0.00    +0.046 A 
ATOM     22  C   UNL     1       3.977  -1.661  -8.024  0.00  0.00    +0.126 A 
BRANCH  22  23
ATOM     23  O   UNL     1       3.908  -1.612  -6.669  0.00  0.00    -0.506 OA
ATOM     24  H   UNL     1       4.663  -2.131  -6.060  0.00  0.00    +0.292 HD
ENDBRANCH  22  23
ENDBRANCH  12  13
ENDBRANCH   6  11
BRANCH   1  25
ATOM     25  S   UNL     1      -0.890   1.687  -1.462  0.00  0.00    -0.081 S 
BRANCH  25  26
ATOM     26  C   UNL     1      -0.013   1.086   0.008  0.00  0.00    +0.118 C 
BRANCH  26  27
ATOM     27  C   UNL     1      -0.729   1.579   1.267  0.00  0.00    +0.240 C 
BRANCH  27  28
ATOM     28  O   UNL     1      -0.038   1.106   2.425  0.00  0.00    -0.491 OA
BRANCH  28  32
ATOM     29  C   UNL     1      -1.585   2.173   6.097  0.00  0.00    +0.000 A 
ATOM     30  C   UNL     1      -0.447   1.391   6.028  0.00  0.00    +0.004 A 
ATOM     31  C   UNL     1       0.073   1.032   4.800  0.00  0.00    +0.045 A 
ATOM     32  C   UNL     1      -0.547   1.458   3.634  0.00  0.00    +0.121 A 
ATOM     33  C   UNL     1      -1.686   2.247   3.705  0.00  0.00    +0.045 A 
ATOM     34  C   UNL     1      -2.206   2.598   4.936  0.00  0.00    +0.004 A 
ENDBRANCH  28  32
ENDBRANCH  27  28
ENDBRANCH  26  27
ENDBRANCH  25  26
ENDBRANCH   1  25
TORSDOF 9
