REMARK  Name = ZINC13720276
REMARK  11 active torsions:
REMARK  status: ('A' for Active; 'I' for Inactive)
REMARK    1  A    between atoms: C_1  and  O_2
REMARK    2  A    between atoms: O_2  and  C_3
REMARK    3  A    between atoms: C_8  and  C_9
REMARK    4  A    between atoms: C_9  and  N_51
REMARK    5  A    between atoms: C_10  and  C_11
REMARK    6  A    between atoms: C_10  and  N_51
REMARK    7  A    between atoms: C_13  and  O_27
REMARK    8  A    between atoms: C_14  and  O_18
REMARK    9  A    between atoms: O_18  and  C_19
REMARK   10  A    between atoms: C_19  and  C_20
REMARK   11  A    between atoms: O_27  and  C_28
REMARK                            x       y       z     vdW  Elec       q    Type
REMARK                         _______ _______ _______ _____ _____    ______ ____
ROOT
ATOM      1  C   UNL     1      -0.368   5.119   0.561  0.00  0.00    -0.060 A 
ATOM      2  C   UNL     1      -0.259   3.751   0.395  0.00  0.00    +0.051 A 
ATOM      3  C   UNL     1      -0.787   2.893   1.346  0.00  0.00    +0.163 A 
ATOM      4  C   UNL     1      -1.432   3.411   2.466  0.00  0.00    +0.176 A 
ATOM      5  C   UNL     1      -1.532   4.784   2.630  0.00  0.00    +0.063 A 
ATOM      6  C   UNL     1      -1.002   5.635   1.675  0.00  0.00    +0.021 A 
ATOM      7 BR   UNL     1      -2.398   5.494   4.153  0.00  0.00    -0.046 Br
ENDROOT
BRANCH   3   8
ATOM      8  O   UNL     1      -0.682   1.547   1.184  0.00  0.00    -0.491 OA
ATOM      9  C   UNL     1      -0.013   1.086   0.008  0.00  0.00    +0.277 C 
ENDBRANCH   3   8
BRANCH   1  10
ATOM     10  C   UNL     1       0.207   6.050  -0.475  0.00  0.00    -0.046 C 
BRANCH  10  11
ATOM     11  N   UNL     1      -0.821   6.336  -1.492  0.00  0.00    +0.384 N 
ATOM     12  H   UNL     1      -1.112   5.457  -1.937  0.00  0.00    -0.085 HD
ATOM     13  H   UNL     1      -1.632   6.775  -1.041  0.00  0.00    -0.085 HD
BRANCH  11  14
ATOM     14  C   UNL     1      -0.285   7.247  -2.521  0.00  0.00    -0.043 C 
BRANCH  14  20
ATOM     15  C   UNL     1      -2.348   8.453  -3.281  0.00  0.00    +0.121 A 
ATOM     16  C   UNL     1      -3.332   8.702  -4.226  0.00  0.00    +0.046 A 
ATOM     17  C   UNL     1      -3.322   8.022  -5.428  0.00  0.00    +0.004 A 
ATOM     18  C   UNL     1      -2.332   7.093  -5.690  0.00  0.00    +0.000 A 
ATOM     19  C   UNL     1      -1.347   6.846  -4.752  0.00  0.00    +0.005 A 
ATOM     20  C   UNL     1      -1.356   7.520  -3.546  0.00  0.00    -0.023 A 
BRANCH  15  22
ATOM     21  C   UNL     1      -3.407  10.067  -1.893  0.00  0.00    +0.277 C 
ATOM     22  O   UNL     1      -2.355   9.121  -2.098  0.00  0.00    -0.495 OA
ENDBRANCH  15  22
ENDBRANCH  14  20
ENDBRANCH  11  14
ENDBRANCH  10  11
ENDBRANCH   1  10
BRANCH   4  23
ATOM     23  O   UNL     1      -1.957   2.573   3.399  0.00  0.00    -0.483 OA
BRANCH  23  24
ATOM     24  C   UNL     1      -1.102   2.184   4.476  0.00  0.00    +0.264 C 
BRANCH  24  25
ATOM     25  C   UNL     1      -1.850   1.262   5.404  0.00  0.00    -0.010 A 
ATOM     26  C   UNL     1      -2.561   1.781   6.469  0.00  0.00    +0.008 A 
ATOM     27  C   UNL     1      -3.252   0.936   7.317  0.00  0.00    +0.020 A 
ATOM     28  C   UNL     1      -3.223  -0.431   7.106  0.00  0.00    +0.041 A 
ATOM     29  C   UNL     1      -2.506  -0.951   6.042  0.00  0.00    +0.020 A 
ATOM     30  C   UNL     1      -1.820  -0.104   5.192  0.00  0.00    +0.008 A 
ATOM     31 CL   UNL     1      -4.085  -1.493   8.174  0.00  0.00    -0.084 Cl
ENDBRANCH  24  25
ENDBRANCH  23  24
ENDBRANCH   4  23
TORSDOF 9
