REMARK  Name = ZINC37524953
REMARK  6 active torsions:
REMARK  status: ('A' for Active; 'I' for Inactive)
REMARK    1  A    between atoms: C_1  and  C_2
REMARK    2  A    between atoms: C_2  and  C_3
REMARK    3  A    between atoms: C_6  and  C_9
REMARK    4  A    between atoms: N_11  and  C_12
REMARK    5  A    between atoms: N_15  and  C_18
REMARK    6  A    between atoms: C_23  and  C_24
REMARK                            x       y       z     vdW  Elec       q    Type
REMARK                         _______ _______ _______ _____ _____    ______ ____
ROOT
ATOM      1  C   UNL     1     -10.145  -5.360  -2.839  0.00  0.00    +0.042 A 
ATOM      2  C   UNL     1     -11.448  -5.741  -2.540  0.00  0.00    +0.024 A 
ATOM      3  C   UNL     1     -12.216  -6.382  -3.490  0.00  0.00    +0.002 A 
ATOM      4  C   UNL     1     -11.698  -6.650  -4.747  0.00  0.00    +0.001 A 
ATOM      5  C   UNL     1     -10.409  -6.280  -5.062  0.00  0.00    +0.015 A 
ATOM      6  C   UNL     1      -9.620  -5.626  -4.113  0.00  0.00    +0.058 A 
ENDROOT
BRANCH   6   7
ATOM      7  C   UNL     1      -8.241  -5.221  -4.446  0.00  0.00    +0.248 C 
ATOM      8  O   UNL     1      -7.321  -5.546  -3.721  0.00  0.00    -0.270 OA
ATOM      9  N   UNL     1      -8.002  -4.491  -5.553  0.00  0.00    -0.294 N 
ATOM     10  C   UNL     1      -9.114  -3.979  -6.366  0.00  0.00    +0.127 C 
ATOM     11  C   UNL     1      -8.962  -2.459  -6.503  0.00  0.00    +0.125 C 
ATOM     12  N   UNL     1      -7.584  -2.160  -6.918  0.00  0.00    -0.314 N 
ATOM     13  C   UNL     1      -6.472  -2.672  -6.105  0.00  0.00    +0.125 C 
ATOM     14  C   UNL     1      -6.625  -4.188  -5.965  0.00  0.00    +0.127 C 
ATOM     15  C   UNL     1      -7.338  -1.407  -8.060  0.00  0.00    +0.099 A 
ATOM     16  C   UNL     1      -8.395  -1.047  -8.890  0.00  0.00    +0.042 A 
ATOM     17  C   UNL     1      -8.135  -0.297 -10.023  0.00  0.00    +0.005 A 
ATOM     18  C   UNL     1      -6.821   0.067 -10.290  0.00  0.00    +0.018 A 
ATOM     19  C   UNL     1      -5.821  -0.325  -9.423  0.00  0.00    +0.084 A 
ATOM     20  N   UNL     1      -6.099  -1.035  -8.346  0.00  0.00    -0.350 N 
ATOM     21  H   UNL     1      -5.378  -1.295  -7.751  0.00  0.00    +0.166 HD
ENDBRANCH   6   7
BRANCH   1  25
ATOM     22  C   UNL     1      -7.051  -3.588  -0.722  0.00  0.00    +0.076 C 
ATOM     23  C   UNL     1      -7.191  -5.106  -0.858  0.00  0.00    +0.041 C 
ATOM     24  C   UNL     1      -8.676  -5.481  -0.841  0.00  0.00    +0.107 C 
ATOM     25  N   UNL     1      -9.370  -4.715  -1.884  0.00  0.00    -0.329 N 
ATOM     26  C   UNL     1      -9.228  -3.252  -1.899  0.00  0.00    +0.107 C 
ATOM     27  C   UNL     1      -7.737  -2.902  -1.905  0.00  0.00    +0.041 C 
BRANCH  22  30
ATOM     28  C   UNL     1      -4.939  -3.268   0.451  0.00  0.00    +0.244 C 
ATOM     29  O   UNL     1      -5.494  -3.602   1.480  0.00  0.00    -0.270 OA
ATOM     30  N   UNL     1      -5.631  -3.228  -0.705  0.00  0.00    -0.308 N 
ATOM     31  H   UNL     1      -5.188  -2.962  -1.526  0.00  0.00    +0.149 HD
BRANCH  28  35
ATOM     32  C   UNL     1      -0.822  -2.227   0.499  0.00  0.00    -0.048 A 
ATOM     33  C   UNL     1      -1.450  -2.606   1.672  0.00  0.00    +0.004 A 
ATOM     34  C   UNL     1      -2.787  -2.945   1.663  0.00  0.00    +0.013 A 
ATOM     35  C   UNL     1      -3.506  -2.905   0.468  0.00  0.00    +0.037 A 
ATOM     36  C   UNL     1      -2.866  -2.522  -0.712  0.00  0.00    +0.013 A 
ATOM     37  C   UNL     1      -1.530  -2.179  -0.688  0.00  0.00    +0.004 A 
BRANCH  32  39
ATOM     38  C   UNL     1       0.783  -0.358   0.786  0.00  0.00    +0.009 C 
ATOM     39  C   UNL     1       0.639  -1.857   0.516  0.00  0.00    +0.032 C 
ENDBRANCH  32  39
ENDBRANCH  28  35
ENDBRANCH  22  30
ENDBRANCH   1  25
TORSDOF 5
