REMARK  Name = ZINC40399453
REMARK  5 active torsions:
REMARK  status: ('A' for Active; 'I' for Inactive)
REMARK    1  A    between atoms: C_1  and  C_2
REMARK    2  A    between atoms: C_2  and  C_3
REMARK    3  A    between atoms: C_8  and  N_9
REMARK    4  A    between atoms: C_10  and  C_12
REMARK    5  A    between atoms: N_26  and  C_27
REMARK                            x       y       z     vdW  Elec       q    Type
REMARK                         _______ _______ _______ _____ _____    ______ ____
ROOT
ATOM      1  C   UNL     1      -2.822  -0.544   3.929  0.00  0.00    +0.122 C 
ATOM      2  C   UNL     1      -2.926   0.948   3.611  0.00  0.00    +0.114 C 
ATOM      3  C   UNL     1      -2.550   1.753   4.827  0.00  0.00    +0.219 C 
ATOM      4  O   UNL     1      -1.928   2.785   4.695  0.00  0.00    -0.275 OA
ATOM      5  N   UNL     1      -2.898   1.339   6.058  0.00  0.00    -0.270 N 
ATOM      6  C   UNL     1      -3.515   0.115   6.248  0.00  0.00    +0.138 A 
ATOM      7  C   UNL     1      -3.512  -0.829   5.236  0.00  0.00    +0.069 A 
ATOM      8  C   UNL     1      -4.160  -2.051   5.444  0.00  0.00    +0.258 A 
ATOM      9  O   UNL     1      -4.185  -2.899   4.567  0.00  0.00    -0.267 OA
ATOM     10  N   UNL     1      -4.756  -2.273   6.635  0.00  0.00    -0.295 N 
ATOM     11  H   UNL     1      -5.224  -3.108   6.795  0.00  0.00    +0.172 HD
ATOM     12  C   UNL     1      -4.701  -1.327   7.612  0.00  0.00    +0.202 A 
ATOM     13  N   UNL     1      -4.095  -0.175   7.418  0.00  0.00    -0.200 NA
ATOM     14  N   UNL     1      -5.289  -1.579   8.824  0.00  0.00    -0.285 N 
ATOM     15  H   UNL     1      -2.713   1.906   6.823  0.00  0.00    +0.156 HD
ATOM     16  H   UNL     1      -5.671  -2.452   9.005  0.00  0.00    +0.155 HD
ENDROOT
BRANCH  14  17
ATOM     17  C   UNL     1      -5.338  -0.578   9.799  0.00  0.00    +0.036 A 
ATOM     18  C   UNL     1      -5.477   0.752   9.425  0.00  0.00    +0.043 A 
ATOM     19  C   UNL     1      -5.526   1.739  10.391  0.00  0.00    +0.044 A 
ATOM     20  C   UNL     1      -5.437   1.403  11.731  0.00  0.00    +0.040 A 
ATOM     21  C   UNL     1      -5.298   0.079  12.107  0.00  0.00    +0.044 A 
ATOM     22  C   UNL     1      -5.255  -0.913  11.145  0.00  0.00    +0.043 A 
ATOM     23 CL   UNL     1      -5.186  -0.339  13.788  0.00  0.00    -0.083 Cl
ATOM     24 CL   UNL     1      -5.698   3.402   9.924  0.00  0.00    -0.083 Cl
ENDBRANCH  14  17
BRANCH   1  26
ATOM     25  N   UNL     1      -0.550  -0.770   2.976  0.00  0.00    -0.285 N 
ATOM     26  C   UNL     1      -1.370  -0.936   4.033  0.00  0.00    +0.225 C 
ATOM     27  O   UNL     1      -0.940  -1.400   5.068  0.00  0.00    -0.275 OA
ATOM     28  H   UNL     1      -0.877  -0.337   2.172  0.00  0.00    +0.155 HD
BRANCH  25  34
ATOM     29  C   UNL     1       1.397  -1.702   1.895  0.00  0.00    -0.026 A 
ATOM     30  C   UNL     1       2.705  -2.144   1.958  0.00  0.00    +0.005 A 
ATOM     31  C   UNL     1       3.388  -2.116   3.160  0.00  0.00    +0.000 A 
ATOM     32  C   UNL     1       2.766  -1.645   4.301  0.00  0.00    +0.002 A 
ATOM     33  C   UNL     1       1.459  -1.201   4.245  0.00  0.00    +0.023 A 
ATOM     34  C   UNL     1       0.772  -1.224   3.038  0.00  0.00    +0.037 A 
BRANCH  29  36
ATOM     35  C   UNL     1       0.769  -0.371  -0.100  0.00  0.00    +0.009 C 
ATOM     36  C   UNL     1       0.653  -1.734   0.585  0.00  0.00    +0.033 C 
ENDBRANCH  29  36
ENDBRANCH  25  34
ENDBRANCH   1  26
TORSDOF 4
