REMARK  Name = ZINC06059723
REMARK  11 active torsions:
REMARK  status: ('A' for Active; 'I' for Inactive)
REMARK    1  A    between atoms: C_1  and  C_2
REMARK    2  A    between atoms: C_5  and  N_8
REMARK    3  A    between atoms: N_8  and  C_9
REMARK    4  A    between atoms: N_8  and  S_20
REMARK    5  A    between atoms: C_9  and  C_10
REMARK    6  A    between atoms: C_10  and  C_12
REMARK    7  A    between atoms: C_10  and  O_19
REMARK    8  A    between atoms: C_12  and  N_60
REMARK    9  A    between atoms: C_15  and  C_18
REMARK   10  A    between atoms: S_20  and  C_23
REMARK   11  A    between atoms: C_26  and  N_29
REMARK                            x       y       z     vdW  Elec       q    Type
REMARK                         _______ _______ _______ _____ _____    ______ ____
ROOT
ATOM      1  N   UNL     1       0.261   7.707  -4.446  0.00  0.00    -0.201 N 
ENDROOT
BRANCH   1   6
ATOM      2  C   UNL     1       3.809   6.941  -8.803  0.00  0.00    +0.044 C 
ATOM      3  C   UNL     1       2.866   7.145  -7.645  0.00  0.00    -0.050 A 
ATOM      4  C   UNL     1       1.628   6.529  -7.647  0.00  0.00    +0.005 A 
ATOM      5  C   UNL     1       0.761   6.713  -6.588  0.00  0.00    +0.025 A 
ATOM      6  C   UNL     1       1.135   7.518  -5.519  0.00  0.00    +0.051 A 
ATOM      7  C   UNL     1       2.377   8.140  -5.523  0.00  0.00    +0.025 A 
ATOM      8  C   UNL     1       3.240   7.947  -6.583  0.00  0.00    +0.005 A 
ENDBRANCH   1   6
BRANCH   1   9
ATOM      9  S   UNL     1      -1.221   8.402  -4.698  0.00  0.00    +0.075 S 
ATOM     10  O   UNL     1      -1.613   8.057  -6.019  0.00  0.00    -0.150 OA
ATOM     11  O   UNL     1      -2.015   8.089  -3.562  0.00  0.00    -0.150 OA
BRANCH   9  12
ATOM     12  C   UNL     1      -0.987  10.149  -4.682  0.00  0.00    +0.109 A 
ATOM     13  C   UNL     1      -1.094  10.850  -3.496  0.00  0.00    +0.031 A 
ATOM     14  C   UNL     1      -0.905  12.219  -3.483  0.00  0.00    +0.034 A 
ATOM     15  C   UNL     1      -0.620  12.889  -4.658  0.00  0.00    +0.126 A 
ATOM     16  C   UNL     1      -0.517  12.188  -5.845  0.00  0.00    +0.034 A 
ATOM     17  C   UNL     1      -0.701  10.818  -5.857  0.00  0.00    +0.031 A 
BRANCH  15  18
ATOM     18  N   UNL     1      -0.423  14.356  -4.645  0.00  0.00    +0.056 N 
ATOM     19  O   UNL     1      -0.170  14.946  -5.680  0.00  0.00    -0.126 OA
ATOM     20  O   UNL     1      -0.513  14.973  -3.599  0.00  0.00    -0.126 OA
ENDBRANCH  15  18
ENDBRANCH   9  12
ENDBRANCH   1   9
BRANCH   1  21
ATOM     21  C   UNL     1       0.655   7.290  -3.098  0.00  0.00    +0.161 C 
BRANCH  21  22
ATOM     22  C   UNL     1       0.333   5.806  -2.909  0.00  0.00    +0.117 C 
BRANCH  22  23
ATOM     23  O   UNL     1      -1.070   5.598  -3.081  0.00  0.00    -0.392 OA
ATOM     24  H   UNL     1      -1.621   6.091  -2.457  0.00  0.00    +0.210 HD
ENDBRANCH  22  23
BRANCH  22  25
ATOM     25  C   UNL     1       0.744   5.371  -1.501  0.00  0.00    -0.046 C 
BRANCH  25  32
ATOM     26  C   UNL     1       1.424   3.109  -2.033  0.00  0.00    -0.078 C 
ATOM     27  C   UNL     1       1.001   1.641  -1.947  0.00  0.00    -0.016 C 
ATOM     28  C   UNL     1       0.918   1.224  -0.477  0.00  0.00    -0.018 C 
ATOM     29  C   UNL     1      -0.071   2.139   0.250  0.00  0.00    -0.016 C 
ATOM     30  C   UNL     1       0.383   3.593   0.101  0.00  0.00    -0.078 C 
ATOM     31  C   UNL     1       0.436  -0.226  -0.383  0.00  0.00    +0.007 C 
ATOM     32  N   UNL     1       0.419   3.939  -1.335  0.00  0.00    +0.381 N 
ATOM     33  H   UNL     1      -0.505   3.758  -1.745  0.00  0.00    -0.082 HD
ENDBRANCH  25  32
ENDBRANCH  22  25
ENDBRANCH  21  22
ENDBRANCH   1  21
TORSDOF 9
