REMARK  Name = ZINC63514205
REMARK  9 active torsions:
REMARK  status: ('A' for Active; 'I' for Inactive)
REMARK    1  A    between atoms: C_1  and  C_2
REMARK    2  A    between atoms: C_4  and  C_17
REMARK    3  A    between atoms: C_7  and  O_12
REMARK    4  A    between atoms: O_12  and  C_13
REMARK    5  A    between atoms: C_17  and  C_18
REMARK    6  A    between atoms: C_18  and  N_19
REMARK    7  A    between atoms: C_20  and  C_22
REMARK    8  A    between atoms: C_27  and  O_34
REMARK    9  A    between atoms: O_34  and  C_35
REMARK                            x       y       z     vdW  Elec       q    Type
REMARK                         _______ _______ _______ _____ _____    ______ ____
ROOT
ATOM      1  C   UNL     1       1.363  -0.963  -3.578  0.00  0.00    +0.108 C 
ENDROOT
BRANCH   1   2
ATOM      2  N   UNL     1       0.997  -0.729  -4.977  0.00  0.00    -0.314 N 
ATOM      3  C   UNL     1       1.750  -1.249  -5.967  0.00  0.00    +0.227 C 
ATOM      4  O   UNL     1       2.731  -1.910  -5.699  0.00  0.00    -0.275 OA
ATOM      5  H   UNL     1       0.212  -0.201  -5.192  0.00  0.00    +0.149 HD
BRANCH   3   6
ATOM      6  C   UNL     1       1.373  -1.009  -7.406  0.00  0.00    +0.188 C 
ATOM      7  C   UNL     1       2.393  -1.682  -8.330  0.00  0.00    +0.063 C 
ATOM      8  C   UNL     1       3.667  -0.875  -8.360  0.00  0.00    -0.000 A 
ATOM      9  C   UNL     1       4.833  -1.499  -8.773  0.00  0.00    +0.053 A 
ATOM     10  C   UNL     1       6.024  -0.794  -8.823  0.00  0.00    +0.121 A 
ATOM     11  C   UNL     1       6.051   0.545  -8.459  0.00  0.00    +0.049 A 
ATOM     12  C   UNL     1       4.891   1.167  -8.046  0.00  0.00    +0.050 A 
ATOM     13  C   UNL     1       3.696   0.458  -7.992  0.00  0.00    +0.135 A 
ATOM     14  O   UNL     1       2.579   1.107  -7.559  0.00  0.00    -0.425 OA
ATOM     15  C   UNL     1       1.395   0.477  -7.703  0.00  0.00    +0.325 C 
ATOM     16  O   UNL     1       0.401   1.067  -8.052  0.00  0.00    -0.250 OA
BRANCH  10  17
ATOM     17  O   UNL     1       7.165  -1.412  -9.228  0.00  0.00    -0.495 OA
ATOM     18  C   UNL     1       8.356  -0.623  -9.254  0.00  0.00    +0.277 C 
ENDBRANCH  10  17
ENDBRANCH   3   6
ENDBRANCH   1   2
BRANCH   1  19
ATOM     19  C   UNL     1       0.352  -0.269  -2.664  0.00  0.00    +0.052 C 
BRANCH  19  22
ATOM     20  C   UNL     1      -0.019   1.526   0.010  0.00  0.00    +0.035 C 
ATOM     21  C   UNL     1       0.002  -0.004   0.002  0.00  0.00    +0.103 C 
ATOM     22  C   UNL     1       0.729  -0.509  -1.224  0.00  0.00    -0.037 C 
ATOM     23  C   UNL     1       1.785  -1.220  -0.768  0.00  0.00    +0.003 A 
ATOM     24  C   UNL     1       2.858  -1.954  -1.447  0.00  0.00    +0.056 A 
ATOM     25  C   UNL     1       3.803  -2.586  -0.711  0.00  0.00    +0.131 A 
ATOM     26  C   UNL     1       3.796  -2.567   0.695  0.00  0.00    +0.048 A 
ATOM     27  C   UNL     1       2.851  -1.919   1.409  0.00  0.00    +0.029 A 
ATOM     28  C   UNL     1       1.779  -1.200   0.713  0.00  0.00    +0.043 A 
ATOM     29  N   UNL     1       0.758  -0.506   1.155  0.00  0.00    -0.378 N 
ATOM     30  H   UNL     1       0.540  -0.349   2.087  0.00  0.00    +0.160 HD
BRANCH  25  31
ATOM     31  O   UNL     1       4.792  -3.263  -1.353  0.00  0.00    -0.406 OA
BRANCH  31  32
ATOM     32  C   UNL     1       5.767  -3.915  -0.537  0.00  0.00    +0.575 C 
ATOM     33  F   UNL     1       5.136  -4.859   0.280  0.00  0.00    -0.133 F 
ATOM     34  F   UNL     1       6.704  -4.558  -1.354  0.00  0.00    -0.133 F 
ATOM     35  F   UNL     1       6.417  -2.968   0.261  0.00  0.00    -0.133 F 
ENDBRANCH  31  32
ENDBRANCH  25  31
ENDBRANCH  19  22
ENDBRANCH   1  19
TORSDOF 7
