REMARK  Name = ZINC15701230
REMARK  6 active torsions:
REMARK  status: ('A' for Active; 'I' for Inactive)
REMARK    1  A    between atoms: C_1  and  C_2
REMARK    2  A    between atoms: C_2  and  C_4
REMARK    3  A    between atoms: C_2  and  O_21
REMARK    4  A    between atoms: C_15  and  C_17
REMARK    5  A    between atoms: O_21  and  C_22
REMARK    6  A    between atoms: C_22  and  C_24
REMARK                            x       y       z     vdW  Elec       q    Type
REMARK                         _______ _______ _______ _____ _____    ______ ____
ROOT
ATOM      1  C   UNL     1       2.563  -0.094   0.524  0.00  0.00    +0.261 C 
ATOM      2  O   UNL     1       1.619  -0.642   1.052  0.00  0.00    -0.271 OA
ATOM      3  N   UNL     1       2.413   1.128  -0.026  0.00  0.00    -0.258 N 
ATOM      4  C   UNL     1       3.542   1.813  -0.672  0.00  0.00    +0.209 C 
ATOM      5  C   UNL     1       3.524   3.268  -0.279  0.00  0.00    +0.235 C 
ATOM      6  O   UNL     1       4.565   3.889  -0.228  0.00  0.00    -0.274 OA
ATOM      7  N   UNL     1       2.365   3.888   0.016  0.00  0.00    -0.283 N 
ATOM      8  C   UNL     1       1.157   3.182   0.012  0.00  0.00    +0.056 A 
ATOM      9  C   UNL     1       1.174   1.786   0.000  0.00  0.00    +0.058 A 
ATOM     10  C   UNL     1      -0.013   1.076   0.008  0.00  0.00    +0.026 A 
ATOM     11  C   UNL     1      -1.219   1.754   0.017  0.00  0.00    +0.014 A 
ATOM     12  C   UNL     1      -1.239   3.137   0.030  0.00  0.00    +0.057 A 
ATOM     13  C   UNL     1      -0.056   3.853   0.025  0.00  0.00    +0.037 A 
ATOM     14  H   UNL     1       2.368   4.833   0.234  0.00  0.00    +0.155 HD
ENDROOT
BRANCH  12  15
ATOM     15  C   UNL     1      -2.557   3.867   0.043  0.00  0.00    +0.417 C 
ATOM     16  F   UNL     1      -2.975   4.100  -1.271  0.00  0.00    -0.166 F 
ATOM     17  F   UNL     1      -3.514   3.090   0.706  0.00  0.00    -0.166 F 
ATOM     18  F   UNL     1      -2.406   5.089   0.708  0.00  0.00    -0.166 F 
ENDBRANCH  12  15
BRANCH   1  20
ATOM     19  C   UNL     1       4.333  -0.973  -0.974  0.00  0.00    +0.062 C 
ATOM     20  C   UNL     1       3.905  -0.779   0.482  0.00  0.00    +0.259 C 
BRANCH  20  21
ATOM     21  O   UNL     1       3.808  -2.072   1.135  0.00  0.00    -0.449 OA
BRANCH  21  22
ATOM     22  C   UNL     1       4.920  -2.538   1.738  0.00  0.00    +0.343 C 
ATOM     23  O   UNL     1       5.941  -1.881   1.720  0.00  0.00    -0.245 OA
BRANCH  22  24
ATOM     24  C   UNL     1       4.896  -3.844   2.421  0.00  0.00    +0.094 A 
ATOM     25  C   UNL     1       3.721  -4.603   2.445  0.00  0.00    +0.020 A 
ATOM     26  C   UNL     1       3.705  -5.822   3.084  0.00  0.00    +0.039 A 
ATOM     27  C   UNL     1       4.850  -6.301   3.704  0.00  0.00    +0.126 A 
ATOM     28  C   UNL     1       6.018  -5.556   3.686  0.00  0.00    +0.077 A 
ATOM     29  C   UNL     1       6.050  -4.333   3.044  0.00  0.00    +0.140 A 
ATOM     30  F   UNL     1       7.190  -3.609   3.022  0.00  0.00    -0.205 F 
ATOM     31  F   UNL     1       4.826  -7.498   4.330  0.00  0.00    -0.205 F 
ENDBRANCH  22  24
ENDBRANCH  21  22
ENDBRANCH  20  21
ENDBRANCH   1  20
TORSDOF 5
