REMARK  Name = ZINC15931485
REMARK  7 active torsions:
REMARK  status: ('A' for Active; 'I' for Inactive)
REMARK    1  A    between atoms: C_1  and  C_2
REMARK    2  A    between atoms: C_2  and  C_3
REMARK    3  A    between atoms: C_2  and  C_4
REMARK    4  A    between atoms: C_2  and  C_5
REMARK    5  A    between atoms: C_10  and  N_11
REMARK    6  A    between atoms: C_12  and  C_14
REMARK    7  A    between atoms: C_23  and  N_26
REMARK                            x       y       z     vdW  Elec       q    Type
REMARK                         _______ _______ _______ _____ _____    ______ ____
ROOT
ATOM      1  C   UNL     1      -1.280   1.536  -1.425  0.00  0.00    +0.050 C 
ATOM      2  C   UNL     1      -0.596   1.119  -0.121  0.00  0.00    +0.020 C 
ATOM      3  C   UNL     1      -1.445   1.574   1.068  0.00  0.00    -0.007 C 
ATOM      4  C   UNL     1      -1.595   3.096   1.035  0.00  0.00    +0.007 C 
ATOM      5  C   UNL     1      -2.279   3.513  -0.268  0.00  0.00    -0.007 C 
ATOM      6  C   UNL     1      -1.430   3.059  -1.457  0.00  0.00    +0.020 C 
ATOM      7  C   UNL     1      -3.661   2.862  -0.350  0.00  0.00    +0.034 C 
ATOM      8  C   UNL     1      -3.511   1.340  -0.318  0.00  0.00    +0.067 C 
ATOM      9  C   UNL     1      -2.827   0.923   0.986  0.00  0.00    +0.034 C 
ATOM     10  C   UNL     1      -2.662   0.885  -1.507  0.00  0.00    +0.046 C 
ENDROOT
BRANCH   8  11
ATOM     11  N   UNL     1      -4.834   0.717  -0.396  0.00  0.00    -0.246 N 
ATOM     12  C   UNL     1      -5.747   0.636   0.588  0.00  0.00    +0.219 A 
ATOM     13  N   UNL     1      -6.795   0.009   0.120  0.00  0.00    -0.223 NA
ATOM     14  C   UNL     1      -6.586  -0.333  -1.151  0.00  0.00    +0.245 A 
ATOM     15  N   UNL     1      -5.399   0.079  -1.512  0.00  0.00    -0.158 NA
ENDBRANCH   8  11
BRANCH   1  17
ATOM     16  N   UNL     1      -0.177  -0.220  -2.772  0.00  0.00    -0.285 N 
ATOM     17  C   UNL     1      -0.444   1.089  -2.596  0.00  0.00    +0.223 C 
ATOM     18  O   UNL     1      -0.011   1.907  -3.380  0.00  0.00    -0.275 OA
ATOM     19  H   UNL     1      -0.485  -0.952  -2.011  0.00  0.00    +0.155 HD
BRANCH  16  25
ATOM     20  C   UNL     1       0.668  -2.006  -4.162  0.00  0.00    -0.021 A 
ATOM     21  C   UNL     1       1.329  -2.426  -5.300  0.00  0.00    +0.006 A 
ATOM     22  C   UNL     1       1.813  -1.497  -6.203  0.00  0.00    +0.000 A 
ATOM     23  C   UNL     1       1.639  -0.145  -5.969  0.00  0.00    +0.002 A 
ATOM     24  C   UNL     1       0.975   0.281  -4.835  0.00  0.00    +0.023 A 
ATOM     25  C   UNL     1       0.492  -0.649  -3.924  0.00  0.00    +0.037 A 
BRANCH  20  27
ATOM     26  C   UNL     1       0.434  -4.429  -3.694  0.00  0.00    +0.015 C 
ATOM     27  C   UNL     1       0.140  -3.019  -3.179  0.00  0.00    -0.011 C 
ATOM     28  C   UNL     1       0.821  -2.818  -1.824  0.00  0.00    +0.015 C 
ATOM     29  C   UNL     1      -1.371  -2.837  -3.023  0.00  0.00    +0.015 C 
ENDBRANCH  20  27
ENDBRANCH  16  25
ENDBRANCH   1  17
TORSDOF 4
