REMARK  Name = ZINC66457235
REMARK  2 active torsions:
REMARK  status: ('A' for Active; 'I' for Inactive)
REMARK    1  A    between atoms: C_11  and  C_14
REMARK    2  A    between atoms: C_14  and  C_15
REMARK                            x       y       z     vdW  Elec       q    Type
REMARK                         _______ _______ _______ _____ _____    ______ ____
ROOT
ATOM      1  C   UNL     1      -0.016   1.358   0.009  0.00  0.00    +0.001 A 
ATOM      2  C   UNL     1       1.168   2.090   0.002  0.00  0.00    +0.001 A 
ATOM      3  C   UNL     1       2.378   1.462  -0.013  0.00  0.00    +0.009 A 
ATOM      4  C   UNL     1       2.434   0.064  -0.021  0.00  0.00    -0.007 A 
ATOM      5  C   UNL     1       1.231  -0.683  -0.013  0.00  0.00    -0.017 A 
ATOM      6  C   UNL     1       0.002  -0.004   0.002  0.00  0.00    +0.008 A 
ATOM      7  C   UNL     1       1.289  -2.090  -0.022  0.00  0.00    +0.012 A 
ATOM      8  C   UNL     1       2.477  -2.743  -0.037  0.00  0.00    +0.047 A 
ATOM      9  C   UNL     1       3.695  -2.054  -0.045  0.00  0.00    +0.136 A 
ATOM     10  C   UNL     1       3.701  -0.656  -0.038  0.00  0.00    +0.031 A 
ATOM     11  C   UNL     1       5.109  -0.263  -0.050  0.00  0.00    +0.007 A 
ATOM     12  C   UNL     1       5.815  -1.406  -0.064  0.00  0.00    +0.200 A 
ATOM     13  O   UNL     1       4.981  -2.459  -0.061  0.00  0.00    -0.463 OA
ENDROOT
BRANCH  11  14
ATOM     14  C   UNL     1       5.657   1.141  -0.048  0.00  0.00    +0.135 C 
BRANCH  14  15
ATOM     15  C   UNL     1       5.739   1.646   1.369  0.00  0.00    +0.223 C 
ATOM     16  O   UNL     1       5.386   0.937   2.287  0.00  0.00    -0.275 OA
ATOM     17  N   UNL     1       6.204   2.887   1.616  0.00  0.00    -0.269 N 
ATOM     18  C   UNL     1       6.280   3.357   2.934  0.00  0.00    +0.147 A 
ATOM     19  C   UNL     1       5.912   2.645   4.087  0.00  0.00    +0.064 A 
ATOM     20  C   UNL     1       6.134   3.442   5.156  0.00  0.00    +0.107 A 
ATOM     21  N   UNL     1       6.623   4.616   4.703  0.00  0.00    -0.283 N 
ATOM     22  H   UNL     1       6.873   5.378   5.249  0.00  0.00    +0.188 HD
ATOM     23  N   UNL     1       6.711   4.539   3.307  0.00  0.00    -0.159 NA
ATOM     24  H   UNL     1       6.486   3.455   0.881  0.00  0.00    +0.156 HD
ENDBRANCH  14  15
ENDBRANCH  11  14
TORSDOF 2
