REMARK  Name = ZINC44170017
REMARK  11 active torsions:
REMARK  status: ('A' for Active; 'I' for Inactive)
REMARK    1  A    between atoms: C_1  and  C_2
REMARK    2  A    between atoms: C_2  and  C_3
REMARK    3  A    between atoms: C_2  and  C_4
REMARK    4  A    between atoms: C_2  and  C_5
REMARK    5  A    between atoms: C_7  and  C_16
REMARK    6  A    between atoms: C_9  and  C_12
REMARK    7  A    between atoms: C_10  and  O_11
REMARK    8  A    between atoms: C_12  and  C_13
REMARK    9  A    between atoms: C_12  and  C_14
REMARK   10  A    between atoms: C_12  and  C_15
REMARK   11  A    between atoms: C_21  and  C_24
REMARK                            x       y       z     vdW  Elec       q    Type
REMARK                         _______ _______ _______ _____ _____    ______ ____
ROOT
ATOM      1  C   UNL     1       2.409   0.968  -4.269  0.00  0.00    -0.030 C 
ATOM      2  C   UNL     1       3.916   1.125  -4.038  0.00  0.00    +0.058 C 
ATOM      3  S   UNL     1       4.543   2.379  -5.198  0.00  0.00    -0.163 S 
ATOM      4  C   UNL     1       3.865   1.822  -6.792  0.00  0.00    +0.062 C 
ATOM      5  C   UNL     1       2.365   1.561  -6.611  0.00  0.00    +0.027 C 
ATOM      6  N   UNL     1       2.163   0.491  -5.631  0.00  0.00    +0.392 N 
ATOM      7  H   UNL     1       2.794  -0.269  -5.835  0.00  0.00    -0.084 HD
ATOM      8  H   UNL     1       1.213   0.158  -5.698  0.00  0.00    -0.084 HD
ENDROOT
BRANCH   5   9
ATOM      9  C   UNL     1       1.766   1.149  -7.931  0.00  0.00    +0.202 C 
ATOM     10  O   UNL     1       1.646  -0.027  -8.202  0.00  0.00    -0.277 OA
ATOM     11  N   UNL     1       1.363   2.087  -8.810  0.00  0.00    -0.300 N 
ATOM     12  C   UNL     1       1.609   3.512  -8.549  0.00  0.00    +0.126 C 
ATOM     13  C   UNL     1       2.371   4.105  -9.741  0.00  0.00    +0.127 C 
ATOM     14  N   UNL     1       1.677   3.721 -10.979  0.00  0.00    -0.297 N 
ATOM     15  C   UNL     1       1.431   2.296 -11.240  0.00  0.00    +0.127 C 
ATOM     16  C   UNL     1       0.674   1.703 -10.051  0.00  0.00    +0.126 C 
ATOM     17  C   UNL     1       1.264   4.685 -11.882  0.00  0.00    +0.218 A 
ATOM     18  N   UNL     1       1.504   5.962 -11.621  0.00  0.00    -0.223 NA
ATOM     19  C   UNL     1       1.123   6.907 -12.463  0.00  0.00    +0.116 A 
ATOM     20  C   UNL     1       0.464   6.549 -13.629  0.00  0.00    +0.039 A 
ATOM     21  C   UNL     1       0.228   5.205 -13.870  0.00  0.00    +0.116 A 
ATOM     22  N   UNL     1       0.641   4.309 -12.989  0.00  0.00    -0.223 NA
ENDBRANCH   5   9
BRANCH   1  25
ATOM     23  C   UNL     1       0.690  -0.489  -1.240  0.00  0.00    -0.000 A 
ATOM     24  C   UNL     1       1.202   0.420  -2.146  0.00  0.00    +0.009 A 
ATOM     25  C   UNL     1       1.852  -0.026  -3.282  0.00  0.00    -0.060 A 
ATOM     26  C   UNL     1       1.991  -1.382  -3.515  0.00  0.00    +0.009 A 
ATOM     27  C   UNL     1       1.481  -2.295  -2.612  0.00  0.00    -0.000 A 
ATOM     28  C   UNL     1       0.834  -1.850  -1.469  0.00  0.00    +0.124 A 
BRANCH  23  30
ATOM     29  C   UNL     1      -0.039   1.527   0.006  0.00  0.00    +0.015 C 
ATOM     30  C   UNL     1      -0.019  -0.003  -0.003  0.00  0.00    -0.009 C 
ATOM     31  C   UNL     1       0.718  -0.510   1.239  0.00  0.00    +0.015 C 
ATOM     32  C   UNL     1      -1.454  -0.533   0.005  0.00  0.00    +0.015 C 
ENDBRANCH  23  30
BRANCH  27  33
ATOM     33  C   UNL     1       1.634  -3.772  -2.867  0.00  0.00    -0.009 C 
ATOM     34  C   UNL     1       2.385  -3.989  -4.182  0.00  0.00    +0.015 C 
ATOM     35  C   UNL     1       2.421  -4.409  -1.719  0.00  0.00    +0.015 C 
ATOM     36  C   UNL     1       0.251  -4.420  -2.957  0.00  0.00    +0.015 C 
ENDBRANCH  27  33
BRANCH  28  37
ATOM     37  O   UNL     1       0.337  -2.746  -0.576  0.00  0.00    -0.506 OA
ATOM     38  H   UNL     1      -0.576  -3.014  -0.754  0.00  0.00    +0.292 HD
ENDBRANCH  28  37
ENDBRANCH   1  25
TORSDOF 5
