REMARK  Name = ZINC13979865
REMARK  10 active torsions:
REMARK  status: ('A' for Active; 'I' for Inactive)
REMARK    1  A    between atoms: C_1  and  C_2
REMARK    2  A    between atoms: C_5  and  C_9
REMARK    3  A    between atoms: N_11  and  C_12
REMARK    4  A    between atoms: C_12  and  N_14
REMARK    5  A    between atoms: N_14  and  N_15
REMARK    6  A    between atoms: C_16  and  C_18
REMARK    7  A    between atoms: C_18  and  O_19
REMARK    8  A    between atoms: O_19  and  C_20
REMARK    9  A    between atoms: C_22  and  C_28
REMARK   10  A    between atoms: C_24  and  C_26
REMARK                            x       y       z     vdW  Elec       q    Type
REMARK                         _______ _______ _______ _____ _____    ______ ____
ROOT
ATOM      1  N   UNL     1       3.478   1.933  -0.021  0.00  0.00    -0.245 N 
ATOM      2  H   UNL     1       4.324   1.459  -0.031  0.00  0.00    +0.172 HD
ENDROOT
BRANCH   1   3
ATOM      3  N   UNL     1       3.459   3.333  -0.013  0.00  0.00    -0.232 N 
ATOM      4  C   UNL     1       4.617   4.023  -0.020  0.00  0.00    +0.267 C 
ATOM      5  O   UNL     1       5.675   3.431  -0.034  0.00  0.00    -0.271 OA
ATOM      6  H   UNL     1       2.612   3.807  -0.002  0.00  0.00    +0.173 HD
BRANCH   4   7
ATOM      7  C   UNL     1       4.596   5.530  -0.012  0.00  0.00    +0.326 C 
BRANCH   7   8
ATOM      8  O   UNL     1       5.937   6.024  -0.022  0.00  0.00    -0.483 OA
BRANCH   8   9
ATOM      9  C   UNL     1       6.096   7.374  -0.017  0.00  0.00    +0.122 A 
ATOM     10  C   UNL     1       4.986   8.205  -0.007  0.00  0.00    +0.050 A 
ATOM     11  C   UNL     1       5.150   9.577   0.003  0.00  0.00    -0.028 A 
ATOM     12  C   UNL     1       6.422  10.122  -0.006  0.00  0.00    +0.047 A 
ATOM     13  C   UNL     1       7.531   9.295  -0.020  0.00  0.00    -0.028 A 
ATOM     14  C   UNL     1       7.371   7.923  -0.026  0.00  0.00    +0.050 A 
ATOM     15  C   UNL     1       8.915   9.891  -0.031  0.00  0.00    +0.045 C 
ATOM     16 CL   UNL     1       6.626  11.846   0.001  0.00  0.00    -0.083 Cl
ATOM     17  C   UNL     1       3.944  10.480   0.019  0.00  0.00    +0.045 C 
ENDBRANCH   8   9
ENDBRANCH   7   8
ENDBRANCH   4   7
ENDBRANCH   1   3
BRANCH   1  18
ATOM     18  C   UNL     1       2.320   1.243  -0.013  0.00  0.00    +0.153 C 
ATOM     19  S   UNL     1       2.343  -0.469  -0.023  0.00  0.00    -0.017 S 
BRANCH  18  22
ATOM     20  C   UNL     1      -0.014   1.211   0.009  0.00  0.00    +0.250 C 
ATOM     21  O   UNL     1       0.002  -0.004   0.002  0.00  0.00    -0.270 OA
ATOM     22  N   UNL     1       1.143   1.901   0.001  0.00  0.00    -0.263 N 
ATOM     23  H   UNL     1       1.130   2.871   0.007  0.00  0.00    +0.157 HD
BRANCH  20  28
ATOM     24  C   UNL     1      -5.036   4.022   0.048  0.00  0.00    +0.045 C 
ATOM     25  C   UNL     1      -3.721   3.286   0.037  0.00  0.00    -0.036 A 
ATOM     26  C   UNL     1      -2.533   3.996   0.035  0.00  0.00    +0.005 A 
ATOM     27  C   UNL     1      -1.326   3.329   0.032  0.00  0.00    +0.013 A 
ATOM     28  C   UNL     1      -1.304   1.932   0.019  0.00  0.00    +0.038 A 
ATOM     29  C   UNL     1      -2.505   1.221   0.021  0.00  0.00    +0.028 A 
ATOM     30  C   UNL     1      -3.706   1.901   0.030  0.00  0.00    +0.021 A 
ATOM     31 BR   UNL     1      -5.335   0.941   0.032  0.00  0.00    -0.050 Br
ENDBRANCH  20  28
ENDBRANCH  18  22
ENDBRANCH   1  18
TORSDOF 7
