REMARK  Name = ZINC01618935
REMARK  7 active torsions:
REMARK  status: ('A' for Active; 'I' for Inactive)
REMARK    1  A    between atoms: C_1  and  C_2
REMARK    2  A    between atoms: C_2  and  C_3
REMARK    3  A    between atoms: C_2  and  C_4
REMARK    4  A    between atoms: C_2  and  C_5
REMARK    5  A    between atoms: C_5  and  C_14
REMARK    6  A    between atoms: C_17  and  C_20
REMARK    7  A    between atoms: C_20  and  C_29
REMARK                            x       y       z     vdW  Elec       q    Type
REMARK                         _______ _______ _______ _____ _____    ______ ____
ROOT
ATOM      1  C   UNL     1       2.952  -0.324   3.870  0.00  0.00    +0.072 A 
ATOM      2  C   UNL     1       1.822  -1.053   3.968  0.00  0.00    +0.028 A 
ATOM      3  C   UNL     1       1.238  -1.101   2.687  0.00  0.00    +0.028 A 
ATOM      4  C   UNL     1       2.034  -0.400   1.854  0.00  0.00    +0.076 A 
ATOM      5  N   UNL     1       3.090   0.075   2.573  0.00  0.00    -0.354 N 
ATOM      6  H   UNL     1       3.819   0.610   2.221  0.00  0.00    +0.166 HD
ENDROOT
BRANCH   1   7
ATOM      7  C   UNL     1       3.902  -0.009   4.997  0.00  0.00    +0.205 C 
ATOM      8  O   UNL     1       5.257   0.139   4.521  0.00  0.00    -0.467 OA
ATOM      9  C   UNL     1       6.023  -0.985   4.502  0.00  0.00    +0.137 A 
ATOM     10  C   UNL     1       7.187  -1.179   3.744  0.00  0.00    +0.047 A 
ATOM     11  C   UNL     1       7.909  -2.347   3.836  0.00  0.00    +0.004 A 
ATOM     12  C   UNL     1       7.514  -3.370   4.678  0.00  0.00    +0.001 A 
ATOM     13  C   UNL     1       6.364  -3.210   5.435  0.00  0.00    +0.018 A 
ATOM     14  C   UNL     1       5.643  -2.047   5.337  0.00  0.00    +0.054 A 
ATOM     15  S   UNL     1       4.143  -1.466   6.104  0.00  0.00    -0.068 S 
BRANCH   7  17
ATOM     16  C   UNL     1       2.057   0.965   6.372  0.00  0.00    +0.016 C 
ATOM     17  C   UNL     1       3.445   1.222   5.781  0.00  0.00    +0.018 C 
ATOM     18  C   UNL     1       4.436   1.503   6.912  0.00  0.00    +0.016 C 
ATOM     19  C   UNL     1       3.385   2.430   4.845  0.00  0.00    +0.016 C 
ENDBRANCH   7  17
ENDBRANCH   1   7
BRANCH   4  20
ATOM     20  C   UNL     1       1.799  -0.184   0.381  0.00  0.00    +0.226 C 
ATOM     21  O   UNL     1       2.248   1.122  -0.040  0.00  0.00    -0.464 OA
ATOM     22  C   UNL     1       1.337   2.129   0.001  0.00  0.00    +0.137 A 
ATOM     23  C   UNL     1       1.622   3.501   0.025  0.00  0.00    +0.047 A 
ATOM     24  C   UNL     1       0.613   4.437   0.046  0.00  0.00    +0.004 A 
ATOM     25  C   UNL     1      -0.717   4.059   0.044  0.00  0.00    +0.001 A 
ATOM     26  C   UNL     1      -1.030   2.708   0.031  0.00  0.00    +0.018 A 
ATOM     27  C   UNL     1      -0.022   1.777   0.012  0.00  0.00    +0.054 A 
ATOM     28  S   UNL     1       0.002  -0.004   0.002  0.00  0.00    -0.064 S 
BRANCH  20  29
ATOM     29  C   UNL     1       2.430  -1.278  -0.440  0.00  0.00    +0.012 A 
ATOM     30  C   UNL     1       1.681  -2.375  -0.823  0.00  0.00    +0.009 A 
ATOM     31  C   UNL     1       2.258  -3.377  -1.581  0.00  0.00    +0.000 A 
ATOM     32  C   UNL     1       3.588  -3.287  -1.946  0.00  0.00    +0.000 A 
ATOM     33  C   UNL     1       4.339  -2.192  -1.559  0.00  0.00    +0.000 A 
ATOM     34  C   UNL     1       3.760  -1.188  -0.806  0.00  0.00    +0.009 A 
ENDBRANCH  20  29
ENDBRANCH   4  20
TORSDOF 4
