REMARK  Name = ZINC33534430
REMARK  6 active torsions:
REMARK  status: ('A' for Active; 'I' for Inactive)
REMARK    1  A    between atoms: C_4  and  C_7
REMARK    2  A    between atoms: C_8  and  C_9
REMARK    3  A    between atoms: N_19  and  C_28
REMARK    4  A    between atoms: N_21  and  C_22
REMARK    5  A    between atoms: C_28  and  C_29
REMARK    6  A    between atoms: N_31  and  C_32
REMARK                            x       y       z     vdW  Elec       q    Type
REMARK                         _______ _______ _______ _____ _____    ______ ____
ROOT
ATOM      1  C   UNL     1      -0.171   8.278  -1.684  0.00  0.00    +0.239 C 
ATOM      2  O   UNL     1       0.076   8.708  -2.795  0.00  0.00    -0.271 OA
ATOM      3  N   UNL     1       0.763   7.578  -1.009  0.00  0.00    -0.298 N 
ATOM      4  C   UNL     1       2.041   7.231  -1.644  0.00  0.00    +0.110 C 
ATOM      5  C   UNL     1       2.249   5.716  -1.539  0.00  0.00    +0.054 C 
ATOM      6  C   UNL     1       2.122   5.287  -0.080  0.00  0.00    +0.115 C 
ATOM      7  C   UNL     1       0.739   5.633   0.464  0.00  0.00    +0.054 C 
ATOM      8  C   UNL     1       0.520   7.147   0.375  0.00  0.00    +0.110 C 
ATOM      9  C   UNL     1       3.195   5.940   0.756  0.00  0.00    +0.241 C 
ATOM     10  O   UNL     1       3.523   7.106   0.704  0.00  0.00    -0.273 OA
ATOM     11  N   UNL     1       3.727   5.005   1.571  0.00  0.00    -0.275 N 
ATOM     12  C   UNL     1       3.055   3.719   1.349  0.00  0.00    +0.217 C 
ATOM     13  N   UNL     1       2.365   3.834   0.043  0.00  0.00    -0.300 N 
ENDROOT
BRANCH  13  14
ATOM     14  C   UNL     1       1.162   3.124   0.048  0.00  0.00    +0.032 A 
ATOM     15  C   UNL     1       0.266   3.265  -1.004  0.00  0.00    +0.023 A 
ATOM     16  C   UNL     1      -0.923   2.562  -0.996  0.00  0.00    +0.002 A 
ATOM     17  C   UNL     1      -1.223   1.722   0.060  0.00  0.00    +0.000 A 
ATOM     18  C   UNL     1      -0.331   1.574   1.106  0.00  0.00    +0.002 A 
ATOM     19  C   UNL     1       0.860   2.275   1.104  0.00  0.00    +0.023 A 
ENDBRANCH  13  14
BRANCH   1  21
ATOM     20  C   UNL     1      -2.451   9.129  -1.792  0.00  0.00    +0.013 C 
ATOM     21  C   UNL     1      -1.483   8.520  -1.079  0.00  0.00    +0.068 C 
BRANCH  20  25
ATOM     22  C   UNL     1      -6.251   9.830  -0.043  0.00  0.00    +0.000 A 
ATOM     23  C   UNL     1      -6.009  10.229  -1.346  0.00  0.00    +0.001 A 
ATOM     24  C   UNL     1      -4.777  10.005  -1.922  0.00  0.00    +0.008 A 
ATOM     25  C   UNL     1      -3.770   9.373  -1.185  0.00  0.00    -0.025 A 
ATOM     26  C   UNL     1      -4.024   8.968   0.129  0.00  0.00    +0.008 A 
ATOM     27  C   UNL     1      -5.260   9.204   0.693  0.00  0.00    +0.001 A 
ENDBRANCH  20  25
ENDBRANCH   1  21
BRANCH  11  28
ATOM     28  C   UNL     1       4.809   5.238   2.531  0.00  0.00    +0.205 C 
BRANCH  28  29
ATOM     29  C   UNL     1       4.224   5.644   3.859  0.00  0.00    +0.235 C 
ATOM     30  O   UNL     1       3.021   5.730   3.991  0.00  0.00    -0.274 OA
ATOM     31  N   UNL     1       5.037   5.911   4.900  0.00  0.00    -0.284 N 
ATOM     32  H   UNL     1       6.127   5.924   4.758  0.00  0.00    +0.155 HD
BRANCH  31  33
ATOM     33  C   UNL     1       4.493   6.173   6.163  0.00  0.00    +0.035 A 
ATOM     34  C   UNL     1       5.110   7.084   7.011  0.00  0.00    +0.023 A 
ATOM     35  C   UNL     1       4.569   7.344   8.254  0.00  0.00    +0.003 A 
ATOM     36  C   UNL     1       3.420   6.691   8.661  0.00  0.00    +0.020 A 
ATOM     37  C   UNL     1       2.805   5.779   7.821  0.00  0.00    +0.043 A 
ATOM     38  C   UNL     1       3.340   5.518   6.573  0.00  0.00    +0.043 A 
ATOM     39 CL   UNL     1       1.363   4.961   8.335  0.00  0.00    -0.083 Cl
ENDBRANCH  31  33
ENDBRANCH  28  29
ENDBRANCH  11  28
TORSDOF 6
