REMARK  Name = ZINC44559872
REMARK  2 active torsions:
REMARK  status: ('A' for Active; 'I' for Inactive)
REMARK    1  A    between atoms: C_9  and  C_10
REMARK    2  A    between atoms: C_9  and  C_13
REMARK                            x       y       z     vdW  Elec       q    Type
REMARK                         _______ _______ _______ _____ _____    ______ ____
ROOT
ATOM      1  C   UNL     1      -0.005   1.563   0.022  0.00  0.00    +0.004 C 
ATOM      2  C   UNL     1       1.487   1.967   0.003  0.00  0.00    +0.005 C 
ATOM      3  C   UNL     1       2.262   0.614  -0.017  0.00  0.00    +0.017 C 
ATOM      4  C   UNL     1       1.306  -0.281   0.849  0.00  0.00    +0.008 C 
ATOM      5  C   UNL     1       0.009   0.004   0.011  0.00  0.00    -0.009 C 
ATOM      6  C   UNL     1       0.501  -0.373  -1.419  0.00  0.00    +0.033 C 
ATOM      7  C   UNL     1       2.011   0.041  -1.445  0.00  0.00    +0.175 C 
ENDROOT
BRANCH   7   8
ATOM      8  C   UNL     1       2.271   1.098  -2.488  0.00  0.00    +0.373 C 
ATOM      9  O   UNL     1       3.343   1.677  -2.515  0.00  0.00    -0.245 OA
ATOM     10  O   UNL     1       1.408   1.374  -3.304  0.00  0.00    -0.245 OA
ENDBRANCH   7   8
BRANCH   7  11
ATOM     11  C   UNL     1       2.882  -1.164  -1.688  0.00  0.00    +0.373 C 
ATOM     12  O   UNL     1       2.501  -2.051  -2.434  0.00  0.00    -0.245 OA
ATOM     13  O   UNL     1       3.967  -1.253  -1.140  0.00  0.00    -0.245 OA
ENDBRANCH   7  11
TORSDOF 2
