REMARK  Name = ZINC44906037
REMARK  10 active torsions:
REMARK  status: ('A' for Active; 'I' for Inactive)
REMARK    1  A    between atoms: C_1  and  C_2
REMARK    2  A    between atoms: C_2  and  C_4
REMARK    3  A    between atoms: C_2  and  N_14
REMARK    4  A    between atoms: C_7  and  C_10
REMARK    5  A    between atoms: C_10  and  C_11
REMARK    6  A    between atoms: C_10  and  C_12
REMARK    7  A    between atoms: C_10  and  C_13
REMARK    8  A    between atoms: C_15  and  C_17
REMARK    9  A    between atoms: N_22  and  C_24
REMARK   10  A    between atoms: C_24  and  C_25
REMARK                            x       y       z     vdW  Elec       q    Type
REMARK                         _______ _______ _______ _____ _____    ______ ____
ROOT
ATOM      1  N   UNL     1       0.711  -0.489   1.189  0.00  0.00    -0.309 N 
ATOM      2  C   UNL     1       0.051  -0.633   2.355  0.00  0.00    +0.215 C 
ATOM      3  O   UNL     1      -1.129  -0.361   2.423  0.00  0.00    -0.276 OA
ATOM      4  H   UNL     1       1.654  -0.707   1.135  0.00  0.00    +0.149 HD
ENDROOT
BRANCH   2   5
ATOM      5  C   UNL     1       0.780  -1.133   3.576  0.00  0.00    +0.058 C 
ATOM      6  C   UNL     1       1.346  -2.528   3.299  0.00  0.00    +0.009 C 
ATOM      7  C   UNL     1       2.016  -3.058   4.570  0.00  0.00    -0.018 C 
ATOM      8  C   UNL     1       0.999  -3.062   5.713  0.00  0.00    -0.078 C 
ATOM      9  N   UNL     1       0.516  -1.696   5.947  0.00  0.00    +0.383 N 
ATOM     10  C   UNL     1      -0.191  -1.206   4.757  0.00  0.00    -0.066 C 
ATOM     11  H   UNL     1       1.300  -1.091   6.142  0.00  0.00    -0.081 HD
BRANCH   9  12
ATOM     12  C   UNL     1      -0.401  -1.692   7.095  0.00  0.00    -0.043 C 
BRANCH  12  13
ATOM     13  C   UNL     1       0.356  -2.066   8.343  0.00  0.00    -0.063 A 
ATOM     14  C   UNL     1       0.459  -3.393   8.717  0.00  0.00    +0.002 A 
ATOM     15  C   UNL     1       1.153  -3.737   9.862  0.00  0.00    +0.001 A 
ATOM     16  C   UNL     1       1.745  -2.755  10.633  0.00  0.00    +0.015 A 
ATOM     17  C   UNL     1       1.643  -1.427  10.259  0.00  0.00    +0.018 A 
ATOM     18  C   UNL     1       0.953  -1.084   9.110  0.00  0.00    +0.017 A 
ATOM     19 BR   UNL     1       2.452  -0.083  11.314  0.00  0.00    -0.050 Br
ENDBRANCH  12  13
ENDBRANCH   9  12
ENDBRANCH   2   5
BRANCH   1  21
ATOM     20  C   UNL     1      -0.019   1.526   0.010  0.00  0.00    +0.033 C 
ATOM     21  C   UNL     1       0.002  -0.004   0.002  0.00  0.00    +0.100 C 
BRANCH  21  22
ATOM     22  C   UNL     1       0.707  -0.490  -1.238  0.00  0.00    -0.027 A 
ATOM     23  C   UNL     1       2.089  -0.511  -1.284  0.00  0.00    +0.006 A 
ATOM     24  C   UNL     1       2.736  -0.957  -2.421  0.00  0.00    +0.004 A 
ATOM     25  C   UNL     1       2.002  -1.382  -3.512  0.00  0.00    -0.042 A 
ATOM     26  C   UNL     1       0.620  -1.362  -3.466  0.00  0.00    +0.004 A 
ATOM     27  C   UNL     1      -0.027  -0.920  -2.327  0.00  0.00    +0.006 A 
BRANCH  25  28
ATOM     28  C   UNL     1       2.707  -1.867  -4.753  0.00  0.00    -0.013 C 
ATOM     29  C   UNL     1       3.582  -3.073  -4.403  0.00  0.00    +0.015 C 
ATOM     30  C   UNL     1       1.671  -2.276  -5.802  0.00  0.00    +0.015 C 
ATOM     31  C   UNL     1       3.584  -0.745  -5.312  0.00  0.00    +0.015 C 
ENDBRANCH  25  28
ENDBRANCH  21  22
ENDBRANCH   1  21
TORSDOF 6
