REMARK  Name = ZINC14473844
REMARK  4 active torsions:
REMARK  status: ('A' for Active; 'I' for Inactive)
REMARK    1  A    between atoms: C_4  and  N_7
REMARK    2  A    between atoms: C_8  and  C_10
REMARK    3  A    between atoms: C_17  and  C_26
REMARK    4  A    between atoms: C_31  and  O_32
REMARK                            x       y       z     vdW  Elec       q    Type
REMARK                         _______ _______ _______ _____ _____    ______ ____
ROOT
ATOM      1  C   UNL     1      -0.842   6.363  -1.542  0.00  0.00    +0.058 A 
ATOM      2  C   UNL     1      -2.203   6.639  -1.662  0.00  0.00    +0.015 A 
ATOM      3  C   UNL     1      -3.134   5.685  -1.317  0.00  0.00    +0.001 A 
ATOM      4  C   UNL     1      -2.716   4.453  -0.843  0.00  0.00    +0.006 A 
ATOM      5  C   UNL     1      -1.375   4.164  -0.712  0.00  0.00    -0.019 A 
ATOM      6  C   UNL     1      -0.407   5.108  -1.068  0.00  0.00    +0.044 A 
ATOM      7  N   UNL     1       0.958   4.884  -1.008  0.00  0.00    -0.336 N 
ATOM      8  C   UNL     1       1.403   3.589  -0.424  0.00  0.00    +0.108 C 
ATOM      9  C   UNL     1       0.432   2.541  -0.929  0.00  0.00    +0.029 C 
ATOM     10  C   UNL     1      -0.907   2.860  -0.194  0.00  0.00    +0.049 C 
ATOM     11  C   UNL     1      -1.692   1.615  -0.378  0.00  0.00    -0.023 C 
ATOM     12  C   UNL     1      -0.847   0.595  -0.482  0.00  0.00    -0.030 C 
ATOM     13  C   UNL     1       0.596   1.104  -0.421  0.00  0.00    +0.033 C 
ATOM     14  H   UNL     1       1.392   5.049  -1.904  0.00  0.00    +0.147 HD
ENDROOT
BRANCH   8  15
ATOM     15  C   UNL     1       2.797   3.266  -0.894  0.00  0.00    +0.014 A 
ATOM     16  C   UNL     1       2.989   2.370  -1.928  0.00  0.00    +0.009 A 
ATOM     17  C   UNL     1       4.268   2.077  -2.362  0.00  0.00    +0.001 A 
ATOM     18  C   UNL     1       5.360   2.671  -1.757  0.00  0.00    +0.004 A 
ATOM     19  C   UNL     1       5.174   3.564  -0.719  0.00  0.00    +0.046 A 
ATOM     20  C   UNL     1       3.891   3.864  -0.284  0.00  0.00    +0.122 A 
BRANCH  20  21
ATOM     21  O   UNL     1       3.706   4.742   0.736  0.00  0.00    -0.506 OA
ATOM     22  H   UNL     1       3.618   4.324   1.604  0.00  0.00    +0.292 HD
ENDBRANCH  20  21
ENDBRANCH   8  15
BRANCH   1  24
ATOM     23  N   UNL     1      -0.262   8.589  -2.368  0.00  0.00    -0.281 N 
ATOM     24  C   UNL     1       0.149   7.388  -1.915  0.00  0.00    +0.250 C 
ATOM     25  O   UNL     1       1.338   7.151  -1.812  0.00  0.00    -0.270 OA
ATOM     26  H   UNL     1      -1.205   8.753  -2.521  0.00  0.00    +0.155 HD
BRANCH  23  30
ATOM     27  C   UNL     1       2.522  11.597  -3.115  0.00  0.00    +0.000 A 
ATOM     28  C   UNL     1       1.387  11.497  -3.899  0.00  0.00    +0.002 A 
ATOM     29  C   UNL     1       0.462  10.501  -3.654  0.00  0.00    +0.023 A 
ATOM     30  C   UNL     1       0.673   9.599  -2.619  0.00  0.00    +0.034 A 
ATOM     31  C   UNL     1       1.812   9.705  -1.831  0.00  0.00    +0.023 A 
ATOM     32  C   UNL     1       2.735  10.700  -2.085  0.00  0.00    +0.002 A 
ENDBRANCH  23  30
ENDBRANCH   1  24
TORSDOF 4
