REMARK  Name = ZINC12303432
REMARK  9 active torsions:
REMARK  status: ('A' for Active; 'I' for Inactive)
REMARK    1  A    between atoms: C_1  and  C_2
REMARK    2  A    between atoms: C_2  and  C_3
REMARK    3  A    between atoms: C_2  and  C_4
REMARK    4  A    between atoms: C_2  and  O_32
REMARK    5  A    between atoms: C_5  and  C_6
REMARK    6  A    between atoms: C_9  and  C_11
REMARK    7  A    between atoms: N_17  and  C_24
REMARK    8  A    between atoms: C_29  and  O_30
REMARK    9  A    between atoms: O_30  and  C_31
REMARK                            x       y       z     vdW  Elec       q    Type
REMARK                         _______ _______ _______ _____ _____    ______ ____
ROOT
ATOM      1  C   UNL     1      -8.211  -1.701   0.466  0.00  0.00    -0.029 C 
ATOM      2  C   UNL     1      -8.035  -3.227   0.657  0.00  0.00    -0.006 C 
ATOM      3  C   UNL     1      -9.023  -3.810  -0.382  0.00  0.00    +0.004 C 
ATOM      4  C   UNL     1     -10.464  -3.639   0.146  0.00  0.00    +0.116 C 
ATOM      5  N   UNL     1     -11.238  -3.109  -0.984  0.00  0.00    -0.269 N 
ATOM      6  C   UNL     1     -10.430  -2.604  -1.936  0.00  0.00    +0.210 C 
ATOM      7  O   UNL     1     -10.805  -2.095  -2.971  0.00  0.00    -0.277 OA
ATOM      8  C   UNL     1      -8.995  -2.765  -1.527  0.00  0.00    +0.018 C 
ATOM      9  C   UNL     1      -7.140  -1.274  -1.674  0.00  0.00    -0.077 C 
ATOM     10  C   UNL     1      -7.298  -1.968  -3.052  0.00  0.00    -0.019 C 
ATOM     11  C   UNL     1      -8.099  -3.244  -2.674  0.00  0.00    -0.004 C 
ATOM     12  N   UNL     1      -8.425  -1.535  -0.990  0.00  0.00    +0.394 N 
ATOM     13  H   UNL     1      -9.067  -0.752  -1.155  0.00  0.00    -0.079 HD
ENDROOT
BRANCH   5  14
ATOM     14  C   UNL     1     -12.637  -3.126  -1.062  0.00  0.00    +0.078 A 
ATOM     15  C   UNL     1     -13.375  -2.063  -0.562  0.00  0.00    +0.027 A 
ATOM     16  C   UNL     1     -14.754  -2.080  -0.644  0.00  0.00    +0.002 A 
ATOM     17  C   UNL     1     -15.403  -3.159  -1.215  0.00  0.00    +0.004 A 
ATOM     18  C   UNL     1     -14.675  -4.225  -1.710  0.00  0.00    +0.047 A 
ATOM     19  C   UNL     1     -13.291  -4.213  -1.636  0.00  0.00    +0.141 A 
BRANCH  19  20
ATOM     20  O   UNL     1     -12.574  -5.261  -2.124  0.00  0.00    -0.493 OA
ATOM     21  C   UNL     1     -13.312  -6.341  -2.699  0.00  0.00    +0.277 C 
ENDBRANCH  19  20
ENDBRANCH   5  14
BRANCH   1  25
ATOM     22  C   UNL     1      -4.936   0.711   1.467  0.00  0.00    +0.062 A 
ATOM     23  C   UNL     1      -4.879  -0.580   1.928  0.00  0.00    +0.025 A 
ATOM     24  C   UNL     1      -5.922  -1.431   1.637  0.00  0.00    +0.011 A 
ATOM     25  C   UNL     1      -6.970  -0.970   0.907  0.00  0.00    -0.022 A 
ATOM     26  S   UNL     1      -6.501   0.727   0.609  0.00  0.00    -0.086 S 
BRANCH  22  28
ATOM     27  C   UNL     1      -3.212   2.641   1.775  0.00  0.00    -0.062 C 
ATOM     28  C   UNL     1      -3.988   1.772   1.636  0.00  0.00    -0.056 C 
BRANCH  27  30
ATOM     29  C   UNL     1      -2.751   4.990   1.246  0.00  0.00    +0.055 C 
ATOM     30  C   UNL     1      -2.238   3.732   1.948  0.00  0.00    +0.121 C 
ATOM     31  C   UNL     1      -2.054   4.018   3.440  0.00  0.00    +0.055 C 
BRANCH  30  32
ATOM     32  O   UNL     1      -0.985   3.346   1.379  0.00  0.00    -0.377 OA
ATOM     33  H   UNL     1      -0.600   2.553   1.776  0.00  0.00    +0.211 HD
ENDBRANCH  30  32
ENDBRANCH  27  30
ENDBRANCH  22  28
ENDBRANCH   1  25
TORSDOF 6
