REMARK  Name = ZINC33278532
REMARK  12 active torsions:
REMARK  status: ('A' for Active; 'I' for Inactive)
REMARK    1  A    between atoms: C_1  and  C_2
REMARK    2  A    between atoms: C_2  and  O_3
REMARK    3  A    between atoms: O_3  and  C_4
REMARK    4  A    between atoms: C_6  and  C_30
REMARK    5  A    between atoms: C_11  and  N_14
REMARK    6  A    between atoms: N_17  and  C_18
REMARK    7  A    between atoms: C_18  and  C_24
REMARK    8  A    between atoms: C_24  and  C_25
REMARK    9  A    between atoms: C_25  and  O_27
REMARK   10  A    between atoms: O_27  and  C_28
REMARK   11  A    between atoms: C_28  and  C_29
REMARK   12  A    between atoms: C_33  and  C_36
REMARK                            x       y       z     vdW  Elec       q    Type
REMARK                         _______ _______ _______ _____ _____    ______ ____
ROOT
ATOM      1  C   UNL     1       0.219  -4.450   4.886  0.00  0.00    +0.132 A 
ATOM      2  C   UNL     1      -0.108  -5.769   4.708  0.00  0.00    +0.072 A 
ATOM      3  C   UNL     1      -0.785  -6.168   3.549  0.00  0.00    +0.050 A 
ATOM      4  N   UNL     1      -1.122  -5.301   2.612  0.00  0.00    -0.354 N 
ATOM      5  C   UNL     1      -0.831  -4.001   2.728  0.00  0.00    +0.050 A 
ATOM      6  C   UNL     1      -0.147  -3.530   3.876  0.00  0.00    +0.042 A 
ATOM      7  C   UNL     1       0.161  -2.167   3.990  0.00  0.00    +0.037 A 
ATOM      8  C   UNL     1      -0.216  -1.300   2.988  0.00  0.00    +0.036 A 
ATOM      9  C   UNL     1      -0.891  -1.770   1.857  0.00  0.00    +0.025 A 
ATOM     10  C   UNL     1      -1.196  -3.088   1.722  0.00  0.00    +0.028 A 
ATOM     11  H   UNL     1      -1.653  -5.643   1.711  0.00  0.00    +0.166 HD
ENDROOT
BRANCH   3  12
ATOM     12  C   UNL     1      -1.133  -7.598   3.370  0.00  0.00    -0.002 A 
ATOM     13  C   UNL     1      -0.782  -8.531   4.344  0.00  0.00    +0.010 A 
ATOM     14  C   UNL     1      -1.114  -9.860   4.175  0.00  0.00    +0.004 A 
ATOM     15  C   UNL     1      -1.783 -10.268   3.035  0.00  0.00    -0.050 A 
ATOM     16  C   UNL     1      -2.129  -9.348   2.062  0.00  0.00    +0.004 A 
ATOM     17  C   UNL     1      -1.807  -8.016   2.224  0.00  0.00    +0.010 A 
ATOM     18  C   UNL     1      -2.137 -11.722   2.853  0.00  0.00    +0.044 C 
ENDBRANCH   3  12
BRANCH   8  19
ATOM     19  N   UNL     1       0.085   0.063   3.100  0.00  0.00    -0.269 N 
ATOM     20  C   UNL     1       0.037   0.667   4.304  0.00  0.00    +0.304 C 
ATOM     21  O   UNL     1      -0.182   0.011   5.304  0.00  0.00    -0.252 OA
ATOM     22  N   UNL     1       0.232   1.997   4.399  0.00  0.00    -0.293 N 
ATOM     23  H   UNL     1       0.360   0.641   2.206  0.00  0.00    +0.156 HD
ATOM     24  H   UNL     1       0.516   2.576   3.508  0.00  0.00    +0.151 HD
BRANCH  22  25
ATOM     25  C   UNL     1       0.067   2.671   5.689  0.00  0.00    +0.046 C 
ATOM     26  C   UNL     1       1.101   2.134   6.681  0.00  0.00    +0.026 C 
ATOM     27  C   UNL     1       2.509   2.397   6.144  0.00  0.00    +0.002 C 
ATOM     28  C   UNL     1       2.712   3.903   5.963  0.00  0.00    +0.000 C 
ATOM     29  C   UNL     1       1.679   4.440   4.971  0.00  0.00    +0.002 C 
ATOM     30  C   UNL     1       0.270   4.177   5.507  0.00  0.00    +0.026 C 
BRANCH  25  31
ATOM     31  C   UNL     1      -1.341   2.407   6.226  0.00  0.00    +0.146 C 
BRANCH  31  32
ATOM     32  C   UNL     1      -2.357   2.806   5.188  0.00  0.00    +0.309 C 
ATOM     33  O   UNL     1      -1.996   3.309   4.150  0.00  0.00    -0.251 OA
BRANCH  32  34
ATOM     34  O   UNL     1      -3.664   2.603   5.415  0.00  0.00    -0.465 OA
BRANCH  34  35
ATOM     35  C   UNL     1      -4.587   3.012   4.371  0.00  0.00    +0.229 C 
ATOM     36  C   UNL     1      -6.020   2.704   4.807  0.00  0.00    +0.048 C 
ENDBRANCH  34  35
ENDBRANCH  32  34
ENDBRANCH  31  32
ENDBRANCH  25  31
ENDBRANCH  22  25
ENDBRANCH   8  19
BRANCH   1  37
ATOM     37  O   UNL     1       0.875  -4.039   5.999  0.00  0.00    -0.492 OA
BRANCH  37  39
ATOM     38  C   UNL     1       1.935  -4.391   8.142  0.00  0.00    +0.048 C 
ATOM     39  C   UNL     1       1.203  -5.039   6.965  0.00  0.00    +0.226 C 
ENDBRANCH  37  39
ENDBRANCH   1  37
TORSDOF 9
