REMARK  Name = ZINC09057462
REMARK  6 active torsions:
REMARK  status: ('A' for Active; 'I' for Inactive)
REMARK    1  A    between atoms: C_3  and  C_9
REMARK    2  A    between atoms: C_12  and  C_14
REMARK    3  A    between atoms: C_15  and  C_16
REMARK    4  A    between atoms: C_15  and  C_18
REMARK    5  A    between atoms: N_20  and  C_21
REMARK    6  A    between atoms: C_24  and  N_28
REMARK                            x       y       z     vdW  Elec       q    Type
REMARK                         _______ _______ _______ _____ _____    ______ ____
ROOT
ATOM      1  C   UNL     1       0.147   6.754  -1.182  0.00  0.00    +0.070 C 
ATOM      2  C   UNL     1      -0.750   6.564  -2.225  0.00  0.00    +0.117 C 
ENDROOT
BRANCH   1   6
ATOM      3  C   UNL     1       1.214   3.566  -0.021  0.00  0.00    +0.137 A 
ATOM      4  C   UNL     1       1.933   4.372   0.838  0.00  0.00    +0.050 A 
ATOM      5  C   UNL     1       1.629   5.692   0.508  0.00  0.00    +0.050 A 
ATOM      6  C   UNL     1       0.723   5.646  -0.542  0.00  0.00    +0.130 A 
ATOM      7  O   UNL     1       0.491   4.349  -0.840  0.00  0.00    -0.455 OA
BRANCH   3  10
ATOM      8  C   UNL     1       2.456   0.024  -0.069  0.00  0.00    +0.002 A 
ATOM      9  C   UNL     1       2.447   1.403  -0.057  0.00  0.00    +0.013 A 
ATOM     10  C   UNL     1       1.231   2.091  -0.033  0.00  0.00    +0.037 A 
ATOM     11  C   UNL     1       0.030   1.374  -0.022  0.00  0.00    +0.070 A 
ATOM     12  C   UNL     1       0.055  -0.007  -0.034  0.00  0.00    +0.060 A 
ATOM     13  C   UNL     1       1.265  -0.680  -0.057  0.00  0.00    +0.021 A 
ATOM     14 CL   UNL     1      -1.433  -0.900  -0.020  0.00  0.00    -0.082 Cl
ATOM     15 CL   UNL     1      -1.487   2.218   0.000  0.00  0.00    -0.081 Cl
ENDBRANCH   3  10
ENDBRANCH   1   6
BRANCH   2  16
ATOM     16  C   UNL     1      -1.352   7.723  -2.895  0.00  0.00    +0.259 C 
ATOM     17  O   UNL     1      -1.065   8.850  -2.536  0.00  0.00    -0.269 OA
ATOM     18  N   UNL     1      -2.222   7.539  -3.907  0.00  0.00    -0.280 N 
ATOM     19  H   UNL     1      -2.401   6.644  -4.236  0.00  0.00    +0.155 HD
BRANCH  18  20
ATOM     20  C   UNL     1      -2.868   8.638  -4.483  0.00  0.00    +0.048 A 
ATOM     21  C   UNL     1      -2.204   9.853  -4.599  0.00  0.00    +0.026 A 
ATOM     22  C   UNL     1      -2.844  10.936  -5.168  0.00  0.00    +0.034 A 
ATOM     23  C   UNL     1      -4.144  10.813  -5.623  0.00  0.00    +0.127 A 
ATOM     24  C   UNL     1      -4.808   9.606  -5.510  0.00  0.00    +0.049 A 
ATOM     25  C   UNL     1      -4.172   8.516  -4.945  0.00  0.00    +0.041 A 
ATOM     26 BR   UNL     1      -5.078   6.863  -4.798  0.00  0.00    -0.048 Br
BRANCH  23  27
ATOM     27  N   UNL     1      -4.827  11.977  -6.233  0.00  0.00    +0.056 N 
ATOM     28  O   UNL     1      -4.243  13.041  -6.333  0.00  0.00    -0.126 OA
ATOM     29  O   UNL     1      -5.972  11.870  -6.634  0.00  0.00    -0.126 OA
ENDBRANCH  23  27
ENDBRANCH  18  20
ENDBRANCH   2  16
BRANCH   2  30
ATOM     30  C   UNL     1      -1.087   5.238  -2.647  0.00  0.00    +0.104 C 
ATOM     31  N   UNL     1      -1.355   4.186  -2.982  0.00  0.00    -0.191 NA
ENDBRANCH   2  30
TORSDOF 6
