REMARK  Name = ZINC59170648
REMARK  7 active torsions:
REMARK  status: ('A' for Active; 'I' for Inactive)
REMARK    1  A    between atoms: C_1  and  C_2
REMARK    2  A    between atoms: C_2  and  C_3
REMARK    3  A    between atoms: C_8  and  N_9
REMARK    4  A    between atoms: C_10  and  C_12
REMARK    5  A    between atoms: N_22  and  C_23
REMARK    6  A    between atoms: C_26  and  S_29
REMARK    7  A    between atoms: S_29  and  N_32
REMARK                            x       y       z     vdW  Elec       q    Type
REMARK                         _______ _______ _______ _____ _____    ______ ____
ROOT
ATOM      1  C   UNL     1      -3.428  -0.412   3.663  0.00  0.00    +0.098 A 
ATOM      2  C   UNL     1      -4.116  -0.544   4.862  0.00  0.00    +0.030 A 
ATOM      3  C   UNL     1      -5.548  -0.236   4.854  0.00  0.00    +0.021 A 
ATOM      4  C   UNL     1      -6.254  -0.084   6.054  0.00  0.00    +0.031 A 
ATOM      5  C   UNL     1      -7.600   0.208   6.019  0.00  0.00    +0.043 A 
ATOM      6  C   UNL     1      -8.256   0.352   4.804  0.00  0.00    +0.043 A 
ATOM      7  C   UNL     1      -7.573   0.204   3.613  0.00  0.00    +0.085 A 
ATOM      8  C   UNL     1      -6.217  -0.093   3.625  0.00  0.00    +0.156 A 
ATOM      9  O   UNL     1      -5.535  -0.248   2.464  0.00  0.00    -0.437 OA
ATOM     10  C   UNL     1      -4.205   0.033   2.488  0.00  0.00    +0.212 A 
ATOM     11  N   UNL     1      -3.627   0.676   1.498  0.00  0.00    -0.325 N 
ATOM     12 CL   UNL     1      -8.409   0.388   2.103  0.00  0.00    -0.080 Cl
ATOM     13 CL   UNL     1      -8.480   0.397   7.504  0.00  0.00    -0.083 Cl
ATOM     14  H   UNL     1      -2.706   0.970   1.582  0.00  0.00    +0.169 HD
ENDROOT
BRANCH  11  15
ATOM     15  C   UNL     1      -4.323   0.932   0.349  0.00  0.00    +0.042 A 
ATOM     16  C   UNL     1      -5.104  -0.069  -0.236  0.00  0.00    +0.027 A 
ATOM     17  C   UNL     1      -5.805   0.197  -1.394  0.00  0.00    +0.030 A 
ATOM     18  C   UNL     1      -5.736   1.450  -1.977  0.00  0.00    +0.105 A 
ATOM     19  C   UNL     1      -4.964   2.445  -1.403  0.00  0.00    +0.030 A 
ATOM     20  C   UNL     1      -4.263   2.196  -0.242  0.00  0.00    +0.027 A 
BRANCH  18  21
ATOM     21  S   UNL     1      -6.634   1.779  -3.456  0.00  0.00    +0.056 S 
ATOM     22  O   UNL     1      -5.972   2.859  -4.101  0.00  0.00    -0.153 OA
ATOM     23  O   UNL     1      -6.844   0.525  -4.091  0.00  0.00    -0.153 OA
BRANCH  21  24
ATOM     24  N   UNL     1      -8.127   2.339  -3.008  0.00  0.00    -0.204 NA
ATOM     25  H   UNL     1      -8.602   2.962  -3.579  0.00  0.00    +0.144 HD
ATOM     26  H   UNL     1      -8.526   2.043  -2.175  0.00  0.00    +0.144 HD
ENDBRANCH  21  24
ENDBRANCH  18  21
ENDBRANCH  11  15
BRANCH   1  28
ATOM     27  N   UNL     1      -1.371  -0.664   2.369  0.00  0.00    -0.281 N 
ATOM     28  C   UNL     1      -1.987  -0.697   3.568  0.00  0.00    +0.253 C 
ATOM     29  O   UNL     1      -1.352  -0.962   4.571  0.00  0.00    -0.270 OA
ATOM     30  H   UNL     1      -1.866  -0.407   1.576  0.00  0.00    +0.155 HD
BRANCH  27  36
ATOM     31  C   UNL     1       0.513  -1.396   1.048  0.00  0.00    -0.026 A 
ATOM     32  C   UNL     1       1.852  -1.723   0.952  0.00  0.00    +0.005 A 
ATOM     33  C   UNL     1       2.662  -1.661   2.070  0.00  0.00    +0.000 A 
ATOM     34  C   UNL     1       2.136  -1.274   3.289  0.00  0.00    +0.002 A 
ATOM     35  C   UNL     1       0.798  -0.947   3.393  0.00  0.00    +0.023 A 
ATOM     36  C   UNL     1      -0.017  -1.001   2.270  0.00  0.00    +0.037 A 
BRANCH  31  38
ATOM     37  C   UNL     1      -0.449  -0.080  -0.820  0.00  0.00    +0.009 C 
ATOM     38  C   UNL     1      -0.369  -1.464  -0.171  0.00  0.00    +0.033 C 
ENDBRANCH  31  38
ENDBRANCH  27  36
ENDBRANCH   1  28
TORSDOF 6
