REMARK  Name = ZINC00718542
REMARK  6 active torsions:
REMARK  status: ('A' for Active; 'I' for Inactive)
REMARK    1  A    between atoms: C_4  and  C_7
REMARK    2  A    between atoms: C_7  and  C_8
REMARK    3  A    between atoms: C_8  and  N_9
REMARK    4  A    between atoms: C_10  and  C_12
REMARK    5  A    between atoms: C_16  and  C_25
REMARK    6  A    between atoms: C_18  and  C_21
REMARK                            x       y       z     vdW  Elec       q    Type
REMARK                         _______ _______ _______ _____ _____    ______ ____
ROOT
ATOM      1  C   UNL     1       0.241   0.917   4.881  0.00  0.00    +0.163 A 
ATOM      2  C   UNL     1      -0.122   1.169   6.209  0.00  0.00    +0.094 A 
ATOM      3  C   UNL     1       0.804   0.533   7.025  0.00  0.00    +0.172 A 
ATOM      4  N   UNL     1       0.924   0.452   8.356  0.00  0.00    -0.224 NA
ATOM      5  C   UNL     1       1.918  -0.229   8.904  0.00  0.00    +0.110 A 
ATOM      6  C   UNL     1       2.868  -0.882   8.081  0.00  0.00    +0.064 A 
ATOM      7  C   UNL     1       2.748  -0.802   6.739  0.00  0.00    +0.150 A 
ATOM      8  N   UNL     1       1.709  -0.089   6.201  0.00  0.00    -0.208 N 
ATOM      9  N   UNL     1       1.329   0.163   4.877  0.00  0.00    -0.159 NA
ATOM     10 BR   UNL     1      -1.606   2.189   6.787  0.00  0.00    -0.044 Br
ENDROOT
BRANCH   5  11
ATOM     11  C   UNL     1       2.035  -0.308  10.370  0.00  0.00    +0.155 A 
ATOM     12  C   UNL     1       1.197   0.276  11.273  0.00  0.00    +0.052 A 
ATOM     13  C   UNL     1       1.679  -0.061  12.550  0.00  0.00    +0.057 A 
ATOM     14  C   UNL     1       2.783  -0.819  12.370  0.00  0.00    +0.171 A 
ATOM     15  O   UNL     1       2.994  -0.965  11.053  0.00  0.00    -0.447 OA
ATOM     16 BR   UNL     1       3.853  -1.552  13.747  0.00  0.00    -0.008 Br
ENDBRANCH   5  11
BRANCH   1  18
ATOM     17  N   UNL     1      -0.020   1.094   2.454  0.00  0.00    -0.310 N 
ATOM     18  C   UNL     1      -0.473   1.407   3.684  0.00  0.00    +0.265 C 
ATOM     19  O   UNL     1      -1.470   2.091   3.809  0.00  0.00    -0.268 OA
ATOM     20  H   UNL     1       0.881   0.474   2.341  0.00  0.00    +0.149 HD
BRANCH  17  21
ATOM     21  C   UNL     1      -0.729   1.579   1.267  0.00  0.00    +0.109 C 
BRANCH  21  22
ATOM     22  C   UNL     1      -0.013   1.086   0.008  0.00  0.00    +0.054 C 
BRANCH  22  26
ATOM     23  C   UNL     1      -2.079   2.501  -3.453  0.00  0.00    +0.000 A 
ATOM     24  C   UNL     1      -1.066   3.259  -2.894  0.00  0.00    +0.000 A 
ATOM     25  C   UNL     1      -0.398   2.801  -1.774  0.00  0.00    +0.004 A 
ATOM     26  C   UNL     1      -0.742   1.585  -1.213  0.00  0.00    -0.046 A 
ATOM     27  C   UNL     1      -1.750   0.825  -1.775  0.00  0.00    +0.004 A 
ATOM     28  C   UNL     1      -2.422   1.285  -2.892  0.00  0.00    +0.000 A 
ENDBRANCH  22  26
ENDBRANCH  21  22
ENDBRANCH  17  21
ENDBRANCH   1  18
BRANCH   7  29
ATOM     29  C   UNL     1       3.746  -1.488   5.843  0.00  0.00    +0.434 C 
ATOM     30  F   UNL     1       4.801  -0.613   5.564  0.00  0.00    -0.164 F 
ATOM     31  F   UNL     1       4.242  -2.628   6.484  0.00  0.00    -0.164 F 
ATOM     32  F   UNL     1       3.121  -1.860   4.648  0.00  0.00    -0.164 F 
ENDBRANCH   7  29
TORSDOF 6
