REMARK  Name = ZINC39674617
REMARK  10 active torsions:
REMARK  status: ('A' for Active; 'I' for Inactive)
REMARK    1  A    between atoms: C_1  and  C_2
REMARK    2  A    between atoms: C_2  and  C_3
REMARK    3  A    between atoms: C_3  and  C_4
REMARK    4  A    between atoms: C_4  and  C_5
REMARK    5  A    between atoms: C_9  and  C_18
REMARK    6  A    between atoms: N_20  and  C_21
REMARK    7  A    between atoms: C_21  and  C_22
REMARK    8  A    between atoms: C_22  and  C_23
REMARK    9  A    between atoms: C_26  and  C_34
REMARK   10  A    between atoms: C_31  and  C_33
REMARK                            x       y       z     vdW  Elec       q    Type
REMARK                         _______ _______ _______ _____ _____    ______ ____
ROOT
ATOM      1  C   UNL     1      -2.077  -5.921   2.334  0.00  0.00    +0.218 C 
ATOM      2  O   UNL     1      -1.665  -4.841   2.702  0.00  0.00    -0.275 OA
ATOM      3  N   UNL     1      -2.029  -6.980   3.167  0.00  0.00    -0.315 N 
ATOM      4  H   UNL     1      -2.358  -7.843   2.873  0.00  0.00    +0.149 HD
ENDROOT
BRANCH   1   9
ATOM      5  C   UNL     1      -2.534  -2.615  -0.100  0.00  0.00    +0.216 C 
ATOM      6  O   UNL     1      -3.401  -1.766  -0.122  0.00  0.00    -0.276 OA
ATOM      7  N   UNL     1      -2.870  -3.919  -0.064  0.00  0.00    -0.300 N 
ATOM      8  C   UNL     1      -1.962  -5.090  -0.027  0.00  0.00    +0.121 C 
ATOM      9  C   UNL     1      -2.641  -6.080   0.946  0.00  0.00    +0.100 C 
ATOM     10  C   UNL     1      -4.129  -5.694   0.923  0.00  0.00    -0.004 C 
ATOM     11  C   UNL     1      -4.231  -4.508  -0.047  0.00  0.00    +0.115 C 
ATOM     12  C   UNL     1      -4.587  -5.270   2.315  0.00  0.00    -0.010 C 
ATOM     13  C   UNL     1      -6.083  -4.946   2.279  0.00  0.00    -0.082 C 
ATOM     14  N   UNL     1      -6.831  -6.128   1.835  0.00  0.00    +0.379 N 
ATOM     15  C   UNL     1      -6.451  -6.474   0.460  0.00  0.00    -0.082 C 
ATOM     16  C   UNL     1      -4.971  -6.862   0.419  0.00  0.00    -0.010 C 
ATOM     17  H   UNL     1      -6.623  -6.905   2.446  0.00  0.00    -0.086 HD
ATOM     18  H   UNL     1      -7.820  -5.932   1.871  0.00  0.00    -0.086 HD
BRANCH   5  19
ATOM     19  C   UNL     1      -1.083  -2.210  -0.113  0.00  0.00    +0.096 C 
BRANCH  19  20
ATOM     20  C   UNL     1      -0.979  -0.684  -0.154  0.00  0.00    +0.009 C 
BRANCH  20  22
ATOM     21  C   UNL     1       0.598   1.253  -0.209  0.00  0.00    +0.004 C 
ATOM     22  C   UNL     1       0.494  -0.273  -0.167  0.00  0.00    -0.003 C 
ENDBRANCH  20  22
ENDBRANCH  19  20
ENDBRANCH   5  19
ENDBRANCH   1   9
BRANCH   3  23
ATOM     23  C   UNL     1      -1.481  -6.825   4.517  0.00  0.00    +0.108 C 
BRANCH  23  24
ATOM     24  C   UNL     1      -1.543  -8.168   5.249  0.00  0.00    +0.052 C 
BRANCH  24  25
ATOM     25  C   UNL     1      -0.979  -8.009   6.638  0.00  0.00    -0.037 C 
ATOM     26  C   UNL     1      -0.488  -6.872   7.195  0.00  0.00    +0.000 A 
ATOM     27  C   UNL     1      -0.353  -5.552   6.690  0.00  0.00    +0.028 A 
ATOM     28  C   UNL     1       0.189  -4.564   7.478  0.00  0.00    +0.052 A 
ATOM     29  C   UNL     1       0.637  -4.841   8.839  0.00  0.00    +0.021 A 
ATOM     30  C   UNL     1       0.533  -6.076   9.372  0.00  0.00    +0.027 A 
ATOM     31  C   UNL     1      -0.039  -7.166   8.573  0.00  0.00    +0.043 A 
ATOM     32  N   UNL     1      -0.242  -8.429   8.859  0.00  0.00    -0.378 N 
ATOM     33  C   UNL     1      -0.850  -9.082   7.695  0.00  0.00    +0.103 C 
ATOM     34  C   UNL     1       0.054 -10.210   7.194  0.00  0.00    +0.035 C 
ATOM     35  H   UNL     1      -0.029  -8.860   9.702  0.00  0.00    +0.160 HD
BRANCH  28  36
ATOM     36  C   UNL     1       0.318  -3.238   6.953  0.00  0.00    +0.099 C 
ATOM     37  N   UNL     1       0.421  -2.186   6.536  0.00  0.00    -0.191 NA
ENDBRANCH  28  36
ENDBRANCH  24  25
ENDBRANCH  23  24
ENDBRANCH   3  23
TORSDOF 8
