REMARK  Name = ZINC01713495
REMARK  2 active torsions:
REMARK  status: ('A' for Active; 'I' for Inactive)
REMARK    1  A    between atoms: C_1  and  S_2
REMARK    2  A    between atoms: S_2  and  C_3
REMARK                            x       y       z     vdW  Elec       q    Type
REMARK                         _______ _______ _______ _____ _____    ______ ____
ROOT
ATOM      1  C   UNL     1       0.002  -0.004   0.002  0.00  0.00    +0.191 A 
ATOM      2  N   UNL     1       1.133  -0.694  -0.009  0.00  0.00    -0.205 NA
ATOM      3  C   UNL     1       2.309  -0.065  -0.006  0.00  0.00    +0.149 A 
ATOM      4  C   UNL     1       2.322   1.322   0.004  0.00  0.00    +0.184 A 
ATOM      5  C   UNL     1       1.121   2.019   0.002  0.00  0.00    +0.153 A 
ATOM      6  N   UNL     1      -0.016   1.320   0.009  0.00  0.00    -0.205 NA
ATOM      7  N   UNL     1       1.072   3.398  -0.032  0.00  0.00    -0.313 N 
ATOM      8  C   UNL     1       2.176   4.253   0.400  0.00  0.00    +0.210 C 
ATOM      9  N   UNL     1       3.418   3.795  -0.256  0.00  0.00    -0.173 NA
ATOM     10  S   UNL     1       3.849   2.208   0.028  0.00  0.00    +0.066 S 
ATOM     11  O   UNL     1       4.346   2.144   1.358  0.00  0.00    -0.153 OA
ATOM     12  O   UNL     1       4.601   1.772  -1.096  0.00  0.00    -0.153 OA
ATOM     13  N   UNL     1       3.495  -0.783  -0.011  0.00  0.00    -0.341 N 
ATOM     14  H   UNL     1       0.263   3.822  -0.358  0.00  0.00    +0.149 HD
ATOM     15  H   UNL     1       3.950   4.381  -0.818  0.00  0.00    +0.150 HD
ATOM     16  H   UNL     1       3.474  -1.753  -0.017  0.00  0.00    +0.144 HD
ATOM     17  H   UNL     1       4.345  -0.316  -0.008  0.00  0.00    +0.144 HD
ENDROOT
BRANCH   1  19
ATOM     18  C   UNL     1      -0.918  -2.581  -0.005  0.00  0.00    +0.093 C 
ATOM     19  S   UNL     1      -1.528  -0.877   0.008  0.00  0.00    -0.089 S 
ENDBRANCH   1  19
TORSDOF 1
