REMARK  Name = ZINC05164402
REMARK  6 active torsions:
REMARK  status: ('A' for Active; 'I' for Inactive)
REMARK    1  A    between atoms: C_1  and  C_2
REMARK    2  A    between atoms: C_5  and  C_8
REMARK    3  A    between atoms: C_8  and  N_9
REMARK    4  A    between atoms: C_13  and  N_24
REMARK    5  A    between atoms: C_14  and  N_16
REMARK    6  A    between atoms: N_16  and  C_17
REMARK                            x       y       z     vdW  Elec       q    Type
REMARK                         _______ _______ _______ _____ _____    ______ ____
ROOT
ATOM      1  N   UNL     1       1.434  -4.782  -0.473  0.00  0.00    -0.309 N 
ATOM      2  C   UNL     1       1.711  -6.121  -0.255  0.00  0.00    +0.219 A 
ATOM      3  N   UNL     1       0.708  -6.962  -0.050  0.00  0.00    -0.197 NA
ATOM      4  C   UNL     1       0.937  -8.256   0.163  0.00  0.00    +0.154 A 
ATOM      5  C   UNL     1       2.249  -8.720   0.167  0.00  0.00    +0.205 A 
ATOM      6  C   UNL     1       3.276  -7.807  -0.052  0.00  0.00    +0.160 A 
ATOM      7  N   UNL     1       2.971  -6.528  -0.263  0.00  0.00    -0.197 NA
ATOM      8  N   UNL     1      -0.118  -9.129   0.377  0.00  0.00    -0.341 N 
ATOM      9  H   UNL     1       2.158  -4.156  -0.629  0.00  0.00    +0.149 HD
ATOM     10  H   UNL     1      -1.030  -8.798   0.373  0.00  0.00    +0.144 HD
ATOM     11  H   UNL     1       0.056 -10.071   0.532  0.00  0.00    +0.144 HD
ENDROOT
BRANCH   5  12
ATOM     12  N   UNL     1       2.545 -10.152   0.400  0.00  0.00    +0.063 N 
ATOM     13  O   UNL     1       2.606 -10.916  -0.534  0.00  0.00    -0.126 OA
ATOM     14  O   UNL     1       2.727 -10.556   1.525  0.00  0.00    -0.126 OA
ENDBRANCH   5  12
BRANCH   6  15
ATOM     15  N   UNL     1       4.598  -8.224  -0.056  0.00  0.00    -0.297 N 
ATOM     16  H   UNL     1       4.809  -9.168   0.011  0.00  0.00    +0.154 HD
BRANCH  15  17
ATOM     17  C   UNL     1       5.629  -7.283  -0.157  0.00  0.00    +0.033 A 
ATOM     18  C   UNL     1       5.496  -6.039   0.447  0.00  0.00    +0.026 A 
ATOM     19  C   UNL     1       6.514  -5.111   0.346  0.00  0.00    +0.040 A 
ATOM     20  C   UNL     1       7.666  -5.420  -0.356  0.00  0.00    +0.124 A 
ATOM     21  C   UNL     1       7.801  -6.659  -0.960  0.00  0.00    +0.040 A 
ATOM     22  C   UNL     1       6.788  -7.592  -0.856  0.00  0.00    +0.026 A 
ATOM     23  F   UNL     1       8.661  -4.511  -0.454  0.00  0.00    -0.205 F 
ENDBRANCH  15  17
ENDBRANCH   6  15
BRANCH   1  24
ATOM     24  C   UNL     1       0.047  -4.311  -0.468  0.00  0.00    +0.139 C 
BRANCH  24  29
ATOM     25  C   UNL     1      -0.061   1.381  -1.461  0.00  0.00    +0.044 C 
ATOM     26  C   UNL     1      -0.033  -0.104  -1.202  0.00  0.00    -0.050 A 
ATOM     27  C   UNL     1      -0.093  -0.991  -2.260  0.00  0.00    +0.003 A 
ATOM     28  C   UNL     1      -0.067  -2.353  -2.023  0.00  0.00    +0.005 A 
ATOM     29  C   UNL     1       0.020  -2.827  -0.727  0.00  0.00    -0.030 A 
ATOM     30  C   UNL     1       0.081  -1.940   0.331  0.00  0.00    +0.005 A 
ATOM     31  C   UNL     1       0.059  -0.578   0.093  0.00  0.00    +0.003 A 
ENDBRANCH  24  29
ENDBRANCH   1  24
TORSDOF 5
