REMARK  Name = ZINC13213784
REMARK  9 active torsions:
REMARK  status: ('A' for Active; 'I' for Inactive)
REMARK    1  A    between atoms: C_1  and  O_2
REMARK    2  A    between atoms: O_2  and  C_3
REMARK    3  A    between atoms: C_6  and  C_11
REMARK    4  A    between atoms: C_8  and  O_9
REMARK    5  A    between atoms: O_9  and  C_10
REMARK    6  A    between atoms: C_11  and  C_13
REMARK    7  A    between atoms: N_17  and  C_25
REMARK    8  A    between atoms: C_18  and  C_20
REMARK    9  A    between atoms: C_29  and  C_31
REMARK                            x       y       z     vdW  Elec       q    Type
REMARK                         _______ _______ _______ _____ _____    ______ ____
ROOT
ATOM      1  C   UNL     1       3.173  -1.653   5.265  0.00  0.00    +0.077 C 
ATOM      2  C   UNL     1       3.911  -2.061   6.324  0.00  0.00    +0.250 C 
ATOM      3  C   UNL     1       4.388  -0.877   7.068  0.00  0.00    +0.292 C 
ATOM      4  O   UNL     1       5.077  -0.914   8.069  0.00  0.00    -0.266 OA
ATOM      5  N   UNL     1       3.949   0.247   6.474  0.00  0.00    -0.252 N 
ATOM      6  C   UNL     1       3.160  -0.142   5.299  0.00  0.00    +0.156 C 
ATOM      7  O   UNL     1       4.170  -3.348   6.649  0.00  0.00    -0.282 OA
ENDROOT
BRANCH   5   8
ATOM      8  C   UNL     1       4.203   1.555   6.898  0.00  0.00    +0.038 A 
ATOM      9  C   UNL     1       3.678   2.630   6.189  0.00  0.00    +0.023 A 
ATOM     10  C   UNL     1       3.926   3.925   6.603  0.00  0.00    +0.003 A 
ATOM     11  C   UNL     1       4.696   4.161   7.724  0.00  0.00    +0.015 A 
ATOM     12  C   UNL     1       5.228   3.088   8.444  0.00  0.00    +0.065 A 
ATOM     13  C   UNL     1       4.973   1.780   8.028  0.00  0.00    +0.038 A 
BRANCH  12  14
ATOM     14  C   UNL     1       6.052   3.337   9.643  0.00  0.00    +0.387 C 
ATOM     15  O   UNL     1       6.270   4.483  10.007  0.00  0.00    -0.241 OA
ATOM     16  O   UNL     1       6.516   2.396  10.271  0.00  0.00    -0.241 OA
ENDBRANCH  12  14
ENDBRANCH   5   8
BRANCH   6  17
ATOM     17  C   UNL     1       3.787   0.409   4.044  0.00  0.00    +0.015 A 
ATOM     18  C   UNL     1       3.189   0.983   2.972  0.00  0.00    +0.013 A 
ATOM     19  C   UNL     1       3.973   1.422   1.922  0.00  0.00    +0.008 A 
ATOM     20  C   UNL     1       5.317   1.267   1.996  0.00  0.00    +0.045 A 
ATOM     21  S   UNL     1       5.512   0.484   3.589  0.00  0.00    -0.099 S 
ENDBRANCH   6  17
BRANCH   1  22
ATOM     22  C   UNL     1       2.517  -2.510   4.274  0.00  0.00    +0.195 C 
ATOM     23  O   UNL     1       3.188  -3.190   3.518  0.00  0.00    -0.287 OA
BRANCH  22  27
ATOM     24  C   UNL     1      -1.725  -2.622   4.041  0.00  0.00    +0.162 A 
ATOM     25  C   UNL     1      -1.104  -1.867   5.027  0.00  0.00    +0.050 A 
ATOM     26  C   UNL     1       0.271  -1.829   5.106  0.00  0.00    +0.015 A 
ATOM     27  C   UNL     1       1.044  -2.551   4.191  0.00  0.00    +0.026 A 
ATOM     28  C   UNL     1       0.418  -3.310   3.198  0.00  0.00    +0.061 A 
ATOM     29  C   UNL     1      -0.961  -3.348   3.129  0.00  0.00    +0.162 A 
BRANCH  24  31
ATOM     30  C   UNL     1      -3.802  -1.888   4.933  0.00  0.00    +0.277 C 
ATOM     31  O   UNL     1      -3.081  -2.656   3.967  0.00  0.00    -0.491 OA
ENDBRANCH  24  31
BRANCH  29  32
ATOM     32  O   UNL     1      -1.573  -4.091   2.168  0.00  0.00    -0.491 OA
ATOM     33  C   UNL     1      -0.728  -4.810   1.267  0.00  0.00    +0.277 C 
ENDBRANCH  29  32
ENDBRANCH  22  27
ENDBRANCH   1  22
TORSDOF 7
