REMARK  Name = ZINC13031703
REMARK  13 active torsions:
REMARK  status: ('A' for Active; 'I' for Inactive)
REMARK    1  A    between atoms: C_1  and  C_2
REMARK    2  A    between atoms: C_2  and  C_3
REMARK    3  A    between atoms: C_2  and  C_4
REMARK    4  A    between atoms: C_4  and  C_5
REMARK    5  A    between atoms: C_5  and  N_6
REMARK    6  A    between atoms: C_7  and  C_9
REMARK    7  A    between atoms: C_9  and  C_11
REMARK    8  A    between atoms: C_9  and  N_16
REMARK    9  A    between atoms: N_16  and  C_17
REMARK   10  A    between atoms: C_20  and  C_23
REMARK   11  A    between atoms: C_23  and  C_25
REMARK   12  A    between atoms: C_26  and  C_28
REMARK   13  A    between atoms: C_28  and  N_29
REMARK                            x       y       z     vdW  Elec       q    Type
REMARK                         _______ _______ _______ _____ _____    ______ ____
ROOT
ATOM      1  N   UNL     1      -5.817   3.678  -1.482  0.00  0.00    -0.253 N 
ATOM      2  C   UNL     1      -4.979   2.667  -1.179  0.00  0.00    +0.242 C 
ATOM      3  O   UNL     1      -4.200   2.255  -2.012  0.00  0.00    -0.273 OA
ENDROOT
BRANCH   1   4
ATOM      4  C   UNL     1      -6.627   4.232  -0.492  0.00  0.00    +0.038 A 
ATOM      5  C   UNL     1      -7.954   4.544  -0.775  0.00  0.00    +0.024 A 
ATOM      6  C   UNL     1      -8.755   5.085   0.196  0.00  0.00    +0.013 A 
ATOM      7  C   UNL     1      -8.234   5.333   1.473  0.00  0.00    +0.017 A 
ATOM      8  C   UNL     1      -6.897   5.022   1.751  0.00  0.00    +0.013 A 
ATOM      9  C   UNL     1      -6.105   4.477   0.775  0.00  0.00    +0.024 A 
BRANCH   7  10
ATOM     10  C   UNL     1      -9.088   5.917   2.516  0.00  0.00    +0.160 C 
ATOM     11  O   UNL     1      -8.614   6.211   3.593  0.00  0.00    -0.292 OA
ATOM     12  C   UNL     1     -10.552   6.150   2.248  0.00  0.00    +0.091 C 
ENDBRANCH   7  10
ENDBRANCH   1   4
BRANCH   1  13
ATOM     13  C   UNL     1      -5.878   4.195  -2.852  0.00  0.00    +0.204 C 
BRANCH  13  14
ATOM     14  C   UNL     1      -6.833   3.358  -3.663  0.00  0.00    +0.019 A 
ATOM     15  C   UNL     1      -6.820   3.094  -4.992  0.00  0.00    +0.013 A 
ATOM     16  C   UNL     1      -7.809   2.290  -5.526  0.00  0.00    +0.008 A 
ATOM     17  C   UNL     1      -8.763   1.788  -4.704  0.00  0.00    +0.045 A 
ATOM     18  S   UNL     1      -8.272   2.450  -3.120  0.00  0.00    -0.099 S 
ENDBRANCH  13  14
BRANCH  13  20
ATOM     19  N   UNL     1      -6.489   6.308  -3.982  0.00  0.00    -0.313 N 
ATOM     20  C   UNL     1      -6.356   5.624  -2.829  0.00  0.00    +0.239 C 
ATOM     21  O   UNL     1      -6.620   6.158  -1.773  0.00  0.00    -0.273 OA
ATOM     22  H   UNL     1      -6.278   5.881  -4.827  0.00  0.00    +0.149 HD
BRANCH  19  23
ATOM     23  C   UNL     1      -6.954   7.697  -3.960  0.00  0.00    +0.104 C 
BRANCH  23  24
ATOM     24  C   UNL     1      -7.017   8.236  -5.391  0.00  0.00    +0.022 C 
BRANCH  24  26
ATOM     25  C   UNL     1      -6.470  10.559  -4.651  0.00  0.00    +0.007 C 
ATOM     26  C   UNL     1      -7.503   9.687  -5.368  0.00  0.00    -0.016 C 
ATOM     27  C   UNL     1      -7.685  10.187  -6.803  0.00  0.00    +0.007 C 
ENDBRANCH  24  26
ENDBRANCH  23  24
ENDBRANCH  19  23
ENDBRANCH  13  20
ENDBRANCH   1  13
BRANCH   2  28
ATOM     28  C   UNL     1      -5.010   2.049   0.195  0.00  0.00    +0.242 C 
BRANCH  28  29
ATOM     29  N   UNL     1      -5.014   0.589   0.074  0.00  0.00    -0.235 N 
ATOM     30  C   UNL     1      -6.118  -0.225  -0.017  0.00  0.00    +0.090 A 
ATOM     31  C   UNL     1      -7.489   0.004  -0.032  0.00  0.00    +0.029 A 
ATOM     32  C   UNL     1      -8.354  -1.050  -0.132  0.00  0.00    +0.002 A 
ATOM     33  C   UNL     1      -7.874  -2.350  -0.230  0.00  0.00    +0.002 A 
ATOM     34  C   UNL     1      -6.533  -2.601  -0.223  0.00  0.00    +0.032 A 
ATOM     35  C   UNL     1      -5.626  -1.538  -0.116  0.00  0.00    +0.113 A 
ATOM     36  N   UNL     1      -4.280  -1.475  -0.083  0.00  0.00    -0.129 NA
ATOM     37  N   UNL     1      -3.893  -0.253   0.027  0.00  0.00    -0.064 NA
ENDBRANCH  28  29
ENDBRANCH   2  28
TORSDOF 10
