REMARK  Name = ZINC13562187
REMARK  11 active torsions:
REMARK  status: ('A' for Active; 'I' for Inactive)
REMARK    1  A    between atoms: C_1  and  C_2
REMARK    2  A    between atoms: C_11  and  C_12
REMARK    3  A    between atoms: N_15  and  C_16
REMARK    4  A    between atoms: C_16  and  C_17
REMARK    5  A    between atoms: N_23  and  C_25
REMARK    6  A    between atoms: C_25  and  C_26
REMARK    7  A    between atoms: C_26  and  C_27
REMARK    8  A    between atoms: C_30  and  O_35
REMARK    9  A    between atoms: C_31  and  O_33
REMARK   10  A    between atoms: O_33  and  C_34
REMARK   11  A    between atoms: O_35  and  C_36
REMARK                            x       y       z     vdW  Elec       q    Type
REMARK                         _______ _______ _______ _____ _____    ______ ____
ROOT
ATOM      1  C   UNL     1       0.902   1.140   0.619  0.00  0.00    +0.044 C 
ATOM      2  C   UNL     1       0.710  -0.348   0.480  0.00  0.00    -0.047 A 
ATOM      3  C   UNL     1       0.652  -0.905  -0.761  0.00  0.00    +0.013 A 
ATOM      4  C   UNL     1       0.470  -2.290  -0.893  0.00  0.00    +0.001 A 
ATOM      5  C   UNL     1       0.375  -2.904  -2.154  0.00  0.00    +0.017 A 
ATOM      6  C   UNL     1       0.210  -4.266  -2.228  0.00  0.00    +0.003 A 
ATOM      7  C   UNL     1       0.169  -5.005  -1.043  0.00  0.00    +0.109 A 
ATOM      8  N   UNL     1       0.223  -4.415   0.141  0.00  0.00    -0.240 NA
ATOM      9  C   UNL     1       0.367  -3.095   0.269  0.00  0.00    +0.073 A 
ATOM     10  C   UNL     1       0.424  -2.483   1.532  0.00  0.00    +0.032 A 
ATOM     11  C   UNL     1       0.598  -1.136   1.623  0.00  0.00    -0.045 A 
ATOM     12  C   UNL     1       0.665  -0.486   2.982  0.00  0.00    +0.044 C 
ATOM     13  S   UNL     1       0.075  -6.772  -1.069  0.00  0.00    -0.036 S 
ATOM     14  C   UNL     1      -0.290  -7.106  -2.769  0.00  0.00    +0.137 C 
ATOM     15  N   UNL     1      -1.096  -8.062  -3.139  0.00  0.00    -0.365 N 
ATOM     16  N   UNL     1       0.349  -6.271  -3.681  0.00  0.00    -0.307 N 
ATOM     17  C   UNL     1       0.072  -4.843  -3.606  0.00  0.00    +0.144 C 
ATOM     18  H   UNL     1      -1.453  -8.677  -2.479  0.00  0.00    +0.161 HD
ENDROOT
BRANCH  15  19
ATOM     19  C   UNL     1      -1.464  -8.206  -4.549  0.00  0.00    +0.146 C 
BRANCH  19  20
ATOM     20  C   UNL     1      -2.523  -9.300  -4.691  0.00  0.00    +0.137 C 
ATOM     21  C   UNL     1      -2.828  -9.543  -6.185  0.00  0.00    +0.035 C 
ATOM     22  C   UNL     1      -4.366  -9.761  -6.176  0.00  0.00    +0.031 C 
ATOM     23  C   UNL     1      -4.792  -8.799  -5.038  0.00  0.00    +0.160 C 
ATOM     24  O   UNL     1      -3.740  -8.884  -4.061  0.00  0.00    -0.375 OA
ENDBRANCH  19  20
ENDBRANCH  15  19
BRANCH  16  25
ATOM     25  C   UNL     1       1.270  -6.811  -4.684  0.00  0.00    +0.112 C 
BRANCH  25  26
ATOM     26  C   UNL     1       2.706  -6.705  -4.167  0.00  0.00    +0.054 C 
BRANCH  26  27
ATOM     27  C   UNL     1       3.651  -7.281  -5.190  0.00  0.00    -0.042 A 
ATOM     28  C   UNL     1       3.975  -8.624  -5.151  0.00  0.00    +0.007 A 
ATOM     29  C   UNL     1       4.843  -9.157  -6.087  0.00  0.00    +0.049 A 
ATOM     30  C   UNL     1       5.389  -8.344  -7.067  0.00  0.00    +0.161 A 
ATOM     31  C   UNL     1       5.062  -6.992  -7.106  0.00  0.00    +0.162 A 
ATOM     32  C   UNL     1       4.189  -6.465  -6.168  0.00  0.00    +0.053 A 
BRANCH  31  33
ATOM     33  O   UNL     1       5.596  -6.189  -8.066  0.00  0.00    -0.491 OA
ATOM     34  C   UNL     1       5.216  -4.812  -8.046  0.00  0.00    +0.277 C 
ENDBRANCH  31  33
BRANCH  30  35
ATOM     35  O   UNL     1       6.242  -8.866  -7.988  0.00  0.00    -0.491 OA
ATOM     36  C   UNL     1       6.532 -10.261  -7.886  0.00  0.00    +0.277 C 
ENDBRANCH  30  35
ENDBRANCH  26  27
ENDBRANCH  25  26
ENDBRANCH  16  25
TORSDOF 7
