REMARK  Name = ZINC45364779
REMARK  8 active torsions:
REMARK  status: ('A' for Active; 'I' for Inactive)
REMARK    1  A    between atoms: C_1  and  C_2
REMARK    2  A    between atoms: C_6  and  C_40
REMARK    3  A    between atoms: C_7  and  C_8
REMARK    4  A    between atoms: N_15  and  C_20
REMARK    5  A    between atoms: C_20  and  C_21
REMARK    6  A    between atoms: C_21  and  C_22
REMARK    7  A    between atoms: C_22  and  C_34
REMARK    8  A    between atoms: C_26  and  C_28
REMARK                            x       y       z     vdW  Elec       q    Type
REMARK                         _______ _______ _______ _____ _____    ______ ____
ROOT
ATOM      1  C   UNL     1       2.077   4.539   1.412  0.00  0.00    -0.078 C 
ENDROOT
BRANCH   1   8
ATOM      2  C   UNL     1      -0.027  -0.027   2.478  0.00  0.00    +0.249 C 
ATOM      3  O   UNL     1      -1.071   0.252   3.034  0.00  0.00    -0.270 OA
ATOM      4  N   UNL     1       1.149   0.295   3.051  0.00  0.00    -0.297 N 
ATOM      5  C   UNL     1       2.518   0.049   2.536  0.00  0.00    +0.110 C 
ATOM      6  C   UNL     1       3.284   1.354   2.847  0.00  0.00    -0.007 C 
ATOM      7  C   UNL     1       3.073   2.342   1.681  0.00  0.00    -0.074 C 
ATOM      8  N   UNL     1       2.786   3.644   2.336  0.00  0.00    +0.380 N 
ATOM      9  C   UNL     1       1.915   3.289   3.486  0.00  0.00    -0.074 C 
ATOM     10  C   UNL     1       2.525   1.974   4.054  0.00  0.00    -0.007 C 
ATOM     11  C   UNL     1       1.381   0.984   4.344  0.00  0.00    +0.110 C 
ATOM     12  H   UNL     1       3.640   4.072   2.659  0.00  0.00    -0.082 HD
BRANCH   2  19
ATOM     13  C   UNL     1      -0.082   1.518  -0.005  0.00  0.00    +0.044 C 
ATOM     14  C   UNL     1      -0.074   0.011  -0.022  0.00  0.00    -0.035 A 
ATOM     15  C   UNL     1      -0.087  -0.686  -1.217  0.00  0.00    +0.024 A 
ATOM     16  C   UNL     1      -0.079  -2.068  -1.195  0.00  0.00    +0.111 A 
ATOM     17  N   UNL     1      -0.060  -2.732  -0.055  0.00  0.00    -0.259 NA
ATOM     18  C   UNL     1      -0.047  -2.114   1.108  0.00  0.00    +0.051 A 
ATOM     19  C   UNL     1      -0.048  -0.720   1.172  0.00  0.00    +0.061 A 
ATOM     20  C   UNL     1      -0.025  -2.920   2.381  0.00  0.00    +0.066 C 
ENDBRANCH   2  19
ENDBRANCH   1   8
BRANCH   1  21
ATOM     21  C   UNL     1       1.904   5.912   2.064  0.00  0.00    -0.004 C 
BRANCH  21  22
ATOM     22  C   UNL     1       1.285   6.882   1.055  0.00  0.00    +0.026 C 
ATOM     23  C   UNL     1       0.657   8.130   1.700  0.00  0.00    +0.120 C 
ATOM     24  N   UNL     1      -0.451   7.943   0.743  0.00  0.00    -0.299 N 
ATOM     25  C   UNL     1      -0.145   6.504   0.629  0.00  0.00    +0.120 C 
ATOM     26  C   UNL     1      -1.373   8.759   0.193  0.00  0.00    +0.219 C 
ATOM     27  O   UNL     1      -1.387   9.938   0.480  0.00  0.00    -0.275 OA
BRANCH  26  28
ATOM     28  C   UNL     1      -2.385   8.208  -0.777  0.00  0.00    +0.086 C 
ATOM     29  C   UNL     1      -1.854   8.084  -2.216  0.00  0.00    +0.088 C 
ATOM     30  C   UNL     1      -3.234   8.578  -2.683  0.00  0.00    +0.250 C 
ATOM     31  C   UNL     1      -3.364   9.265  -1.313  0.00  0.00    +0.088 C 
ATOM     32  F   UNL     1      -4.159   7.549  -2.884  0.00  0.00    -0.206 F 
ATOM     33  F   UNL     1      -3.174   9.474  -3.756  0.00  0.00    -0.206 F 
ENDBRANCH  26  28
BRANCH  22  34
ATOM     34  C   UNL     1       2.201   7.189  -0.102  0.00  0.00    -0.038 A 
ATOM     35  C   UNL     1       1.772   6.978  -1.399  0.00  0.00    +0.004 A 
ATOM     36  C   UNL     1       2.612   7.261  -2.459  0.00  0.00    +0.000 A 
ATOM     37  C   UNL     1       3.882   7.754  -2.223  0.00  0.00    +0.000 A 
ATOM     38  C   UNL     1       4.311   7.966  -0.926  0.00  0.00    +0.000 A 
ATOM     39  C   UNL     1       3.469   7.688   0.134  0.00  0.00    +0.004 A 
ENDBRANCH  22  34
ENDBRANCH  21  22
ENDBRANCH   1  21
TORSDOF 6
