REMARK  Name = ZINC59364651
REMARK  10 active torsions:
REMARK  status: ('A' for Active; 'I' for Inactive)
REMARK    1  A    between atoms: C_1  and  C_2
REMARK    2  A    between atoms: C_2  and  O_3
REMARK    3  A    between atoms: O_3  and  C_4
REMARK    4  A    between atoms: C_10  and  C_11
REMARK    5  A    between atoms: C_13  and  O_20
REMARK    6  A    between atoms: C_14  and  O_18
REMARK    7  A    between atoms: O_18  and  C_19
REMARK    8  A    between atoms: O_20  and  C_21
REMARK    9  A    between atoms: N_24  and  C_25
REMARK   10  A    between atoms: C_28  and  C_31
REMARK                            x       y       z     vdW  Elec       q    Type
REMARK                         _______ _______ _______ _____ _____    ______ ____
ROOT
ATOM      1  C   UNL     1      -0.140  -1.787  -1.998  0.00  0.00    +0.346 C 
ATOM      2  O   UNL     1      -0.849  -2.617  -1.211  0.00  0.00    -0.245 OA
ATOM      3  C   UNL     1       0.734  -2.306  -2.946  0.00  0.00    +0.139 C 
ATOM      4  C   UNL     1       0.917  -3.752  -3.126  0.00  0.00    +0.120 C 
ATOM      5  S   UNL     1       2.117  -3.871  -4.436  0.00  0.00    -0.065 S 
ATOM      6  C   UNL     1       2.397  -2.144  -4.765  0.00  0.00    +0.062 C 
ATOM      7  C   UNL     1       3.230  -1.591  -5.683  0.00  0.00    +0.027 C 
ATOM      8  C   UNL     1       1.511  -1.456  -3.815  0.00  0.00    +0.209 C 
ATOM      9  O   UNL     1       1.440  -0.240  -3.762  0.00  0.00    -0.286 OA
ATOM     10  N   UNL     1       0.329  -4.734  -2.471  0.00  0.00    -0.240 NA
ENDROOT
BRANCH   7  11
ATOM     11  C   UNL     1       3.918  -2.446  -6.659  0.00  0.00    -0.019 A 
ATOM     12  C   UNL     1       3.412  -3.717  -6.960  0.00  0.00    +0.057 A 
ATOM     13  C   UNL     1       4.063  -4.516  -7.878  0.00  0.00    +0.163 A 
ATOM     14  C   UNL     1       5.222  -4.059  -8.504  0.00  0.00    +0.175 A 
ATOM     15  C   UNL     1       5.726  -2.799  -8.207  0.00  0.00    +0.064 A 
ATOM     16  C   UNL     1       5.079  -1.992  -7.295  0.00  0.00    +0.027 A 
ATOM     17 BR   UNL     1       7.298  -2.187  -9.059  0.00  0.00    -0.046 Br
BRANCH  14  18
ATOM     18  O   UNL     1       5.862  -4.848  -9.406  0.00  0.00    -0.490 OA
ATOM     19  C   UNL     1       5.464  -4.724 -10.773  0.00  0.00    +0.277 C 
ENDBRANCH  14  18
BRANCH  13  20
ATOM     20  O   UNL     1       3.574  -5.750  -8.173  0.00  0.00    -0.491 OA
ATOM     21  C   UNL     1       2.383  -6.155  -7.495  0.00  0.00    +0.277 C 
ENDBRANCH  13  20
ENDBRANCH   7  11
BRANCH  10  22
ATOM     22  C   UNL     1       0.625  -6.032  -2.776  0.00  0.00    +0.065 A 
ATOM     23  C   UNL     1       0.698  -6.441  -4.111  0.00  0.00    +0.028 A 
ATOM     24  C   UNL     1       0.997  -7.753  -4.411  0.00  0.00    +0.005 A 
ATOM     25  C   UNL     1       1.223  -8.665  -3.395  0.00  0.00    -0.050 A 
ATOM     26  C   UNL     1       1.151  -8.268  -2.071  0.00  0.00    +0.005 A 
ATOM     27  C   UNL     1       0.860  -6.958  -1.755  0.00  0.00    +0.028 A 
ATOM     28  C   UNL     1       1.548 -10.098  -3.732  0.00  0.00    +0.044 C 
ENDBRANCH  10  22
BRANCH   1  29
ATOM     29  O   UNL     1      -0.276  -0.455  -1.866  0.00  0.00    -0.461 OA
BRANCH  29  31
ATOM     30  C   UNL     1      -1.212   1.538  -0.870  0.00  0.00    +0.048 C 
ATOM     31  C   UNL     1      -1.192   0.008  -0.872  0.00  0.00    +0.229 C 
ENDBRANCH  29  31
ENDBRANCH   1  29
TORSDOF 6
