REMARK  Name = ZINC43696034
REMARK  13 active torsions:
REMARK  status: ('A' for Active; 'I' for Inactive)
REMARK    1  A    between atoms: C_1  and  C_2
REMARK    2  A    between atoms: C_2  and  O_3
REMARK    3  A    between atoms: O_3  and  C_4
REMARK    4  A    between atoms: N_6  and  C_7
REMARK    5  A    between atoms: C_7  and  C_9
REMARK    6  A    between atoms: C_7  and  C_13
REMARK    7  A    between atoms: C_9  and  C_10
REMARK    8  A    between atoms: C_10  and  C_11
REMARK    9  A    between atoms: C_10  and  C_12
REMARK   10  A    between atoms: C_13  and  N_14
REMARK   11  A    between atoms: C_21  and  C_23
REMARK   12  A    between atoms: C_23  and  C_24
REMARK   13  A    between atoms: C_23  and  C_25
REMARK                            x       y       z     vdW  Elec       q    Type
REMARK                         _______ _______ _______ _____ _____    ______ ____
ROOT
ATOM      1  N   UNL     1      -4.356  -3.585   1.966  0.00  0.00    -0.297 N 
ATOM      2  C   UNL     1      -5.467  -3.767   2.706  0.00  0.00    +0.305 C 
ATOM      3  O   UNL     1      -6.390  -4.424   2.265  0.00  0.00    -0.252 OA
ATOM      4  N   UNL     1      -5.555  -3.221   3.935  0.00  0.00    -0.247 N 
ATOM      5  C   UNL     1      -6.702  -3.409   4.699  0.00  0.00    +0.189 A 
ATOM      6  N   UNL     1      -7.795  -4.085   4.405  0.00  0.00    -0.126 NA
ATOM      7  N   UNL     1      -8.765  -4.168   5.210  0.00  0.00    -0.144 NA
ATOM      8  C   UNL     1      -8.684  -3.561   6.378  0.00  0.00    +0.106 A 
ATOM      9  S   UNL     1      -7.054  -2.838   6.246  0.00  0.00    -0.035 S 
ATOM     10  H   UNL     1      -3.619  -3.060   2.317  0.00  0.00    +0.150 HD
ATOM     11  H   UNL     1      -4.819  -2.696   4.287  0.00  0.00    +0.158 HD
ENDROOT
BRANCH   8  12
ATOM     12  C   UNL     1      -9.680  -3.499   7.506  0.00  0.00    +0.040 C 
ATOM     13  C   UNL     1     -10.976  -2.857   7.007  0.00  0.00    +0.014 C 
ATOM     14  C   UNL     1      -9.973  -4.915   8.007  0.00  0.00    +0.014 C 
ENDBRANCH   8  12
BRANCH   1  15
ATOM     15  C   UNL     1      -4.260  -4.179   0.630  0.00  0.00    +0.128 C 
BRANCH  15  16
ATOM     16  C   UNL     1      -2.907  -3.823   0.009  0.00  0.00    +0.093 C 
BRANCH  16  19
ATOM     17  C   UNL     1      -1.497  -1.836   0.006  0.00  0.00    +0.401 C 
ATOM     18  O   UNL     1      -0.523  -2.563  -0.007  0.00  0.00    -0.226 OA
ATOM     19  N   UNL     1      -2.735  -2.368   0.015  0.00  0.00    -0.277 N 
ATOM     20  H   UNL     1      -3.512  -1.787   0.026  0.00  0.00    +0.152 HD
BRANCH  17  21
ATOM     21  O   UNL     1      -1.339  -0.499   0.012  0.00  0.00    -0.451 OA
BRANCH  21  23
ATOM     22  C   UNL     1      -0.019   1.526   0.010  0.00  0.00    +0.048 C 
ATOM     23  C   UNL     1       0.002  -0.004   0.002  0.00  0.00    +0.230 C 
ENDBRANCH  21  23
ENDBRANCH  17  21
ENDBRANCH  16  19
BRANCH  16  24
ATOM     24  C   UNL     1      -2.856  -4.336  -1.431  0.00  0.00    +0.027 C 
BRANCH  24  25
ATOM     25  C   UNL     1      -1.462  -4.091  -2.011  0.00  0.00    -0.015 C 
ATOM     26  C   UNL     1      -0.436  -4.930  -1.245  0.00  0.00    +0.007 C 
ATOM     27  C   UNL     1      -1.446  -4.490  -3.488  0.00  0.00    +0.007 C 
ENDBRANCH  24  25
ENDBRANCH  16  24
ENDBRANCH  15  16
ENDBRANCH   1  15
TORSDOF 8
