REMARK  Name = ZINC35785321
REMARK  10 active torsions:
REMARK  status: ('A' for Active; 'I' for Inactive)
REMARK    1  A    between atoms: C_1  and  C_2
REMARK    2  A    between atoms: C_5  and  C_8
REMARK    3  A    between atoms: C_11  and  C_26
REMARK    4  A    between atoms: C_14  and  C_16
REMARK    5  A    between atoms: C_16  and  N_17
REMARK    6  A    between atoms: N_17  and  C_18
REMARK    7  A    between atoms: N_17  and  C_21
REMARK    8  A    between atoms: C_18  and  C_19
REMARK    9  A    between atoms: C_28  and  C_33
REMARK   10  A    between atoms: C_31  and  C_32
REMARK                            x       y       z     vdW  Elec       q    Type
REMARK                         _______ _______ _______ _____ _____    ______ ____
ROOT
ATOM      1  C   UNL     1      -0.342  -4.324  -0.309  0.00  0.00    +0.137 C 
ATOM      2  C   UNL     1       1.173  -4.269  -0.032  0.00  0.00    +0.087 C 
ATOM      3  C   UNL     1       1.297  -4.729   1.403  0.00  0.00    +0.069 C 
ATOM      4  N   UNL     1       0.128  -4.996   1.872  0.00  0.00    -0.181 NA
ATOM      5  N   UNL     1      -0.912  -4.799   0.962  0.00  0.00    -0.187 N 
ATOM      6  C   UNL     1      -2.222  -5.007   1.204  0.00  0.00    +0.219 C 
ATOM      7  O   UNL     1      -3.040  -4.800   0.333  0.00  0.00    -0.276 OA
ENDROOT
BRANCH   3   8
ATOM      8  C   UNL     1       2.563  -4.853   2.151  0.00  0.00    +0.001 A 
ATOM      9  C   UNL     1       3.783  -4.633   1.506  0.00  0.00    +0.013 A 
ATOM     10  C   UNL     1       4.962  -4.752   2.211  0.00  0.00    -0.050 A 
ATOM     11  C   UNL     1       4.939  -5.087   3.554  0.00  0.00    +0.003 A 
ATOM     12  C   UNL     1       3.735  -5.306   4.198  0.00  0.00    +0.004 A 
ATOM     13  C   UNL     1       2.547  -5.186   3.507  0.00  0.00    -0.042 A 
ATOM     14  C   UNL     1       1.236  -5.419   4.212  0.00  0.00    +0.044 C 
ATOM     15  C   UNL     1       6.279  -4.515   1.518  0.00  0.00    +0.044 C 
ENDBRANCH   3   8
BRANCH   1  20
ATOM     16  C   UNL     1      -2.366   0.931  -1.607  0.00  0.00    +0.044 C 
ATOM     17  C   UNL     1      -1.838  -0.439  -1.269  0.00  0.00    -0.050 A 
ATOM     18  C   UNL     1      -1.612  -1.361  -2.274  0.00  0.00    +0.004 A 
ATOM     19  C   UNL     1      -1.127  -2.618  -1.964  0.00  0.00    +0.006 A 
ATOM     20  C   UNL     1      -0.869  -2.953  -0.648  0.00  0.00    -0.025 A 
ATOM     21  C   UNL     1      -1.095  -2.032   0.357  0.00  0.00    +0.006 A 
ATOM     22  C   UNL     1      -1.575  -0.773   0.046  0.00  0.00    +0.004 A 
ENDBRANCH   1  20
BRANCH   6  23
ATOM     23  C   UNL     1      -2.669  -5.497   2.558  0.00  0.00    +0.021 C 
BRANCH  23  24
ATOM     24  N   UNL     1      -4.130  -5.643   2.567  0.00  0.00    +0.390 N 
ATOM     25  H   UNL     1      -4.557  -4.770   2.294  0.00  0.00    -0.080 HD
BRANCH  24  26
ATOM     26  C   UNL     1      -4.577  -6.004   3.919  0.00  0.00    -0.068 C 
ATOM     27  C   UNL     1      -4.255  -4.867   4.919  0.00  0.00    -0.015 C 
ATOM     28  C   UNL     1      -5.276  -5.112   6.057  0.00  0.00    -0.002 C 
ATOM     29  C   UNL     1      -6.559  -5.557   5.325  0.00  0.00    -0.002 C 
ATOM     30  C   UNL     1      -6.115  -6.124   3.965  0.00  0.00    -0.015 C 
ENDBRANCH  24  26
BRANCH  24  31
ATOM     31  C   UNL     1      -4.523  -6.697   1.623  0.00  0.00    -0.051 C 
BRANCH  31  32
ATOM     32  C   UNL     1      -3.963  -8.018   2.084  0.00  0.00    -0.053 C 
ATOM     33  C   UNL     1      -4.759  -9.045   2.251  0.00  0.00    +0.002 C 
ENDBRANCH  31  32
ENDBRANCH  24  31
ENDBRANCH  23  24
ENDBRANCH   6  23
TORSDOF 7
