REMARK  Name = ZINC26497543
REMARK  10 active torsions:
REMARK  status: ('A' for Active; 'I' for Inactive)
REMARK    1  A    between atoms: C_1  and  C_2
REMARK    2  A    between atoms: C_5  and  C_8
REMARK    3  A    between atoms: C_8  and  C_9
REMARK    4  A    between atoms: C_9  and  N_10
REMARK    5  A    between atoms: N_10  and  C_11
REMARK    6  A    between atoms: C_11  and  C_12
REMARK    7  A    between atoms: C_16  and  C_18
REMARK    8  A    between atoms: C_18  and  O_19
REMARK    9  A    between atoms: O_19  and  C_20
REMARK   10  A    between atoms: C_30  and  C_33
REMARK                            x       y       z     vdW  Elec       q    Type
REMARK                         _______ _______ _______ _____ _____    ______ ____
ROOT
ATOM      1  C   UNL     1      -5.890   2.272   0.043  0.00  0.00    +0.025 A 
ATOM      2  C   UNL     1      -5.801   3.652   0.050  0.00  0.00    +0.021 A 
ATOM      3  C   UNL     1      -4.549   4.247   0.048  0.00  0.00    +0.004 A 
ATOM      4  C   UNL     1      -3.429   3.430   0.043  0.00  0.00    +0.027 A 
ATOM      5  C   UNL     1      -3.597   2.058   0.030  0.00  0.00    +0.079 A 
ATOM      6  N   UNL     1      -4.803   1.526   0.033  0.00  0.00    -0.255 NA
ENDROOT
BRANCH   1   7
ATOM      7  C   UNL     1      -7.246   1.614   0.046  0.00  0.00    -0.026 C 
BRANCH   7   8
ATOM      8  N   UNL     1      -7.641   1.299  -1.333  0.00  0.00    +0.383 N 
ATOM      9  H   UNL     1      -6.890   0.623  -1.769  0.00  0.00    -0.085 HD
ATOM     10  H   UNL     1      -7.673   2.233  -1.913  0.00  0.00    -0.085 HD
BRANCH   8  11
ATOM     11  C   UNL     1      -8.960   0.654  -1.369  0.00  0.00    -0.077 C 
BRANCH  11  12
ATOM     12  C   UNL     1      -9.336   0.342  -2.819  0.00  0.00    +0.016 C 
BRANCH  12  17
ATOM     13  C   UNL     1     -14.527  -2.193  -2.961  0.00  0.00    +0.044 C 
ATOM     14  C   UNL     1     -13.173  -1.532  -2.924  0.00  0.00    -0.050 A 
ATOM     15  C   UNL     1     -13.074  -0.156  -3.002  0.00  0.00    +0.003 A 
ATOM     16  C   UNL     1     -11.832   0.451  -2.969  0.00  0.00    +0.004 A 
ATOM     17  C   UNL     1     -10.690  -0.319  -2.856  0.00  0.00    -0.049 A 
ATOM     18  C   UNL     1     -10.789  -1.696  -2.783  0.00  0.00    +0.004 A 
ATOM     19  C   UNL     1     -12.030  -2.302  -2.812  0.00  0.00    +0.003 A 
ENDBRANCH  12  17
ENDBRANCH  11  12
ENDBRANCH   8  11
ENDBRANCH   7   8
ENDBRANCH   1   7
BRANCH   5  20
ATOM     20  C   UNL     1      -2.386   1.160   0.020  0.00  0.00    +0.286 C 
BRANCH  20  21
ATOM     21  O   UNL     1      -1.201   1.958   0.018  0.00  0.00    -0.469 OA
BRANCH  21  22
ATOM     22  C   UNL     1      -0.016   1.300   0.009  0.00  0.00    +0.241 A 
ATOM     23  C   UNL     1       1.240   2.058   0.001  0.00  0.00    +0.049 A 
ATOM     24  C   UNL     1       1.255   3.453   0.006  0.00  0.00    +0.014 A 
ATOM     25  C   UNL     1       2.458   4.122  -0.002  0.00  0.00    +0.001 A 
ATOM     26  C   UNL     1       3.658   3.422  -0.016  0.00  0.00    +0.001 A 
ATOM     27  C   UNL     1       3.668   2.045  -0.023  0.00  0.00    +0.012 A 
ATOM     28  C   UNL     1       2.461   1.348  -0.015  0.00  0.00    +0.033 A 
ATOM     29  C   UNL     1       2.409  -0.117  -0.022  0.00  0.00    +0.186 A 
ATOM     30  N   UNL     1       3.326  -1.063  -0.035  0.00  0.00    -0.127 NA
ATOM     31  N   UNL     1       2.750  -2.214  -0.036  0.00  0.00    -0.123 NA
ATOM     32  C   UNL     1       1.450  -2.067  -0.023  0.00  0.00    +0.258 A 
ATOM     33  N   UNL     1       1.188  -0.738  -0.013  0.00  0.00    -0.185 N 
ATOM     34  N   UNL     1       0.002  -0.004   0.002  0.00  0.00    -0.125 NA
BRANCH  32  35
ATOM     35  C   UNL     1       0.429  -3.175  -0.019  0.00  0.00    +0.454 C 
ATOM     36  F   UNL     1       1.054  -4.383   0.310  0.00  0.00    -0.163 F 
ATOM     37  F   UNL     1      -0.563  -2.891   0.925  0.00  0.00    -0.163 F 
ATOM     38  F   UNL     1      -0.150  -3.280  -1.288  0.00  0.00    -0.163 F 
ENDBRANCH  32  35
ENDBRANCH  21  22
ENDBRANCH  20  21
ENDBRANCH   5  20
TORSDOF 9
