REMARK  Name = ZINC17155942
REMARK  6 active torsions:
REMARK  status: ('A' for Active; 'I' for Inactive)
REMARK    1  A    between atoms: C_3  and  N_33
REMARK    2  A    between atoms: C_6  and  C_7
REMARK    3  A    between atoms: C_7  and  S_8
REMARK    4  A    between atoms: S_8  and  C_9
REMARK    5  A    between atoms: C_19  and  C_21
REMARK    6  A    between atoms: C_24  and  O_27
REMARK                            x       y       z     vdW  Elec       q    Type
REMARK                         _______ _______ _______ _____ _____    ______ ____
ROOT
ATOM      1  C   UNL     1      -3.334  -1.974  -1.519  0.00  0.00    +0.194 A 
ATOM      2  N   UNL     1      -3.776  -2.245  -0.299  0.00  0.00    -0.183 NA
ATOM      3  C   UNL     1      -4.911  -2.922  -0.122  0.00  0.00    +0.280 A 
ATOM      4  O   UNL     1      -5.364  -3.199   1.125  0.00  0.00    -0.265 OA
ATOM      5  C   UNL     1      -5.614  -3.335  -1.235  0.00  0.00    +0.075 A 
ATOM      6  C   UNL     1      -5.129  -3.038  -2.513  0.00  0.00    +0.165 A 
ATOM      7  N   UNL     1      -3.985  -2.350  -2.609  0.00  0.00    -0.202 NA
ATOM      8  N   UNL     1      -5.796  -3.428  -3.623  0.00  0.00    -0.232 NA
ATOM      9  C   UNL     1      -6.918  -4.098  -3.635  0.00  0.00    +0.051 C 
ATOM     10  C   UNL     1      -7.560  -4.489  -2.442  0.00  0.00    +0.028 C 
ATOM     11  C   UNL     1      -6.907  -4.108  -1.125  0.00  0.00    +0.093 C 
ATOM     12  C   UNL     1      -8.711  -5.176  -2.441  0.00  0.00    +0.162 C 
ATOM     13  O   UNL     1      -9.274  -5.519  -1.264  0.00  0.00    -0.292 OA
ATOM     14  C   UNL     1      -9.388  -5.571  -3.726  0.00  0.00    +0.080 C 
ATOM     15  C   UNL     1      -9.057  -4.540  -4.809  0.00  0.00    +0.014 C 
ATOM     16  C   UNL     1      -7.537  -4.459  -4.966  0.00  0.00    +0.056 C 
ENDROOT
BRANCH  11  17
ATOM     17  C   UNL     1      -6.637  -5.371  -0.349  0.00  0.00    -0.035 A 
ATOM     18  C   UNL     1      -5.713  -6.286  -0.819  0.00  0.00    +0.008 A 
ATOM     19  C   UNL     1      -5.465  -7.445  -0.110  0.00  0.00    +0.046 A 
ATOM     20  C   UNL     1      -6.142  -7.691   1.075  0.00  0.00    +0.117 A 
ATOM     21  C   UNL     1      -7.068  -6.771   1.546  0.00  0.00    +0.046 A 
ATOM     22  C   UNL     1      -7.310  -5.611   0.835  0.00  0.00    +0.008 A 
BRANCH  20  23
ATOM     23  O   UNL     1      -5.899  -8.830   1.774  0.00  0.00    -0.507 OA
ATOM     24  H   UNL     1      -5.190  -8.748   2.427  0.00  0.00    +0.292 HD
ENDBRANCH  20  23
ENDBRANCH  11  17
BRANCH   1  25
ATOM     25  S   UNL     1      -1.828  -1.075  -1.697  0.00  0.00    -0.081 S 
BRANCH  25  26
ATOM     26  C   UNL     1      -1.293  -0.775   0.010  0.00  0.00    +0.112 C 
BRANCH  26  32
ATOM     27  C   UNL     1      -0.017   1.378   0.010  0.00  0.00    +0.007 A 
ATOM     28  C   UNL     1       1.171   2.086   0.002  0.00  0.00    +0.033 A 
ATOM     29  C   UNL     1       2.377   1.411  -0.013  0.00  0.00    +0.126 A 
ATOM     30  C   UNL     1       2.396   0.029  -0.020  0.00  0.00    +0.033 A 
ATOM     31  C   UNL     1       1.208  -0.679  -0.012  0.00  0.00    +0.007 A 
ATOM     32  C   UNL     1       0.002  -0.004   0.002  0.00  0.00    -0.037 A 
BRANCH  29  33
ATOM     33  N   UNL     1       3.649   2.168  -0.022  0.00  0.00    +0.056 N 
ATOM     34  O   UNL     1       3.633   3.377  -0.016  0.00  0.00    -0.126 OA
ATOM     35  O   UNL     1       4.704   1.578  -0.035  0.00  0.00    -0.126 OA
ENDBRANCH  29  33
ENDBRANCH  26  32
ENDBRANCH  25  26
ENDBRANCH   1  25
TORSDOF 6
