REMARK  Name = ZINC08609090
REMARK  9 active torsions:
REMARK  status: ('A' for Active; 'I' for Inactive)
REMARK    1  A    between atoms: C_1  and  C_2
REMARK    2  A    between atoms: C_2  and  C_3
REMARK    3  A    between atoms: C_8  and  N_9
REMARK    4  A    between atoms: N_12  and  C_13
REMARK    5  A    between atoms: C_15  and  C_24
REMARK    6  A    between atoms: C_18  and  N_19
REMARK    7  A    between atoms: N_26  and  C_27
REMARK    8  A    between atoms: C_27  and  C_28
REMARK    9  A    between atoms: C_31  and  C_34
REMARK                            x       y       z     vdW  Elec       q    Type
REMARK                         _______ _______ _______ _____ _____    ______ ____
ROOT
ATOM      1  C   UNL     1      -2.315  -0.451  -5.878  0.00  0.00    +0.057 A 
ATOM      2  C   UNL     1      -3.613  -0.925  -5.874  0.00  0.00    +0.038 A 
ATOM      3  C   UNL     1      -4.307  -1.063  -7.079  0.00  0.00    +0.039 A 
ATOM      4  C   UNL     1      -3.687  -0.720  -8.284  0.00  0.00    +0.015 A 
ATOM      5  C   UNL     1      -2.393  -0.248  -8.284  0.00  0.00    +0.026 A 
ATOM      6  C   UNL     1      -1.703  -0.104  -7.085  0.00  0.00    +0.051 A 
ENDROOT
BRANCH   1  10
ATOM      7  N   UNL     1      -1.584   0.274  -2.412  0.00  0.00    -0.269 N 
ATOM      8  C   UNL     1      -2.270   0.052  -3.550  0.00  0.00    +0.308 C 
ATOM      9  O   UNL     1      -3.479   0.179  -3.567  0.00  0.00    -0.252 OA
ATOM     10  N   UNL     1      -1.615  -0.311  -4.671  0.00  0.00    -0.268 N 
ATOM     11  H   UNL     1      -0.615   0.236  -2.414  0.00  0.00    +0.156 HD
ATOM     12  H   UNL     1      -0.659  -0.475  -4.643  0.00  0.00    +0.156 HD
BRANCH   7  18
ATOM     13  C   UNL     1      -1.780   0.099  -0.011  0.00  0.00    -0.026 A 
ATOM     14  C   UNL     1      -2.457   0.387   1.159  0.00  0.00    +0.005 A 
ATOM     15  C   UNL     1      -3.625   1.126   1.119  0.00  0.00    +0.000 A 
ATOM     16  C   UNL     1      -4.119   1.580  -0.090  0.00  0.00    +0.002 A 
ATOM     17  C   UNL     1      -3.447   1.296  -1.262  0.00  0.00    +0.023 A 
ATOM     18  C   UNL     1      -2.271   0.558  -1.226  0.00  0.00    +0.038 A 
BRANCH  13  20
ATOM     19  C   UNL     1       0.694   0.240   0.073  0.00  0.00    +0.009 C 
ATOM     20  C   UNL     1      -0.507  -0.706   0.033  0.00  0.00    +0.033 C 
ENDBRANCH  13  20
ENDBRANCH   7  18
ENDBRANCH   1  10
BRANCH   6  21
ATOM     21  N   UNL     1      -0.397   0.381  -7.089  0.00  0.00    -0.328 N 
ATOM     22  C   UNL     1       0.819  -0.436  -7.208  0.00  0.00    +0.105 C 
ATOM     23  C   UNL     1       2.025   0.525  -7.139  0.00  0.00    +0.020 C 
ATOM     24  C   UNL     1       1.438   1.766  -6.417  0.00  0.00    +0.020 C 
ATOM     25  C   UNL     1      -0.006   1.798  -6.981  0.00  0.00    +0.105 C 
ENDBRANCH   6  21
BRANCH   3  26
ATOM     26  C   UNL     1      -5.692  -1.570  -7.079  0.00  0.00    +0.244 C 
ATOM     27  O   UNL     1      -6.231  -1.869  -6.031  0.00  0.00    -0.270 OA
ATOM     28  N   UNL     1      -6.361  -1.703  -8.242  0.00  0.00    -0.307 N 
ATOM     29  H   UNL     1      -5.932  -1.465  -9.078  0.00  0.00    +0.149 HD
BRANCH  28  30
ATOM     30  C   UNL     1      -7.737  -2.206  -8.242  0.00  0.00    +0.139 C 
BRANCH  30  31
ATOM     31  C   UNL     1      -8.252  -2.258  -9.658  0.00  0.00    -0.030 A 
ATOM     32  C   UNL     1      -8.894  -1.161 -10.200  0.00  0.00    +0.005 A 
ATOM     33  C   UNL     1      -9.367  -1.208 -11.498  0.00  0.00    +0.003 A 
ATOM     34  C   UNL     1      -9.198  -2.353 -12.254  0.00  0.00    -0.050 A 
ATOM     35  C   UNL     1      -8.556  -3.451 -11.711  0.00  0.00    +0.003 A 
ATOM     36  C   UNL     1      -8.079  -3.402 -10.415  0.00  0.00    +0.005 A 
ATOM     37  C   UNL     1      -9.714  -2.406 -13.668  0.00  0.00    +0.044 C 
ENDBRANCH  30  31
ENDBRANCH  28  30
ENDBRANCH   3  26
TORSDOF 7
