REMARK  Name = ZINC20885312
REMARK  8 active torsions:
REMARK  status: ('A' for Active; 'I' for Inactive)
REMARK    1  A    between atoms: C_1  and  O_2
REMARK    2  A    between atoms: O_2  and  C_3
REMARK    3  A    between atoms: C_8  and  C_9
REMARK    4  A    between atoms: C_14  and  C_24
REMARK    5  A    between atoms: C_26  and  N_33
REMARK    6  A    between atoms: C_27  and  O_32
REMARK    7  A    between atoms: C_28  and  O_30
REMARK    8  A    between atoms: O_30  and  C_31
REMARK                            x       y       z     vdW  Elec       q    Type
REMARK                         _______ _______ _______ _____ _____    ______ ____
ROOT
ATOM      1  C   UNL     1       5.189   7.618  -0.319  0.00  0.00    +0.035 C 
ATOM      2  C   UNL     1       5.063   6.898  -1.661  0.00  0.00    +0.060 C 
ATOM      3  C   UNL     1       5.314   5.410  -1.476  0.00  0.00    +0.017 C 
ATOM      4  C   UNL     1       4.952   4.796  -0.340  0.00  0.00    +0.036 C 
ATOM      5  C   UNL     1       5.106   3.326  -0.034  0.00  0.00    +0.136 C 
ATOM      6  N   UNL     1       5.935   2.605  -0.976  0.00  0.00    -0.331 N 
ATOM      7  C   UNL     1       5.554   2.462  -2.309  0.00  0.00    +0.049 A 
ATOM      8  C   UNL     1       5.256   1.221  -2.849  0.00  0.00    +0.025 A 
ATOM      9  C   UNL     1       4.838   1.135  -4.165  0.00  0.00    +0.002 A 
ATOM     10  C   UNL     1       4.714   2.275  -4.937  0.00  0.00    +0.002 A 
ATOM     11  C   UNL     1       5.027   3.515  -4.406  0.00  0.00    +0.025 A 
ATOM     12  C   UNL     1       5.466   3.601  -3.096  0.00  0.00    +0.052 A 
ATOM     13  N   UNL     1       5.898   4.798  -2.536  0.00  0.00    -0.316 N 
ATOM     14  C   UNL     1       4.370   5.540   0.719  0.00  0.00    +0.163 C 
ATOM     15  O   UNL     1       4.040   4.956   1.732  0.00  0.00    -0.292 OA
ATOM     16  C   UNL     1       4.145   7.019   0.631  0.00  0.00    +0.088 C 
ATOM     17  H   UNL     1       6.885   2.158  -0.645  0.00  0.00    +0.147 HD
ATOM     18  H   UNL     1       6.780   5.249  -3.015  0.00  0.00    +0.152 HD
ENDROOT
BRANCH   1  24
ATOM     19  C   UNL     1       5.909  10.015  -0.174  0.00  0.00    +0.124 A 
ATOM     20  C   UNL     1       5.668  11.370  -0.349  0.00  0.00    +0.046 A 
ATOM     21  C   UNL     1       4.450  11.796  -0.840  0.00  0.00    +0.004 A 
ATOM     22  C   UNL     1       3.472  10.873  -1.162  0.00  0.00    +0.001 A 
ATOM     23  C   UNL     1       3.711   9.522  -0.994  0.00  0.00    +0.007 A 
ATOM     24  C   UNL     1       4.929   9.091  -0.503  0.00  0.00    -0.002 A 
BRANCH  19  26
ATOM     25  C   UNL     1       8.068  10.601   0.631  0.00  0.00    +0.277 C 
ATOM     26  O   UNL     1       7.106   9.594   0.314  0.00  0.00    -0.495 OA
ENDBRANCH  19  26
ENDBRANCH   1  24
BRANCH   5  27
ATOM     27  C   UNL     1       3.738   2.694  -0.020  0.00  0.00    -0.017 A 
ATOM     28  C   UNL     1       2.993   2.637  -1.183  0.00  0.00    +0.042 A 
ATOM     29  C   UNL     1       1.737   2.059  -1.176  0.00  0.00    +0.171 A 
ATOM     30  C   UNL     1       1.223   1.534  -0.001  0.00  0.00    +0.189 A 
ATOM     31  C   UNL     1       1.971   1.596   1.171  0.00  0.00    +0.164 A 
ATOM     32  C   UNL     1       3.231   2.172   1.155  0.00  0.00    +0.055 A 
BRANCH  29  33
ATOM     33  N   UNL     1       0.943   2.000  -2.423  0.00  0.00    +0.060 N 
ATOM     34  O   UNL     1       1.395   2.461  -3.456  0.00  0.00    -0.126 OA
ATOM     35  O   UNL     1      -0.164   1.490  -2.417  0.00  0.00    -0.126 OA
ENDBRANCH  29  33
BRANCH  31  36
ATOM     36  O   UNL     1       1.468   1.087   2.327  0.00  0.00    -0.491 OA
ATOM     37  C   UNL     1       2.291   1.186   3.491  0.00  0.00    +0.277 C 
ENDBRANCH  31  36
BRANCH  30  38
ATOM     38  O   UNL     1      -0.012   0.965   0.007  0.00  0.00    -0.502 OA
ATOM     39  H   UNL     1      -0.419   0.548   0.941  0.00  0.00    +0.292 HD
ENDBRANCH  30  38
ENDBRANCH   5  27
TORSDOF 6
