REMARK  Name = ZINC09002690
REMARK  8 active torsions:
REMARK  status: ('A' for Active; 'I' for Inactive)
REMARK    1  A    between atoms: C_1  and  C_2
REMARK    2  A    between atoms: N_4  and  C_5
REMARK    3  A    between atoms: N_13  and  C_14
REMARK    4  A    between atoms: C_14  and  C_16
REMARK    5  A    between atoms: C_21  and  O_22
REMARK    6  A    between atoms: O_22  and  C_23
REMARK    7  A    between atoms: N_29  and  C_30
REMARK    8  A    between atoms: C_30  and  C_31
REMARK                            x       y       z     vdW  Elec       q    Type
REMARK                         _______ _______ _______ _____ _____    ______ ____
ROOT
ATOM      1  C   UNL     1      -0.292  -1.463  -3.187  0.00  0.00    +0.035 A 
ATOM      2  C   UNL     1      -0.196  -0.076  -3.210  0.00  0.00    +0.025 A 
ATOM      3  C   UNL     1      -0.123   0.651  -2.048  0.00  0.00    +0.029 A 
ATOM      4  C   UNL     1      -0.149   0.015  -0.794  0.00  0.00    +0.059 A 
ATOM      5  C   UNL     1      -0.242  -1.384  -0.801  0.00  0.00    +0.041 A 
ATOM      6  C   UNL     1      -0.315  -2.117  -1.962  0.00  0.00    +0.040 A 
ATOM      7  S   UNL     1      -0.239  -1.806   0.925  0.00  0.00    -0.052 S 
ATOM      8  C   UNL     1      -0.111  -0.151   1.583  0.00  0.00    +0.168 A 
ATOM      9  N   UNL     1      -0.059   0.238   2.852  0.00  0.00    -0.152 NA
ATOM     10  N   UNL     1      -0.079   0.611   0.454  0.00  0.00    -0.310 N 
ENDROOT
BRANCH   1  14
ATOM     11  C   UNL     1      -1.181  -2.499  -6.697  0.00  0.00    +0.109 C 
ATOM     12  C   UNL     1      -1.023  -1.680  -5.443  0.00  0.00    +0.214 C 
ATOM     13  O   UNL     1      -1.487  -0.561  -5.387  0.00  0.00    -0.276 OA
ATOM     14  N   UNL     1      -0.366  -2.191  -4.382  0.00  0.00    -0.286 N 
ATOM     15  H   UNL     1       0.056  -3.062  -4.447  0.00  0.00    +0.155 HD
ENDBRANCH   1  14
BRANCH   9  16
ATOM     16  C   UNL     1      -0.105  -0.670   3.833  0.00  0.00    +0.273 C 
ATOM     17  O   UNL     1      -0.193  -1.855   3.562  0.00  0.00    -0.268 OA
BRANCH  16  18
ATOM     18  C   UNL     1      -0.047  -0.236   5.245  0.00  0.00    +0.081 A 
ATOM     19  C   UNL     1       0.054   1.120   5.559  0.00  0.00    +0.017 A 
ATOM     20  C   UNL     1       0.108   1.518   6.878  0.00  0.00    +0.001 A 
ATOM     21  C   UNL     1       0.061   0.578   7.894  0.00  0.00    +0.004 A 
ATOM     22  C   UNL     1      -0.039  -0.767   7.597  0.00  0.00    +0.047 A 
ATOM     23  C   UNL     1      -0.100  -1.184   6.275  0.00  0.00    +0.141 A 
BRANCH  23  24
ATOM     24  O   UNL     1      -0.205  -2.505   5.981  0.00  0.00    -0.455 OA
BRANCH  24  25
ATOM     25  C   UNL     1      -0.369  -3.376   7.011  0.00  0.00    +0.128 A 
ATOM     26  C   UNL     1       0.629  -4.291   7.314  0.00  0.00    +0.046 A 
ATOM     27  C   UNL     1       0.462  -5.172   8.364  0.00  0.00    +0.004 A 
ATOM     28  C   UNL     1      -0.704  -5.150   9.107  0.00  0.00    +0.000 A 
ATOM     29  C   UNL     1      -1.703  -4.244   8.804  0.00  0.00    +0.004 A 
ATOM     30  C   UNL     1      -1.538  -3.357   7.758  0.00  0.00    +0.046 A 
ENDBRANCH  24  25
ENDBRANCH  23  24
ENDBRANCH  16  18
ENDBRANCH   9  16
BRANCH  10  31
ATOM     31  C   UNL     1       0.025   2.069   0.561  0.00  0.00    +0.212 C 
BRANCH  31  32
ATOM     32  C   UNL     1       1.443   2.461   0.571  0.00  0.00    -0.084 C 
ATOM     33  C   UNL     1       2.575   2.773   0.579  0.00  0.00    +0.005 C 
ENDBRANCH  31  32
ENDBRANCH  10  31
TORSDOF 7
