REMARK  Name = ZINC45511132
REMARK  6 active torsions:
REMARK  status: ('A' for Active; 'I' for Inactive)
REMARK    1  A    between atoms: C_1  and  C_2
REMARK    2  A    between atoms: C_2  and  C_4
REMARK    3  A    between atoms: C_2  and  N_20
REMARK    4  A    between atoms: N_9  and  C_10
REMARK    5  A    between atoms: N_23  and  C_26
REMARK    6  A    between atoms: C_26  and  C_27
REMARK                            x       y       z     vdW  Elec       q    Type
REMARK                         _______ _______ _______ _____ _____    ______ ____
ROOT
ATOM      1  C   UNL     1      -1.452  -0.355   0.322  0.00  0.00    +0.034 C 
ATOM      2  C   UNL     1       0.002  -0.004   0.002  0.00  0.00    +0.140 C 
ENDROOT
BRANCH   2   3
ATOM      3  C   UNL     1       0.162   1.494  -0.026  0.00  0.00    +0.237 C 
ATOM      4  O   UNL     1       0.711   2.062   0.893  0.00  0.00    -0.274 OA
ATOM      5  N   UNL     1      -0.304   2.202  -1.074  0.00  0.00    -0.239 N 
ATOM      6  C   UNL     1      -0.161   3.542  -1.099  0.00  0.00    +0.306 C 
ATOM      7  O   UNL     1       0.389   4.112  -0.177  0.00  0.00    -0.252 OA
ATOM      8  N   UNL     1      -0.627   4.250  -2.147  0.00  0.00    -0.294 N 
ATOM      9  H   UNL     1      -0.743   1.747  -1.810  0.00  0.00    +0.159 HD
ATOM     10  H   UNL     1      -1.066   3.795  -2.883  0.00  0.00    +0.151 HD
BRANCH   8  11
ATOM     11  C   UNL     1      -0.471   5.706  -2.174  0.00  0.00    +0.037 C 
ATOM     12  C   UNL     1       1.016   6.061  -2.121  0.00  0.00    +0.029 C 
ATOM     13  C   UNL     1       1.179   7.582  -2.150  0.00  0.00    -0.008 C 
ATOM     14  C   UNL     1       0.568   8.136  -3.439  0.00  0.00    +0.007 C 
ATOM     15  C   UNL     1      -0.919   7.782  -3.492  0.00  0.00    -0.008 C 
ATOM     16  C   UNL     1      -1.082   6.261  -3.463  0.00  0.00    +0.029 C 
ATOM     17  C   UNL     1      -1.633   8.394  -2.285  0.00  0.00    +0.007 C 
ATOM     18  C   UNL     1      -1.022   7.840  -0.996  0.00  0.00    -0.008 C 
ATOM     19  C   UNL     1       0.465   8.194  -0.943  0.00  0.00    +0.007 C 
ATOM     20  C   UNL     1      -1.185   6.319  -0.967  0.00  0.00    +0.029 C 
ENDBRANCH   8  11
ENDBRANCH   2   3
BRANCH   2  21
ATOM     21  N   UNL     1       0.881  -0.571   1.033  0.00  0.00    -0.295 NA
ATOM     22  C   UNL     1       1.044  -2.020   0.848  0.00  0.00    +0.066 C 
ATOM     23  C   UNL     1       2.011  -2.561   1.903  0.00  0.00    -0.063 C 
ATOM     24  N   UNL     1       1.482  -2.277   3.244  0.00  0.00    +0.387 N 
ATOM     25  C   UNL     1       1.349  -0.825   3.422  0.00  0.00    -0.063 C 
ATOM     26  C   UNL     1       0.376  -0.270   2.380  0.00  0.00    +0.066 C 
ATOM     27  H   UNL     1       0.578  -2.713   3.348  0.00  0.00    -0.081 HD
BRANCH  24  28
ATOM     28  C   UNL     1       2.403  -2.812   4.256  0.00  0.00    +0.019 C 
BRANCH  28  29
ATOM     29  C   UNL     1       1.802  -2.631   5.627  0.00  0.00    +0.199 C 
ATOM     30  O   UNL     1       0.715  -2.107   5.748  0.00  0.00    -0.278 OA
ATOM     31  N   UNL     1       2.474  -3.050   6.717  0.00  0.00    -0.303 N 
ATOM     32  C   UNL     1       3.770  -3.666   6.539  0.00  0.00    +0.107 C 
ATOM     33  C   UNL     1       3.599  -5.192   6.345  0.00  0.00    +0.019 C 
ATOM     34  C   UNL     1       3.197  -5.826   7.610  0.00  0.00    +0.002 C 
ATOM     35  C   UNL     1       1.848  -5.360   8.147  0.00  0.00    +0.002 C 
ATOM     36  C   UNL     1       2.038  -4.096   8.949  0.00  0.00    +0.019 C 
ATOM     37  C   UNL     1       1.858  -2.858   8.045  0.00  0.00    +0.107 C 
ENDBRANCH  28  29
ENDBRANCH  24  28
ENDBRANCH   2  21
TORSDOF 5
