REMARK  Name = ZINC39686719
REMARK  12 active torsions:
REMARK  status: ('A' for Active; 'I' for Inactive)
REMARK    1  A    between atoms: C_1  and  C_2
REMARK    2  A    between atoms: C_2  and  C_3
REMARK    3  A    between atoms: C_3  and  C_5
REMARK    4  A    between atoms: C_3  and  C_6
REMARK    5  A    between atoms: C_6  and  C_7
REMARK    6  A    between atoms: C_11  and  C_20
REMARK    7  A    between atoms: N_22  and  C_23
REMARK    8  A    between atoms: C_23  and  C_25
REMARK    9  A    between atoms: C_23  and  C_26
REMARK   10  A    between atoms: C_26  and  C_27
REMARK   11  A    between atoms: C_32  and  O_33
REMARK   12  A    between atoms: O_33  and  C_34
REMARK                            x       y       z     vdW  Elec       q    Type
REMARK                         _______ _______ _______ _____ _____    ______ ____
ROOT
ATOM      1  C   UNL     1      -2.908  -2.576  -0.257  0.00  0.00    +0.216 C 
ATOM      2  O   UNL     1      -3.848  -1.812  -0.207  0.00  0.00    -0.276 OA
ATOM      3  N   UNL     1      -3.121  -3.902  -0.367  0.00  0.00    -0.300 N 
ATOM      4  C   UNL     1      -2.110  -4.983  -0.435  0.00  0.00    +0.121 C 
ATOM      5  C   UNL     1      -2.705  -6.129   0.413  0.00  0.00    +0.100 C 
ATOM      6  C   UNL     1      -4.222  -5.880   0.400  0.00  0.00    -0.004 C 
ATOM      7  C   UNL     1      -4.422  -4.610  -0.441  0.00  0.00    +0.115 C 
ATOM      8  C   UNL     1      -4.733  -5.651   1.819  0.00  0.00    -0.010 C 
ATOM      9  C   UNL     1      -6.252  -5.462   1.786  0.00  0.00    -0.082 C 
ATOM     10  N   UNL     1      -6.882  -6.653   1.204  0.00  0.00    +0.379 N 
ATOM     11  C   UNL     1      -6.457  -6.813  -0.192  0.00  0.00    -0.082 C 
ATOM     12  C   UNL     1      -4.947  -7.059  -0.242  0.00  0.00    -0.010 C 
ATOM     13  H   UNL     1      -6.610  -7.468   1.733  0.00  0.00    -0.086 HD
ATOM     14  H   UNL     1      -7.886  -6.552   1.239  0.00  0.00    -0.086 HD
ENDROOT
BRANCH   5  15
ATOM     15  C   UNL     1      -2.385  -7.464  -0.210  0.00  0.00    +0.218 C 
ATOM     16  O   UNL     1      -2.305  -7.566  -1.416  0.00  0.00    -0.275 OA
ATOM     17  N   UNL     1      -2.188  -8.543   0.573  0.00  0.00    -0.312 N 
ATOM     18  H   UNL     1      -2.252  -8.461   1.537  0.00  0.00    +0.149 HD
BRANCH  17  19
ATOM     19  C   UNL     1      -1.876  -9.840  -0.033  0.00  0.00    +0.074 C 
ATOM     20  C   UNL     1      -0.371  -9.935  -0.290  0.00  0.00    +0.028 C 
BRANCH  19  21
ATOM     21  C   UNL     1      -2.303 -10.962   0.917  0.00  0.00    +0.060 C 
BRANCH  21  22
ATOM     22  C   UNL     1      -3.801 -10.944   1.074  0.00  0.00    -0.004 A 
ATOM     23  C   UNL     1      -4.378 -10.270   2.133  0.00  0.00    +0.007 A 
ATOM     24  C   UNL     1      -5.752 -10.254   2.278  0.00  0.00    +0.000 A 
ATOM     25  C   UNL     1      -6.554 -10.912   1.364  0.00  0.00    +0.004 A 
ATOM     26  C   UNL     1      -5.983 -11.588   0.303  0.00  0.00    +0.046 A 
ATOM     27  C   UNL     1      -4.604 -11.601   0.152  0.00  0.00    +0.123 A 
BRANCH  27  28
ATOM     28  O   UNL     1      -4.039 -12.260  -0.893  0.00  0.00    -0.495 OA
ATOM     29  C   UNL     1      -4.927 -12.913  -1.803  0.00  0.00    +0.277 C 
ENDBRANCH  27  28
ENDBRANCH  21  22
ENDBRANCH  19  21
ENDBRANCH  17  19
ENDBRANCH   5  15
BRANCH   1  30
ATOM     30  C   UNL     1      -1.500  -2.043  -0.197  0.00  0.00    +0.099 C 
BRANCH  30  31
ATOM     31  C   UNL     1      -1.537  -0.518  -0.074  0.00  0.00    -0.006 C 
ATOM     32  C   UNL     1      -2.175  -0.129   1.261  0.00  0.00    +0.008 C 
BRANCH  31  34
ATOM     33  C   UNL     1      -0.156   1.563  -0.141  0.00  0.00    +0.004 C 
ATOM     34  C   UNL     1      -0.111   0.034  -0.138  0.00  0.00    +0.000 C 
ENDBRANCH  31  34
ENDBRANCH  30  31
ENDBRANCH   1  30
TORSDOF 8
