REMARK  Name = ZINC39444280
REMARK  6 active torsions:
REMARK  status: ('A' for Active; 'I' for Inactive)
REMARK    1  A    between atoms: N_9  and  C_28
REMARK    2  A    between atoms: C_10  and  C_13
REMARK    3  A    between atoms: C_13  and  S_14
REMARK    4  A    between atoms: S_14  and  C_15
REMARK    5  A    between atoms: C_19  and  C_21
REMARK    6  A    between atoms: C_28  and  C_29
REMARK                            x       y       z     vdW  Elec       q    Type
REMARK                         _______ _______ _______ _____ _____    ______ ____
ROOT
ATOM      1  C   UNL     1      -0.017   1.375   0.010  0.00  0.00    +0.001 A 
ATOM      2  C   UNL     1       1.168   2.095   0.002  0.00  0.00    +0.002 A 
ATOM      3  C   UNL     1       2.386   1.443  -0.008  0.00  0.00    +0.024 A 
ATOM      4  C   UNL     1       2.422   0.059  -0.013  0.00  0.00    +0.041 A 
ATOM      5  C   UNL     1       1.223  -0.674  -0.014  0.00  0.00    +0.058 A 
ATOM      6  C   UNL     1       0.002  -0.004   0.002  0.00  0.00    +0.015 A 
ATOM      7  C   UNL     1       1.296  -2.146  -0.048  0.00  0.00    +0.250 C 
ATOM      8  O   UNL     1       0.292  -2.813   0.114  0.00  0.00    -0.270 OA
ATOM      9  N   UNL     1       2.484  -2.746  -0.259  0.00  0.00    -0.269 N 
ATOM     10  C   UNL     1       3.668  -1.970  -0.631  0.00  0.00    +0.172 C 
ATOM     11  N   UNL     1       3.623  -0.642  -0.009  0.00  0.00    -0.324 N 
ATOM     12  H   UNL     1       4.417  -0.260   0.397  0.00  0.00    +0.148 HD
ENDROOT
BRANCH  10  13
ATOM     13  C   UNL     1       3.713  -1.812  -2.152  0.00  0.00    +0.115 C 
BRANCH  13  14
ATOM     14  S   UNL     1       2.220  -0.948  -2.714  0.00  0.00    -0.108 S 
BRANCH  14  15
ATOM     15  C   UNL     1       2.426  -0.842  -4.513  0.00  0.00    +0.280 C 
ATOM     16  N   UNL     1       2.583  -2.186  -5.083  0.00  0.00    -0.253 NA
ATOM     17  C   UNL     1       3.737  -2.232  -5.656  0.00  0.00    +0.136 C 
ATOM     18  C   UNL     1       4.420  -0.931  -5.506  0.00  0.00    +0.087 C 
ATOM     19  N   UNL     1       3.658  -0.113  -4.839  0.00  0.00    -0.245 NA
BRANCH  18  20
ATOM     20  C   UNL     1       5.765  -0.606  -6.034  0.00  0.00    +0.002 A 
ATOM     21  C   UNL     1       6.313   0.660  -5.825  0.00  0.00    +0.011 A 
ATOM     22  C   UNL     1       7.567   0.956  -6.318  0.00  0.00    +0.016 A 
ATOM     23  C   UNL     1       8.281   0.000  -7.021  0.00  0.00    +0.018 A 
ATOM     24  C   UNL     1       7.742  -1.258  -7.232  0.00  0.00    +0.016 A 
ATOM     25  C   UNL     1       6.492  -1.567  -6.738  0.00  0.00    +0.011 A 
ATOM     26 BR   UNL     1       9.998   0.414  -7.695  0.00  0.00    -0.050 Br
ENDBRANCH  18  20
ENDBRANCH  14  15
ENDBRANCH  13  14
ENDBRANCH  10  13
BRANCH   9  27
ATOM     27  C   UNL     1       2.593  -4.199  -0.113  0.00  0.00    +0.205 C 
BRANCH  27  28
ATOM     28  C   UNL     1       2.304  -4.860  -1.437  0.00  0.00    +0.228 C 
ATOM     29  O   UNL     1       2.034  -4.183  -2.406  0.00  0.00    -0.274 OA
ATOM     30  N   UNL     1       2.346  -6.203  -1.543  0.00  0.00    -0.328 N 
ATOM     31  H   UNL     1       2.562  -6.744  -0.768  0.00  0.00    +0.145 HD
ATOM     32  H   UNL     1       2.160  -6.628  -2.395  0.00  0.00    +0.145 HD
ENDBRANCH  27  28
ENDBRANCH   9  27
TORSDOF 6
