REMARK  Name = ZINC63478735
REMARK  6 active torsions:
REMARK  status: ('A' for Active; 'I' for Inactive)
REMARK    1  A    between atoms: C_1  and  C_2
REMARK    2  A    between atoms: C_2  and  N_3
REMARK    3  A    between atoms: C_16  and  C_18
REMARK    4  A    between atoms: C_20  and  O_36
REMARK    5  A    between atoms: N_22  and  C_35
REMARK    6  A    between atoms: N_25  and  C_28
REMARK                            x       y       z     vdW  Elec       q    Type
REMARK                         _______ _______ _______ _____ _____    ______ ____
ROOT
ATOM      1  C   UNL     1      -0.756  -2.684   1.430  0.00  0.00    +0.112 C 
ATOM      2  C   UNL     1      -1.077  -3.969   0.664  0.00  0.00    +0.216 C 
ATOM      3  N   UNL     1      -2.514  -4.237   0.738  0.00  0.00    -0.262 N 
ATOM      4  C   UNL     1      -3.214  -3.950   1.847  0.00  0.00    +0.317 C 
ATOM      5  O   UNL     1      -4.382  -4.279   1.914  0.00  0.00    -0.252 OA
ATOM      6  N   UNL     1      -2.654  -3.309   2.886  0.00  0.00    -0.194 N 
ATOM      7  C   UNL     1      -1.449  -2.717   2.769  0.00  0.00    +0.233 C 
ATOM      8  O   UNL     1      -0.923  -2.213   3.738  0.00  0.00    -0.274 OA
ATOM      9  C   UNL     1      -3.200  -4.824  -0.416  0.00  0.00    +0.136 C 
ENDROOT
BRANCH   1  22
ATOM     10  N   UNL     1      -1.032  -0.245   1.408  0.00  0.00    +0.384 N 
ATOM     11  C   UNL     1      -1.591  -0.344   2.758  0.00  0.00    -0.074 C 
ATOM     12  C   UNL     1      -3.127  -0.446   2.695  0.00  0.00    +0.015 C 
ATOM     13  C   UNL     1      -3.432  -1.552   1.715  0.00  0.00    -0.042 C 
ATOM     14  C   UNL     1      -4.229  -2.608   1.777  0.00  0.00    -0.001 A 
ATOM     15  C   UNL     1      -5.229  -3.027   2.773  0.00  0.00    +0.010 A 
ATOM     16  C   UNL     1      -5.859  -4.207   2.530  0.00  0.00    +0.001 A 
ATOM     17  C   UNL     1      -5.599  -5.003   1.410  0.00  0.00    +0.002 A 
ATOM     18  C   UNL     1      -4.704  -4.689   0.439  0.00  0.00    +0.026 A 
ATOM     19  C   UNL     1      -3.986  -3.466   0.577  0.00  0.00    +0.043 A 
ATOM     20  N   UNL     1      -3.106  -2.914  -0.207  0.00  0.00    -0.379 N 
ATOM     21  C   UNL     1      -2.745  -1.615   0.354  0.00  0.00    +0.093 C 
ATOM     22  C   UNL     1      -1.247  -1.476   0.630  0.00  0.00    -0.026 C 
ATOM     23  H   UNL     1      -2.751  -3.299  -1.023  0.00  0.00    +0.160 HD
ATOM     24  H   UNL     1      -1.469   0.527   0.928  0.00  0.00    -0.081 HD
BRANCH  10  26
ATOM     25  C   UNL     1       0.645   1.352   2.205  0.00  0.00    -0.017 C 
ATOM     26  C   UNL     1       0.412   0.011   1.507  0.00  0.00    -0.082 C 
ENDBRANCH  10  26
ENDBRANCH   1  22
BRANCH   6  27
ATOM     27  C   UNL     1      -3.333  -3.254   4.112  0.00  0.00    +0.045 A 
ATOM     28  C   UNL     1      -3.015  -4.150   5.124  0.00  0.00    +0.025 A 
ATOM     29  C   UNL     1      -3.685  -4.094   6.330  0.00  0.00    +0.022 A 
ATOM     30  C   UNL     1      -4.674  -3.147   6.530  0.00  0.00    +0.041 A 
ATOM     31  C   UNL     1      -4.993  -2.253   5.523  0.00  0.00    +0.022 A 
ATOM     32  C   UNL     1      -4.321  -2.301   4.318  0.00  0.00    +0.025 A 
ATOM     33 CL   UNL     1      -5.516  -3.080   8.047  0.00  0.00    -0.084 Cl
ENDBRANCH   6  27
BRANCH   2  34
ATOM     34  O   UNL     1      -0.690  -3.818  -0.703  0.00  0.00    -0.373 OA
ATOM     35  H   UNL     1      -0.864  -4.596  -1.250  0.00  0.00    +0.212 HD
ENDBRANCH   2  34
TORSDOF 4
