REMARK  Name = ZINC17540644
REMARK  8 active torsions:
REMARK  status: ('A' for Active; 'I' for Inactive)
REMARK    1  A    between atoms: C_1  and  C_2
REMARK    2  A    between atoms: C_2  and  C_4
REMARK    3  A    between atoms: C_2  and  S_18
REMARK    4  A    between atoms: C_7  and  C_9
REMARK    5  A    between atoms: C_12  and  N_15
REMARK    6  A    between atoms: S_18  and  C_19
REMARK    7  A    between atoms: C_22  and  C_25
REMARK    8  A    between atoms: N_23  and  N_24
REMARK                            x       y       z     vdW  Elec       q    Type
REMARK                         _______ _______ _______ _____ _____    ______ ____
ROOT
ATOM      1  S   UNL     1      -0.003   1.750   0.213  0.00  0.00    -0.072 S 
ENDROOT
BRANCH   1   2
ATOM      2  C   UNL     1       0.010  -0.007   0.081  0.00  0.00    +0.209 A 
ATOM      3  N   UNL     1       1.066  -0.768  -0.095  0.00  0.00    -0.121 NA
ATOM      4  N   UNL     1       0.717  -2.004  -0.147  0.00  0.00    -0.127 NA
ATOM      5  C   UNL     1      -0.585  -2.108  -0.006  0.00  0.00    +0.183 A 
ATOM      6  N   UNL     1      -1.077  -0.832   0.150  0.00  0.00    -0.224 N 
BRANCH   5   7
ATOM      7  C   UNL     1      -1.371  -3.359  -0.009  0.00  0.00    +0.039 A 
ATOM      8  C   UNL     1      -2.537  -3.452  -0.771  0.00  0.00    +0.014 A 
ATOM      9  C   UNL     1      -3.264  -4.624  -0.774  0.00  0.00    +0.021 A 
ATOM     10  C   UNL     1      -2.847  -5.704  -0.013  0.00  0.00    +0.042 A 
ATOM     11  C   UNL     1      -1.695  -5.617   0.749  0.00  0.00    +0.040 A 
ATOM     12  C   UNL     1      -0.955  -4.451   0.756  0.00  0.00    +0.053 A 
ATOM     13 CL   UNL     1       0.489  -4.343   1.713  0.00  0.00    -0.083 Cl
ATOM     14 CL   UNL     1      -3.772  -7.173  -0.017  0.00  0.00    -0.083 Cl
ENDBRANCH   5   7
BRANCH   6  15
ATOM     15  N   UNL     1      -2.380  -0.467   0.333  0.00  0.00    -0.295 N 
ATOM     16  H   UNL     1      -2.860  -0.384  -0.551  0.00  0.00    +0.163 HD
ATOM     17  H   UNL     1      -2.856  -1.116   0.942  0.00  0.00    +0.163 HD
ENDBRANCH   6  15
ENDBRANCH   1   2
BRANCH   1  19
ATOM     18  C   UNL     1       2.522   1.493   1.225  0.00  0.00    +0.029 C 
ATOM     19  C   UNL     1       1.766   2.091   0.036  0.00  0.00    +0.139 C 
BRANCH  19  20
ATOM     20  C   UNL     1       1.990   3.580  -0.004  0.00  0.00    +0.231 A 
ATOM     21  N   UNL     1       1.439   4.463   0.783  0.00  0.00    -0.111 NA
ATOM     22  N   UNL     1       1.857   5.638   0.470  0.00  0.00    -0.107 NA
ATOM     23  C   UNL     1       2.688   5.547  -0.542  0.00  0.00    +0.248 A 
ATOM     24  O   UNL     1       2.787   4.241  -0.861  0.00  0.00    -0.419 OA
BRANCH  23  25
ATOM     25  C   UNL     1       3.386   6.667  -1.208  0.00  0.00    +0.039 A 
ATOM     26  C   UNL     1       4.252   6.419  -2.274  0.00  0.00    +0.015 A 
ATOM     27  C   UNL     1       4.897   7.470  -2.894  0.00  0.00    +0.033 A 
ATOM     28  C   UNL     1       4.695   8.766  -2.454  0.00  0.00    +0.126 A 
ATOM     29  C   UNL     1       3.842   9.018  -1.394  0.00  0.00    +0.033 A 
ATOM     30  C   UNL     1       3.187   7.977  -0.769  0.00  0.00    +0.015 A 
BRANCH  28  31
ATOM     31  N   UNL     1       5.394   9.887  -3.120  0.00  0.00    +0.056 N 
ATOM     32  O   UNL     1       5.219  11.029  -2.734  0.00  0.00    -0.126 OA
ATOM     33  O   UNL     1       6.146   9.668  -4.053  0.00  0.00    -0.126 OA
ENDBRANCH  28  31
ENDBRANCH  23  25
ENDBRANCH  19  20
ENDBRANCH   1  19
TORSDOF 7
