REMARK  Name = ZINC40374128
REMARK  10 active torsions:
REMARK  status: ('A' for Active; 'I' for Inactive)
REMARK    1  A    between atoms: C_1  and  C_2
REMARK    2  A    between atoms: C_2  and  C_3
REMARK    3  A    between atoms: C_6  and  C_9
REMARK    4  A    between atoms: C_9  and  C_11
REMARK    5  A    between atoms: C_9  and  N_29
REMARK    6  A    between atoms: C_11  and  N_12
REMARK    7  A    between atoms: N_12  and  C_13
REMARK    8  A    between atoms: C_14  and  C_27
REMARK    9  A    between atoms: C_16  and  C_18
REMARK   10  A    between atoms: C_23  and  N_24
REMARK                            x       y       z     vdW  Elec       q    Type
REMARK                         _______ _______ _______ _____ _____    ______ ____
ROOT
ATOM      1  N   UNL     1      -4.936  -4.169   1.249  0.00  0.00    -0.314 N 
ATOM      2  H   UNL     1      -4.502  -3.564   1.871  0.00  0.00    +0.149 HD
ENDROOT
BRANCH   1   3
ATOM      3  C   UNL     1      -4.566  -5.495   1.206  0.00  0.00    +0.225 A 
ATOM      4  C   UNL     1      -3.599  -6.111   1.988  0.00  0.00    +0.201 A 
ATOM      5  N   UNL     1      -3.562  -7.417   1.614  0.00  0.00    -0.196 NA
ATOM      6  C   UNL     1      -4.443  -7.605   0.666  0.00  0.00    +0.233 A 
ATOM      7  O   UNL     1      -5.075  -6.446   0.401  0.00  0.00    -0.420 OA
BRANCH   6   8
ATOM      8  C   UNL     1      -4.708  -8.894  -0.008  0.00  0.00    +0.067 A 
ATOM      9  C   UNL     1      -5.019 -10.027   0.745  0.00  0.00    +0.015 A 
ATOM     10  C   UNL     1      -5.266 -11.227   0.111  0.00  0.00    +0.001 A 
ATOM     11  C   UNL     1      -5.207 -11.308  -1.270  0.00  0.00    +0.002 A 
ATOM     12  C   UNL     1      -4.900 -10.188  -2.022  0.00  0.00    +0.033 A 
ATOM     13  C   UNL     1      -4.656  -8.981  -1.400  0.00  0.00    +0.138 A 
BRANCH  13  14
ATOM     14  N   UNL     1      -4.333  -7.782  -2.207  0.00  0.00    +0.057 N 
ATOM     15  O   UNL     1      -4.380  -7.835  -3.414  0.00  0.00    -0.126 OA
ATOM     16  O   UNL     1      -4.023  -6.750  -1.659  0.00  0.00    -0.126 OA
ENDBRANCH  13  14
ENDBRANCH   6   8
BRANCH   4  17
ATOM     17  C   UNL     1      -2.795  -5.489   2.996  0.00  0.00    +0.124 C 
ATOM     18  N   UNL     1      -2.156  -4.996   3.796  0.00  0.00    -0.189 NA
ENDBRANCH   4  17
ENDBRANCH   1   3
BRANCH   1  19
ATOM     19  C   UNL     1      -5.985  -3.672   0.355  0.00  0.00    +0.094 C 
BRANCH  19  20
ATOM     20  C   UNL     1      -6.107  -2.154   0.506  0.00  0.00    -0.020 C 
BRANCH  20  24
ATOM     21  C   UNL     1      -2.512  -0.296  -0.862  0.00  0.00    -0.048 A 
ATOM     22  C   UNL     1      -2.723  -0.481   0.492  0.00  0.00    +0.004 A 
ATOM     23  C   UNL     1      -3.886  -1.082   0.934  0.00  0.00    +0.002 A 
ATOM     24  C   UNL     1      -4.839  -1.498   0.024  0.00  0.00    -0.059 A 
ATOM     25  C   UNL     1      -4.629  -1.312  -1.330  0.00  0.00    +0.002 A 
ATOM     26  C   UNL     1      -3.468  -0.707  -1.772  0.00  0.00    +0.004 A 
BRANCH  21  28
ATOM     27  C   UNL     1      -1.451   1.873  -1.424  0.00  0.00    +0.009 C 
ATOM     28  C   UNL     1      -1.244   0.360  -1.345  0.00  0.00    +0.032 C 
ENDBRANCH  21  28
ENDBRANCH  20  24
BRANCH  20  29
ATOM     29  N   UNL     1      -7.242  -1.672  -0.291  0.00  0.00    +0.385 N 
ATOM     30  C   UNL     1      -8.511  -2.245   0.226  0.00  0.00    -0.078 C 
ATOM     31  C   UNL     1      -9.585  -1.258  -0.297  0.00  0.00    -0.020 C 
ATOM     32  C   UNL     1      -8.882   0.114  -0.173  0.00  0.00    -0.020 C 
ATOM     33  C   UNL     1      -7.376  -0.206  -0.154  0.00  0.00    -0.078 C 
ATOM     34  H   UNL     1      -7.117  -1.921  -1.261  0.00  0.00    -0.081 HD
ENDBRANCH  20  29
ENDBRANCH  19  20
ENDBRANCH   1  19
TORSDOF 9
