REMARK  Name = ZINC02273589
REMARK  5 active torsions:
REMARK  status: ('A' for Active; 'I' for Inactive)
REMARK    1  A    between atoms: C_1  and  C_2
REMARK    2  A    between atoms: C_5  and  N_8
REMARK    3  A    between atoms: N_15  and  C_16
REMARK    4  A    between atoms: C_16  and  C_17
REMARK    5  A    between atoms: C_17  and  O_18
REMARK                            x       y       z     vdW  Elec       q    Type
REMARK                         _______ _______ _______ _____ _____    ______ ____
ROOT
ATOM      1  N   UNL     1       4.682   5.438   0.040  0.00  0.00    -0.249 N 
ATOM      2  C   UNL     1       3.524   6.042  -0.303  0.00  0.00    +0.264 A 
ATOM      3  O   UNL     1       3.498   7.230  -0.579  0.00  0.00    -0.267 OA
ATOM      4  C   UNL     1       2.353   5.274  -0.337  0.00  0.00    +0.050 A 
ATOM      5  C   UNL     1       2.426   3.926  -0.028  0.00  0.00    +0.084 A 
ATOM      6  N   UNL     1       3.599   3.386   0.326  0.00  0.00    -0.215 NA
ATOM      7  C   UNL     1       4.696   4.113   0.360  0.00  0.00    +0.204 A 
ATOM      8  N   UNL     1       5.879   3.525   0.724  0.00  0.00    -0.312 N 
ATOM      9  C   UNL     1       1.200   3.101  -0.099  0.00  0.00    +0.004 A 
ATOM     10  C   UNL     1       1.141   1.848   0.504  0.00  0.00    +0.010 A 
ATOM     11  C   UNL     1      -0.019   1.104   0.427  0.00  0.00    +0.001 A 
ATOM     12  C   UNL     1      -1.118   1.601  -0.252  0.00  0.00    +0.000 A 
ATOM     13  C   UNL     1      -1.063   2.844  -0.856  0.00  0.00    +0.004 A 
ATOM     14  C   UNL     1       0.095   3.593  -0.795  0.00  0.00    -0.037 A 
ATOM     15  C   UNL     1       0.180   4.920  -1.500  0.00  0.00    +0.047 C 
ATOM     16  C   UNL     1       1.034   5.902  -0.701  0.00  0.00    +0.007 C 
ATOM     17  C   UNL     1       0.291   6.295   0.580  0.00  0.00    +0.012 C 
ATOM     18  C   UNL     1      -1.047   6.939   0.215  0.00  0.00    +0.001 C 
ATOM     19  C   UNL     1      -0.797   8.191  -0.629  0.00  0.00    +0.000 C 
ATOM     20  C   UNL     1      -0.052   7.802  -1.907  0.00  0.00    +0.001 C 
ATOM     21  C   UNL     1       1.286   7.157  -1.542  0.00  0.00    +0.012 C 
ATOM     22  H   UNL     1       6.692   4.052   0.759  0.00  0.00    +0.149 HD
ENDROOT
BRANCH   1  27
ATOM     23  C   UNL     1       9.503   8.430   0.157  0.00  0.00    +0.044 C 
ATOM     24  C   UNL     1       8.223   7.635   0.126  0.00  0.00    -0.050 A 
ATOM     25  C   UNL     1       7.837   6.993  -1.037  0.00  0.00    +0.005 A 
ATOM     26  C   UNL     1       6.664   6.264  -1.068  0.00  0.00    +0.026 A 
ATOM     27  C   UNL     1       5.872   6.176   0.069  0.00  0.00    +0.053 A 
ATOM     28  C   UNL     1       6.260   6.825   1.234  0.00  0.00    +0.026 A 
ATOM     29  C   UNL     1       7.436   7.549   1.260  0.00  0.00    +0.005 A 
ENDBRANCH   1  27
BRANCH   8  30
ATOM     30  C   UNL     1       5.915   2.099   1.060  0.00  0.00    +0.132 C 
BRANCH  30  31
ATOM     31  C   UNL     1       7.344   1.698   1.429  0.00  0.00    +0.174 C 
BRANCH  31  32
ATOM     32  O   UNL     1       7.737   2.378   2.623  0.00  0.00    -0.393 OA
ATOM     33  H   UNL     1       8.634   2.171   2.917  0.00  0.00    +0.209 HD
ENDBRANCH  31  32
ENDBRANCH  30  31
ENDBRANCH   8  30
TORSDOF 4
