REMARK  Name = ZINC04016176
REMARK  14 active torsions:
REMARK  status: ('A' for Active; 'I' for Inactive)
REMARK    1  A    between atoms: C_1  and  C_2
REMARK    2  A    between atoms: C_3  and  C_34
REMARK    3  A    between atoms: C_5  and  C_33
REMARK    4  A    between atoms: C_8  and  C_32
REMARK    5  A    between atoms: C_21  and  C_31
REMARK    6  A    between atoms: C_24  and  O_27
REMARK    7  A    between atoms: O_27  and  C_28
REMARK    8  A    between atoms: C_28  and  C_30
REMARK    9  A    between atoms: C_34  and  C_35
REMARK   10  A    between atoms: C_35  and  C_36
REMARK   11  A    between atoms: C_36  and  C_38
REMARK   12  A    between atoms: C_36  and  C_39
REMARK   13  A    between atoms: C_39  and  N_40
REMARK   14  A    between atoms: C_41  and  C_43
REMARK                            x       y       z     vdW  Elec       q    Type
REMARK                         _______ _______ _______ _____ _____    ______ ____
ROOT
ATOM      1  C   UNL     1      -0.851   4.566  -4.166  0.00  0.00    +0.043 C 
ATOM      2  C   UNL     1      -1.615   4.732  -2.878  0.00  0.00    -0.028 C 
ATOM      3  C   UNL     1      -1.978   5.872  -2.332  0.00  0.00    +0.098 C 
ATOM      4  O   UNL     1      -2.643   5.728  -1.165  0.00  0.00    -0.490 OA
ATOM      5  C   UNL     1      -3.102   4.368  -1.049  0.00  0.00    +0.115 C 
ATOM      6  C   UNL     1      -2.117   3.613  -1.960  0.00  0.00    +0.068 C 
ATOM      7  C   UNL     1      -0.940   3.148  -1.074  0.00  0.00    -0.019 C 
ATOM      8  C   UNL     1      -0.875   1.632  -1.128  0.00  0.00    +0.008 C 
ATOM      9  C   UNL     1      -0.050   1.060   0.015  0.00  0.00    +0.005 C 
ATOM     10  C   UNL     1      -0.694   1.458   1.346  0.00  0.00    +0.003 C 
ATOM     11  C   UNL     1      -0.683   2.967   1.492  0.00  0.00    +0.000 C 
ATOM     12  C   UNL     1      -1.221   3.712   0.306  0.00  0.00    +0.003 C 
ATOM     13  C   UNL     1      -2.757   3.859   0.374  0.00  0.00    +0.052 C 
ATOM     14  C   UNL     1      -1.455   3.366   2.757  0.00  0.00    +0.031 C 
ATOM     15  C   UNL     1      -0.850   2.584   3.929  0.00  0.00    -0.027 C 
ATOM     16  C   UNL     1      -0.202   1.470   3.806  0.00  0.00    -0.064 C 
ATOM     17  C   UNL     1       0.077   0.802   2.486  0.00  0.00    -0.008 C 
ATOM     18  C   UNL     1       1.579   0.833   2.216  0.00  0.00    +0.015 C 
ATOM     19  C   UNL     1       2.350   0.856   3.535  0.00  0.00    +0.046 C 
ATOM     20  C   UNL     1       1.628   0.043   4.608  0.00  0.00    +0.180 C 
ATOM     21  C   UNL     1       0.355   0.784   5.043  0.00  0.00    +0.075 C 
ATOM     22  C   UNL     1      -0.365  -0.659   2.592  0.00  0.00    +0.016 C 
ATOM     23  C   UNL     1       0.367   3.736  -1.611  0.00  0.00    +0.012 C 
ATOM     24  C   UNL     1      -4.575   4.186  -1.420  0.00  0.00    +0.056 C 
ENDROOT
BRANCH  20  25
ATOM     25  O   UNL     1       1.270  -1.258   4.071  0.00  0.00    -0.461 OA
BRANCH  25  26
ATOM     26  C   UNL     1       1.215  -2.281   4.938  0.00  0.00    +0.304 C 
ATOM     27  O   UNL     1       1.457  -2.095   6.107  0.00  0.00    -0.251 OA
ATOM     28  C   UNL     1       0.851  -3.660   4.454  0.00  0.00    +0.136 C 
ENDBRANCH  25  26
ENDBRANCH  20  25
BRANCH   3  29
ATOM     29  C   UNL     1      -1.680   7.213  -2.951  0.00  0.00    +0.074 C 
BRANCH  29  30
ATOM     30  C   UNL     1      -2.882   7.670  -3.780  0.00  0.00    +0.012 C 
BRANCH  30  31
ATOM     31  C   UNL     1      -2.580   9.032  -4.408  0.00  0.00    +0.003 C 
ATOM     32  C   UNL     1      -1.430   8.889  -5.407  0.00  0.00    +0.009 C 
BRANCH  31  33
ATOM     33  C   UNL     1      -3.825   9.547  -5.133  0.00  0.00    +0.107 C 
BRANCH  33  34
ATOM     34  N   UNL     1      -3.574  10.902  -5.632  0.00  0.00    -0.315 N 
ATOM     35  C   UNL     1      -4.537  11.559  -6.308  0.00  0.00    +0.210 C 
ATOM     36  O   UNL     1      -5.611  11.030  -6.503  0.00  0.00    -0.276 OA
ATOM     37  C   UNL     1      -4.279  12.953  -6.822  0.00  0.00    +0.109 C 
ATOM     38  H   UNL     1      -2.716  11.325  -5.476  0.00  0.00    +0.149 HD
ENDBRANCH  33  34
ENDBRANCH  31  33
ENDBRANCH  30  31
ENDBRANCH  29  30
ENDBRANCH   3  29
TORSDOF 7
