REMARK  Name = ZINC35703810
REMARK  6 active torsions:
REMARK  status: ('A' for Active; 'I' for Inactive)
REMARK    1  A    between atoms: C_4  and  C_7
REMARK    2  A    between atoms: C_7  and  N_8
REMARK    3  A    between atoms: C_11  and  N_14
REMARK    4  A    between atoms: C_15  and  C_17
REMARK    5  A    between atoms: C_21  and  C_33
REMARK    6  A    between atoms: C_24  and  C_26
REMARK                            x       y       z     vdW  Elec       q    Type
REMARK                         _______ _______ _______ _____ _____    ______ ____
ROOT
ATOM      1  C   UNL     1       7.444  -3.786   6.524  0.00  0.00    +0.173 C 
ATOM      2  C   UNL     1       5.984  -3.781   7.064  0.00  0.00    +0.103 C 
ATOM      3  S   UNL     1       5.538  -5.528   6.653  0.00  0.00    -0.131 S 
ATOM      4  C   UNL     1       7.225  -6.247   6.836  0.00  0.00    +0.166 C 
ATOM      5  N   UNL     1       8.098  -5.060   6.810  0.00  0.00    -0.269 N 
ATOM      6  C   UNL     1       9.423  -5.148   7.037  0.00  0.00    +0.251 C 
ATOM      7  O   UNL     1      10.086  -4.136   7.164  0.00  0.00    -0.270 OA
ENDROOT
BRANCH   6   8
ATOM      8  C   UNL     1      10.071  -6.472   7.131  0.00  0.00    +0.072 A 
ATOM      9  C   UNL     1       9.294  -7.625   7.255  0.00  0.00    +0.016 A 
ATOM     10  C   UNL     1       9.905  -8.858   7.343  0.00  0.00    +0.001 A 
ATOM     11  C   UNL     1      11.285  -8.956   7.308  0.00  0.00    +0.003 A 
ATOM     12  C   UNL     1      12.063  -7.820   7.186  0.00  0.00    +0.039 A 
ATOM     13  C   UNL     1      11.465  -6.577   7.091  0.00  0.00    +0.135 A 
ATOM     14  F   UNL     1      12.225  -5.467   6.966  0.00  0.00    -0.205 F 
ENDBRANCH   6   8
BRANCH   4  15
ATOM     15  C   UNL     1       7.538  -7.169   5.686  0.00  0.00    -0.017 A 
ATOM     16  C   UNL     1       8.512  -6.822   4.768  0.00  0.00    +0.006 A 
ATOM     17  C   UNL     1       8.800  -7.668   3.713  0.00  0.00    +0.000 A 
ATOM     18  C   UNL     1       8.114  -8.861   3.577  0.00  0.00    +0.000 A 
ATOM     19  C   UNL     1       7.141  -9.208   4.495  0.00  0.00    +0.000 A 
ATOM     20  C   UNL     1       6.857  -8.364   5.553  0.00  0.00    +0.006 A 
ENDBRANCH   4  15
BRANCH   1  22
ATOM     21  N   UNL     1       6.887  -2.435   4.528  0.00  0.00    -0.311 N 
ATOM     22  C   UNL     1       7.423  -3.564   5.034  0.00  0.00    +0.235 C 
ATOM     23  O   UNL     1       7.887  -4.401   4.289  0.00  0.00    -0.274 OA
ATOM     24  H   UNL     1       6.516  -1.766   5.124  0.00  0.00    +0.149 HD
BRANCH  21  28
ATOM     25  N   UNL     1       7.043  -0.366   0.860  0.00  0.00    +0.382 N 
ATOM     26  C   UNL     1       5.758  -0.978   1.218  0.00  0.00    -0.077 C 
ATOM     27  C   UNL     1       5.725  -1.262   2.721  0.00  0.00    +0.003 C 
ATOM     28  C   UNL     1       6.866  -2.219   3.080  0.00  0.00    +0.069 C 
ATOM     29  C   UNL     1       8.195  -1.602   2.635  0.00  0.00    +0.003 C 
ATOM     30  C   UNL     1       8.137  -1.305   1.134  0.00  0.00    -0.077 C 
ATOM     31  H   UNL     1       7.177   0.473   1.405  0.00  0.00    -0.081 HD
BRANCH  25  32
ATOM     32  C   UNL     1       7.040  -0.024  -0.569  0.00  0.00    -0.043 C 
BRANCH  32  36
ATOM     33  C   UNL     1       4.087   2.971  -1.312  0.00  0.00    +0.000 A 
ATOM     34  C   UNL     1       5.379   3.340  -0.989  0.00  0.00    +0.000 A 
ATOM     35  C   UNL     1       6.335   2.371  -0.748  0.00  0.00    +0.002 A 
ATOM     36  C   UNL     1       5.998   1.033  -0.830  0.00  0.00    -0.064 A 
ATOM     37  C   UNL     1       4.705   0.664  -1.153  0.00  0.00    +0.002 A 
ATOM     38  C   UNL     1       3.750   1.633  -1.395  0.00  0.00    +0.000 A 
ENDBRANCH  32  36
ENDBRANCH  25  32
ENDBRANCH  21  28
ENDBRANCH   1  22
TORSDOF 6
