REMARK  Name = ZINC13063749
REMARK  12 active torsions:
REMARK  status: ('A' for Active; 'I' for Inactive)
REMARK    1  A    between atoms: C_1  and  C_2
REMARK    2  A    between atoms: C_2  and  C_3
REMARK    3  A    between atoms: C_10  and  C_15
REMARK    4  A    between atoms: C_15  and  N_63
REMARK    5  A    between atoms: C_16  and  C_17
REMARK    6  A    between atoms: C_16  and  N_63
REMARK    7  A    between atoms: C_22  and  C_24
REMARK    8  A    between atoms: C_22  and  C_26
REMARK    9  A    between atoms: C_22  and  N_63
REMARK   10  A    between atoms: C_24  and  C_25
REMARK   11  A    between atoms: N_30  and  C_31
REMARK   12  A    between atoms: C_31  and  C_32
REMARK                            x       y       z     vdW  Elec       q    Type
REMARK                         _______ _______ _______ _____ _____    ______ ____
ROOT
ATOM      1  N   UNL     1      -2.928   4.613   1.620  0.00  0.00    +0.394 N 
ATOM      2  H   UNL     1      -2.298   5.139   2.236  0.00  0.00    -0.080 HD
ENDROOT
BRANCH   1   3
ATOM      3  C   UNL     1      -2.192   4.227   0.398  0.00  0.00    -0.036 C 
BRANCH   3  11
ATOM      4  C   UNL     1       2.182   0.094   1.837  0.00  0.00    -0.047 A 
ATOM      5  C   UNL     1       3.200   1.013   2.051  0.00  0.00    +0.005 A 
ATOM      6  C   UNL     1       2.971   2.364   1.903  0.00  0.00    +0.026 A 
ATOM      7  C   UNL     1       1.707   2.813   1.535  0.00  0.00    +0.049 A 
ATOM      8  C   UNL     1       0.677   1.878   1.319  0.00  0.00    -0.001 A 
ATOM      9  C   UNL     1       0.933   0.512   1.475  0.00  0.00    +0.013 A 
ATOM     10  C   UNL     1      -0.651   2.361   0.938  0.00  0.00    +0.017 A 
ATOM     11  C   UNL     1      -0.838   3.697   0.795  0.00  0.00    +0.001 A 
ATOM     12  C   UNL     1       0.228   4.592   1.023  0.00  0.00    +0.251 A 
ATOM     13  O   UNL     1       0.037   5.789   0.895  0.00  0.00    -0.268 OA
ATOM     14  N   UNL     1       1.450   4.159   1.379  0.00  0.00    -0.322 N 
ATOM     15  H   UNL     1       2.161   4.801   1.528  0.00  0.00    +0.169 HD
BRANCH   4  17
ATOM     16  C   UNL     1       2.923  -1.966   0.671  0.00  0.00    +0.009 C 
ATOM     17  C   UNL     1       2.457  -1.378   2.005  0.00  0.00    +0.032 C 
ENDBRANCH   4  17
ENDBRANCH   3  11
ENDBRANCH   1   3
BRANCH   1  18
ATOM     18  C   UNL     1      -3.396   3.404   2.330  0.00  0.00    -0.002 C 
BRANCH  18  19
ATOM     19  C   UNL     1      -3.791   3.790   3.733  0.00  0.00    +0.089 A 
ATOM     20  C   UNL     1      -5.038   4.079   4.147  0.00  0.00    +0.042 A 
ATOM     21  C   UNL     1      -4.950   4.385   5.525  0.00  0.00    +0.041 A 
ATOM     22  C   UNL     1      -3.656   4.265   5.870  0.00  0.00    +0.195 A 
ATOM     23  O   UNL     1      -2.959   3.899   4.781  0.00  0.00    -0.470 OA
ENDBRANCH  18  19
ENDBRANCH   1  18
BRANCH   1  24
ATOM     24  C   UNL     1      -4.080   5.469   1.266  0.00  0.00    +0.003 C 
BRANCH  24  25
ATOM     25  C   UNL     1      -4.887   4.838   0.161  0.00  0.00    +0.139 A 
ATOM     26  N   UNL     1      -4.420   4.281  -0.929  0.00  0.00    -0.115 NA
ATOM     27  N   UNL     1      -5.421   3.860  -1.622  0.00  0.00    -0.023 NA
ATOM     28  N   UNL     1      -6.515   4.134  -1.002  0.00  0.00    -0.044 NA
ATOM     29  N   UNL     1      -6.228   4.733   0.104  0.00  0.00    -0.223 N 
BRANCH  29  30
ATOM     30  C   UNL     1      -7.181   5.211   1.109  0.00  0.00    +0.221 C 
BRANCH  30  31
ATOM     31  C   UNL     1      -7.689   6.573   0.710  0.00  0.00    +0.126 A 
ATOM     32  C   UNL     1      -8.768   6.817  -0.055  0.00  0.00    +0.046 A 
ATOM     33  C   UNL     1      -8.878   8.222  -0.172  0.00  0.00    +0.041 A 
ATOM     34  C   UNL     1      -7.855   8.752   0.523  0.00  0.00    +0.195 A 
ATOM     35  O   UNL     1      -7.139   7.748   1.055  0.00  0.00    -0.466 OA
ENDBRANCH  30  31
ENDBRANCH  29  30
ENDBRANCH  24  25
BRANCH  24  36
ATOM     36  C   UNL     1      -3.558   6.831   0.804  0.00  0.00    -0.011 C 
ATOM     37  C   UNL     1      -2.811   7.508   1.954  0.00  0.00    +0.002 C 
ENDBRANCH  24  36
ENDBRANCH   1  24
TORSDOF 10
