REMARK  Name = ZINC13164464
REMARK  8 active torsions:
REMARK  status: ('A' for Active; 'I' for Inactive)
REMARK    1  A    between atoms: C_1  and  C_2
REMARK    2  A    between atoms: N_5  and  S_11
REMARK    3  A    between atoms: C_7  and  C_10
REMARK    4  A    between atoms: S_11  and  C_14
REMARK    5  A    between atoms: C_17  and  C_20
REMARK    6  A    between atoms: N_22  and  C_23
REMARK    7  A    between atoms: C_23  and  C_24
REMARK    8  A    between atoms: C_24  and  N_72
REMARK                            x       y       z     vdW  Elec       q    Type
REMARK                         _______ _______ _______ _____ _____    ______ ____
ROOT
ATOM      1  C   UNL     1       3.770  -3.704   0.417  0.00  0.00    +0.244 C 
ATOM      2  O   UNL     1       3.420  -4.587   1.176  0.00  0.00    -0.270 OA
ATOM      3  N   UNL     1       3.624  -2.413   0.772  0.00  0.00    -0.313 N 
ATOM      4  H   UNL     1       3.904  -1.708   0.166  0.00  0.00    +0.149 HD
ENDROOT
BRANCH   1   8
ATOM      5  C   UNL     1       5.452  -4.693  -3.356  0.00  0.00    +0.106 A 
ATOM      6  C   UNL     1       5.055  -5.700  -2.494  0.00  0.00    +0.029 A 
ATOM      7  C   UNL     1       4.508  -5.385  -1.267  0.00  0.00    +0.015 A 
ATOM      8  C   UNL     1       4.356  -4.048  -0.896  0.00  0.00    +0.037 A 
ATOM      9  C   UNL     1       4.753  -3.038  -1.773  0.00  0.00    +0.015 A 
ATOM     10  C   UNL     1       5.304  -3.366  -2.994  0.00  0.00    +0.029 A 
BRANCH   5  11
ATOM     11  S   UNL     1       6.151  -5.103  -4.921  0.00  0.00    +0.061 S 
ATOM     12  O   UNL     1       6.944  -3.992  -5.315  0.00  0.00    -0.153 OA
ATOM     13  O   UNL     1       6.685  -6.414  -4.796  0.00  0.00    -0.153 OA
BRANCH  11  17
ATOM     14  C   UNL     1       2.430  -2.789  -7.545  0.00  0.00    +0.039 C 
ATOM     15  C   UNL     1       2.941  -3.890  -6.614  0.00  0.00    +0.131 C 
ATOM     16  C   UNL     1       4.462  -4.021  -6.762  0.00  0.00    +0.140 C 
ATOM     17  N   UNL     1       4.902  -5.202  -6.003  0.00  0.00    -0.172 NA
ATOM     18  C   UNL     1       4.204  -6.476  -6.240  0.00  0.00    +0.140 C 
ATOM     19  C   UNL     1       2.693  -6.225  -6.114  0.00  0.00    +0.131 C 
ATOM     20  O   UNL     1       2.326  -5.133  -6.961  0.00  0.00    -0.371 OA
ATOM     21  C   UNL     1       2.348  -5.883  -4.663  0.00  0.00    +0.039 C 
ENDBRANCH  11  17
ENDBRANCH   5  11
ENDBRANCH   1   8
BRANCH   3  22
ATOM     22  C   UNL     1       3.044  -2.071   2.074  0.00  0.00    +0.092 C 
BRANCH  22  23
ATOM     23  C   UNL     1       2.991  -0.550   2.226  0.00  0.00    -0.050 C 
ATOM     24  C   UNL     1       2.385  -0.194   3.585  0.00  0.00    -0.010 C 
ATOM     25  C   UNL     1       3.248  -0.789   4.699  0.00  0.00    -0.001 C 
ATOM     26  C   UNL     1       4.665  -0.218   4.608  0.00  0.00    -0.000 C 
ATOM     27  C   UNL     1       5.271  -0.574   3.249  0.00  0.00    -0.001 C 
ATOM     28  C   UNL     1       4.408   0.021   2.134  0.00  0.00    -0.010 C 
BRANCH  23  34
ATOM     29  C   UNL     1       0.793  -0.505   1.212  0.00  0.00    -0.078 C 
ATOM     30  C   UNL     1       0.002  -0.004   0.002  0.00  0.00    -0.019 C 
ATOM     31  C   UNL     1      -0.019   1.527   0.010  0.00  0.00    -0.004 C 
ATOM     32  C   UNL     1       1.421   2.049  -0.001  0.00  0.00    -0.019 C 
ATOM     33  C   UNL     1       2.171   1.488   1.210  0.00  0.00    -0.078 C 
ATOM     34  N   UNL     1       2.176   0.012   1.129  0.00  0.00    +0.384 N 
ATOM     35  H   UNL     1       2.584  -0.271   0.231  0.00  0.00    -0.081 HD
ENDBRANCH  23  34
ENDBRANCH  22  23
ENDBRANCH   3  22
TORSDOF 6
