REMARK  Name = ZINC42133490
REMARK  10 active torsions:
REMARK  status: ('A' for Active; 'I' for Inactive)
REMARK    1  A    between atoms: C_1  and  C_2
REMARK    2  A    between atoms: C_2  and  N_3
REMARK    3  A    between atoms: N_3  and  C_4
REMARK    4  A    between atoms: N_3  and  C_12
REMARK    5  A    between atoms: C_4  and  C_5
REMARK    6  A    between atoms: C_10  and  C_11
REMARK    7  A    between atoms: C_12  and  C_13
REMARK    8  A    between atoms: C_13  and  C_15
REMARK    9  A    between atoms: C_16  and  N_27
REMARK   10  A    between atoms: N_17  and  C_24
REMARK                            x       y       z     vdW  Elec       q    Type
REMARK                         _______ _______ _______ _____ _____    ______ ____
ROOT
ATOM      1  C   UNL     1      -0.209  -2.242  -1.994  0.00  0.00    +0.155 C 
ATOM      2  O   UNL     1      -1.079  -1.412  -1.818  0.00  0.00    -0.294 OA
ENDROOT
BRANCH   1   3
ATOM      3  C   UNL     1      -0.552  -3.546  -2.411  0.00  0.00    +0.118 A 
ATOM      4  C   UNL     1      -1.878  -3.877  -2.742  0.00  0.00    +0.116 A 
ATOM      5  N   UNL     1      -2.161  -5.152  -3.140  0.00  0.00    -0.278 N 
ATOM      6  C   UNL     1      -1.201  -6.087  -3.221  0.00  0.00    +0.331 A 
ATOM      7  O   UNL     1      -1.504  -7.207  -3.581  0.00  0.00    -0.246 OA
ATOM      8  N   UNL     1       0.081  -5.830  -2.918  0.00  0.00    -0.274 N 
ATOM      9  H   UNL     1       0.741  -6.537  -2.990  0.00  0.00    +0.173 HD
ATOM     10  C   UNL     1       0.465  -4.599  -2.519  0.00  0.00    +0.266 A 
ATOM     11  O   UNL     1       1.630  -4.368  -2.251  0.00  0.00    -0.267 OA
BRANCH   5  12
ATOM     12  C   UNL     1      -3.539  -5.506  -3.487  0.00  0.00    +0.094 C 
ATOM     13  C   UNL     1      -3.766  -6.261  -4.799  0.00  0.00    +0.027 C 
ATOM     14  C   UNL     1      -4.174  -4.791  -4.681  0.00  0.00    +0.027 C 
ENDBRANCH   5  12
BRANCH   4  15
ATOM     15  N   UNL     1      -2.864  -2.942  -2.665  0.00  0.00    -0.344 N 
ATOM     16  H   UNL     1      -2.638  -2.010  -2.515  0.00  0.00    +0.144 HD
ATOM     17  H   UNL     1      -3.792  -3.206  -2.761  0.00  0.00    +0.144 HD
ENDBRANCH   4  15
ENDBRANCH   1   3
BRANCH   1  18
ATOM     18  C   UNL     1       1.236  -1.879  -1.767  0.00  0.00    +0.003 C 
BRANCH  18  19
ATOM     19  N   UNL     1       1.327  -0.476  -1.341  0.00  0.00    +0.387 N 
ATOM     20  H   UNL     1       0.866   0.112  -2.020  0.00  0.00    -0.081 HD
BRANCH  19  22
ATOM     21  C   UNL     1       0.644   1.165   0.343  0.00  0.00    -0.017 C 
ATOM     22  C   UNL     1       0.677  -0.318  -0.034  0.00  0.00    -0.081 C 
ENDBRANCH  19  22
BRANCH  19  23
ATOM     23  C   UNL     1       2.740  -0.088  -1.236  0.00  0.00    -0.042 C 
BRANCH  23  24
ATOM     24  C   UNL     1       3.374  -0.125  -2.602  0.00  0.00    -0.061 A 
ATOM     25  C   UNL     1       4.142  -1.211  -2.979  0.00  0.00    +0.002 A 
ATOM     26  C   UNL     1       4.724  -1.245  -4.232  0.00  0.00    +0.000 A 
ATOM     27  C   UNL     1       4.538  -0.193  -5.109  0.00  0.00    +0.000 A 
ATOM     28  C   UNL     1       3.770   0.892  -4.734  0.00  0.00    +0.003 A 
ATOM     29  C   UNL     1       3.184   0.924  -3.482  0.00  0.00    -0.049 A 
ATOM     30  C   UNL     1       2.342   2.106  -3.074  0.00  0.00    +0.044 C 
ENDBRANCH  23  24
ENDBRANCH  19  23
ENDBRANCH  18  19
ENDBRANCH   1  18
TORSDOF 8
