REMARK  Name = ZINC15890389
REMARK  9 active torsions:
REMARK  status: ('A' for Active; 'I' for Inactive)
REMARK    1  A    between atoms: C_1  and  C_2
REMARK    2  A    between atoms: C_7  and  N_8
REMARK    3  A    between atoms: C_12  and  C_32
REMARK    4  A    between atoms: C_18  and  S_19
REMARK    5  A    between atoms: S_19  and  C_20
REMARK    6  A    between atoms: C_20  and  C_21
REMARK    7  A    between atoms: N_23  and  C_24
REMARK    8  A    between atoms: C_24  and  C_25
REMARK    9  A    between atoms: C_25  and  C_26
REMARK                            x       y       z     vdW  Elec       q    Type
REMARK                         _______ _______ _______ _____ _____    ______ ____
ROOT
ATOM      1  N   UNL     1       0.026  -0.013   2.418  0.00  0.00    -0.274 N 
ATOM      2  C   UNL     1      -1.179   0.318   3.052  0.00  0.00    +0.124 A 
ATOM      3  N   UNL     1      -2.279  -0.385   2.933  0.00  0.00    -0.384 N 
ATOM      4  C   UNL     1      -1.076   1.541   3.868  0.00  0.00    +0.082 A 
ATOM      5  C   UNL     1      -2.020   2.416   4.394  0.00  0.00    +0.072 A 
ATOM      6  N   UNL     1      -1.384   3.351   5.056  0.00  0.00    -0.177 NA
ATOM      7  N   UNL     1      -0.000   3.119   4.984  0.00  0.00    -0.260 N 
ATOM      8  H   UNL     1       0.690   3.665   5.392  0.00  0.00    +0.191 HD
ATOM      9  C   UNL     1       0.203   2.006   4.251  0.00  0.00    +0.162 A 
ATOM     10  N   UNL     1       1.312   1.352   3.867  0.00  0.00    -0.204 NA
ATOM     11  C   UNL     1       1.208   0.347   3.014  0.00  0.00    +0.177 A 
ATOM     12  C   UNL     1      -3.514   2.308   4.232  0.00  0.00    +0.068 C 
ATOM     13  H   UNL     1      -2.287  -1.183   2.382  0.00  0.00    +0.157 HD
ATOM     14  H   UNL     1      -3.084  -0.107   3.397  0.00  0.00    +0.157 HD
ENDROOT
BRANCH   1  21
ATOM     15  C   UNL     1      -0.018   1.503   0.010  0.00  0.00    +0.046 C 
ATOM     16  C   UNL     1       0.002  -0.004   0.002  0.00  0.00    -0.026 A 
ATOM     17  C   UNL     1       0.006  -0.689  -1.198  0.00  0.00    +0.007 A 
ATOM     18  C   UNL     1       0.024  -2.071  -1.207  0.00  0.00    +0.020 A 
ATOM     19  C   UNL     1       0.039  -2.773  -0.014  0.00  0.00    +0.043 A 
ATOM     20  C   UNL     1       0.036  -2.094   1.189  0.00  0.00    +0.046 A 
ATOM     21  C   UNL     1       0.023  -0.705   1.200  0.00  0.00    +0.055 A 
ATOM     22 CL   UNL     1       0.061  -4.509  -0.030  0.00  0.00    -0.083 Cl
ENDBRANCH   1  21
BRANCH  11  23
ATOM     23  S   UNL     1       2.659  -0.570   2.615  0.00  0.00    -0.078 S 
BRANCH  23  24
ATOM     24  C   UNL     1       3.962   0.221   3.598  0.00  0.00    +0.173 C 
BRANCH  24  25
ATOM     25  C   UNL     1       5.274  -0.477   3.347  0.00  0.00    +0.223 C 
ATOM     26  O   UNL     1       5.325  -1.416   2.581  0.00  0.00    -0.275 OA
ATOM     27  N   UNL     1       6.391  -0.058   3.975  0.00  0.00    -0.314 N 
ATOM     28  H   UNL     1       6.350   0.692   4.588  0.00  0.00    +0.149 HD
BRANCH  27  29
ATOM     29  C   UNL     1       7.666  -0.737   3.731  0.00  0.00    +0.108 C 
BRANCH  29  30
ATOM     30  C   UNL     1       8.765  -0.070   4.560  0.00  0.00    +0.049 C 
BRANCH  30  31
ATOM     31  C   UNL     1      10.077  -0.767   4.309  0.00  0.00    -0.072 C 
ATOM     32  C   UNL     1      10.869  -0.269   3.415  0.00  0.00    -0.028 C 
ATOM     33  C   UNL     1      12.200  -0.857   3.048  0.00  0.00    +0.027 C 
ATOM     34  C   UNL     1      12.664  -1.828   4.135  0.00  0.00    +0.004 C 
ATOM     35  C   UNL     1      11.512  -2.791   4.449  0.00  0.00    +0.005 C 
ATOM     36  C   UNL     1      10.388  -1.994   5.117  0.00  0.00    +0.030 C 
ENDBRANCH  30  31
ENDBRANCH  29  30
ENDBRANCH  27  29
ENDBRANCH  24  25
ENDBRANCH  23  24
ENDBRANCH  11  23
TORSDOF 7
