REMARK  Name = ZINC67041074
REMARK  6 active torsions:
REMARK  status: ('A' for Active; 'I' for Inactive)
REMARK    1  A    between atoms: C_1  and  C_2
REMARK    2  A    between atoms: C_2  and  C_4
REMARK    3  A    between atoms: C_2  and  N_7
REMARK    4  A    between atoms: C_4  and  C_5
REMARK    5  A    between atoms: C_4  and  C_6
REMARK    6  A    between atoms: C_14  and  C_17
REMARK                            x       y       z     vdW  Elec       q    Type
REMARK                         _______ _______ _______ _____ _____    ______ ____
ROOT
ATOM      1  N   UNL     1       0.689  -0.472  -1.204  0.00  0.00    -0.296 N 
ATOM      2  C   UNL     1       0.006  -0.608  -2.358  0.00  0.00    +0.303 C 
ATOM      3  O   UNL     1      -1.196  -0.427  -2.379  0.00  0.00    -0.253 OA
ATOM      4  N   UNL     1       0.656  -0.945  -3.490  0.00  0.00    -0.281 N 
ATOM      5  C   UNL     1       2.087  -1.287  -3.468  0.00  0.00    +0.137 C 
ATOM      6  C   UNL     1       2.278  -2.619  -4.202  0.00  0.00    +0.179 C 
ATOM      7  O   UNL     1       1.664  -2.539  -5.490  0.00  0.00    -0.369 OA
ATOM      8  C   UNL     1       0.250  -2.330  -5.453  0.00  0.00    +0.168 C 
ATOM      9  C   UNL     1      -0.045  -0.989  -4.783  0.00  0.00    +0.145 C 
ATOM     10  H   UNL     1       1.634  -0.687  -1.171  0.00  0.00    +0.151 HD
ENDROOT
BRANCH   8  11
ATOM     11  C   UNL     1      -0.295  -2.325  -6.858  0.00  0.00    +0.018 A 
ATOM     12  C   UNL     1       0.528  -1.994  -7.918  0.00  0.00    +0.009 A 
ATOM     13  C   UNL     1       0.029  -1.989  -9.207  0.00  0.00    +0.001 A 
ATOM     14  C   UNL     1      -1.295  -2.314  -9.437  0.00  0.00    +0.003 A 
ATOM     15  C   UNL     1      -2.120  -2.646  -8.380  0.00  0.00    +0.039 A 
ATOM     16  C   UNL     1      -1.619  -2.656  -7.088  0.00  0.00    +0.129 A 
ATOM     17  F   UNL     1      -2.424  -2.984  -6.054  0.00  0.00    -0.205 F 
ENDBRANCH   8  11
BRANCH   1  19
ATOM     18  C   UNL     1      -0.024   1.530   0.007  0.00  0.00    +0.028 C 
ATOM     19  C   UNL     1       0.002  -0.000   0.001  0.00  0.00    +0.074 C 
BRANCH  19  20
ATOM     20  C   UNL     1       0.745  -0.502   1.241  0.00  0.00    +0.003 C 
ATOM     21  C   UNL     1       2.137   0.132   1.293  0.00  0.00    +0.009 C 
ATOM     22  C   UNL     1      -0.038  -0.116   2.497  0.00  0.00    +0.009 C 
ENDBRANCH  19  20
ENDBRANCH   1  19
TORSDOF 3
