REMARK  Name = ZINC18063719
REMARK  7 active torsions:
REMARK  status: ('A' for Active; 'I' for Inactive)
REMARK    1  A    between atoms: C_1  and  C_2
REMARK    2  A    between atoms: C_2  and  O_3
REMARK    3  A    between atoms: O_3  and  C_4
REMARK    4  A    between atoms: C_4  and  C_6
REMARK    5  A    between atoms: C_7  and  C_32
REMARK    6  A    between atoms: C_13  and  C_17
REMARK    7  A    between atoms: C_18  and  C_19
REMARK                            x       y       z     vdW  Elec       q    Type
REMARK                         _______ _______ _______ _____ _____    ______ ____
ROOT
ATOM      1  C   UNL     1       2.542  13.062  -4.383  0.00  0.00    +0.102 A 
ATOM      2  C   UNL     1       2.991  12.119  -5.263  0.00  0.00    -0.015 A 
ATOM      3  C   UNL     1       2.673  10.775  -5.064  0.00  0.00    +0.076 A 
ATOM      4  C   UNL     1       3.048   9.598  -5.881  0.00  0.00    +0.260 A 
ATOM      5  O   UNL     1       3.729   9.726  -6.883  0.00  0.00    -0.267 OA
ATOM      6  N   UNL     1       2.624   8.382  -5.487  0.00  0.00    -0.306 N 
ATOM      7  H   UNL     1       2.865   7.601  -6.009  0.00  0.00    +0.170 HD
ATOM      8  C   UNL     1       1.854   8.229  -4.364  0.00  0.00    +0.153 A 
ATOM      9  N   UNL     1       1.506   9.262  -3.619  0.00  0.00    -0.221 NA
ATOM     10  C   UNL     1       1.880  10.492  -3.925  0.00  0.00    +0.117 A 
ATOM     11  S   UNL     1       1.623  12.092  -3.199  0.00  0.00    -0.062 S 
ATOM     12  C   UNL     1       3.830  12.529  -6.445  0.00  0.00    +0.046 C 
ENDROOT
BRANCH   8  13
ATOM     13  C   UNL     1       1.411   6.889  -3.978  0.00  0.00    +0.084 C 
ATOM     14  C   UNL     1       0.656   6.720  -2.871  0.00  0.00    +0.031 C 
ATOM     15 CL   UNL     1       1.857   5.516  -4.943  0.00  0.00    -0.080 Cl
BRANCH  14  16
ATOM     16  C   UNL     1       0.345   5.364  -2.393  0.00  0.00    -0.018 A 
ATOM     17  C   UNL     1       1.272   4.329  -2.568  0.00  0.00    +0.057 A 
ATOM     18  C   UNL     1       0.971   3.061  -2.115  0.00  0.00    +0.164 A 
ATOM     19  C   UNL     1      -0.245   2.811  -1.488  0.00  0.00    +0.180 A 
ATOM     20  C   UNL     1      -1.167   3.834  -1.314  0.00  0.00    +0.087 A 
ATOM     21  C   UNL     1      -0.877   5.106  -1.763  0.00  0.00    +0.032 A 
ATOM     22 CL   UNL     1      -2.684   3.514  -0.532  0.00  0.00    -0.080 Cl
ATOM     23  O   UNL     1      -0.528   1.552  -1.045  0.00  0.00    -0.487 OA
ATOM     24  C   UNL     1      -0.725   0.563  -2.057  0.00  0.00    +0.232 C 
ATOM     25  C   UNL     1       0.605  -0.018  -2.510  0.00  0.00    +0.082 C 
ATOM     26  C   UNL     1       1.485   1.016  -3.195  0.00  0.00    +0.232 C 
ATOM     27  O   UNL     1       1.866   2.043  -2.277  0.00  0.00    -0.488 OA
ENDBRANCH  14  16
ENDBRANCH   8  13
BRANCH   1  28
ATOM     28  C   UNL     1       2.759  14.509  -4.405  0.00  0.00    +0.346 C 
ATOM     29  O   UNL     1       3.418  15.011  -5.296  0.00  0.00    -0.244 OA
BRANCH  28  30
ATOM     30  O   UNL     1       2.228  15.286  -3.438  0.00  0.00    -0.461 OA
BRANCH  30  32
ATOM     31  C   UNL     1       1.804  17.401  -2.349  0.00  0.00    +0.048 C 
ATOM     32  C   UNL     1       2.481  16.690  -3.523  0.00  0.00    +0.229 C 
ENDBRANCH  30  32
ENDBRANCH  28  30
ENDBRANCH   1  28
TORSDOF 5
