REMARK  Name = ZINC12917988
REMARK  9 active torsions:
REMARK  status: ('A' for Active; 'I' for Inactive)
REMARK    1  A    between atoms: C_1  and  C_2
REMARK    2  A    between atoms: C_5  and  C_8
REMARK    3  A    between atoms: N_13  and  C_14
REMARK    4  A    between atoms: C_14  and  C_15
REMARK    5  A    between atoms: C_20  and  C_23
REMARK    6  A    between atoms: C_26  and  C_29
REMARK    7  A    between atoms: C_29  and  C_30
REMARK    8  A    between atoms: C_29  and  C_31
REMARK    9  A    between atoms: C_29  and  C_32
REMARK                            x       y       z     vdW  Elec       q    Type
REMARK                         _______ _______ _______ _____ _____    ______ ____
ROOT
ATOM      1  C   UNL     1      -0.214  -4.656   3.308  0.00  0.00    +0.239 C 
ATOM      2  O   UNL     1      -1.326  -4.969   2.936  0.00  0.00    -0.273 OA
ATOM      3  N   UNL     1      -0.007  -4.308   4.593  0.00  0.00    -0.263 N 
ATOM      4  C   UNL     1      -1.066  -4.307   5.493  0.00  0.00    +0.165 A 
ATOM      5  N   UNL     1      -1.073  -3.996   6.776  0.00  0.00    -0.225 NA
ATOM      6  C   UNL     1      -2.186  -4.050   7.491  0.00  0.00    +0.080 A 
ATOM      7  C   UNL     1      -3.352  -4.434   6.889  0.00  0.00    +0.076 A 
ATOM      8  S   UNL     1      -2.784  -4.717   5.217  0.00  0.00    -0.060 S 
ATOM      9  H   UNL     1       0.882  -4.058   4.891  0.00  0.00    +0.157 HD
ENDROOT
BRANCH   6  10
ATOM     10  C   UNL     1      -2.168  -3.697   8.931  0.00  0.00    +0.001 A 
ATOM     11  C   UNL     1      -3.341  -3.761   9.681  0.00  0.00    +0.010 A 
ATOM     12  C   UNL     1      -3.319  -3.431  11.021  0.00  0.00    +0.005 A 
ATOM     13  C   UNL     1      -2.135  -3.038  11.620  0.00  0.00    -0.042 A 
ATOM     14  C   UNL     1      -0.969  -2.972  10.880  0.00  0.00    +0.005 A 
ATOM     15  C   UNL     1      -0.978  -3.306   9.541  0.00  0.00    +0.010 A 
BRANCH  13  16
ATOM     16  C   UNL     1      -2.118  -2.678  13.083  0.00  0.00    -0.013 C 
ATOM     17  C   UNL     1      -2.568  -3.884  13.910  0.00  0.00    +0.015 C 
ATOM     18  C   UNL     1      -0.698  -2.281  13.493  0.00  0.00    +0.015 C 
ATOM     19  C   UNL     1      -3.068  -1.505  13.332  0.00  0.00    +0.015 C 
ENDBRANCH  13  16
ENDBRANCH   6  10
BRANCH   1  20
ATOM     20  C   UNL     1       0.935  -4.658   2.333  0.00  0.00    +0.221 C 
BRANCH  20  26
ATOM     21  C   UNL     1       0.006  -4.253  -0.001  0.00  0.00    +0.165 A 
ATOM     22  N   UNL     1      -0.323  -5.032  -1.006  0.00  0.00    -0.128 NA
ATOM     23  N   UNL     1      -0.118  -6.261  -0.694  0.00  0.00    -0.121 NA
ATOM     24  C   UNL     1       0.353  -6.344   0.531  0.00  0.00    +0.203 A 
ATOM     25  S   UNL     1       0.783  -7.822   1.388  0.00  0.00    -0.009 SA
ATOM     26  N   UNL     1       0.454  -5.069   1.012  0.00  0.00    -0.293 N 
BRANCH  21  31
ATOM     27  C   UNL     1      -0.341   1.489   0.132  0.00  0.00    +0.044 C 
ATOM     28  C   UNL     1      -0.250  -0.015   0.097  0.00  0.00    -0.050 A 
ATOM     29  C   UNL     1      -0.231  -0.676  -1.118  0.00  0.00    +0.004 A 
ATOM     30  C   UNL     1      -0.147  -2.052  -1.157  0.00  0.00    +0.012 A 
ATOM     31  C   UNL     1      -0.083  -2.778   0.033  0.00  0.00    +0.019 A 
ATOM     32  C   UNL     1      -0.103  -2.105   1.256  0.00  0.00    +0.012 A 
ATOM     33  C   UNL     1      -0.180  -0.728   1.280  0.00  0.00    +0.004 A 
ENDBRANCH  21  31
ENDBRANCH  20  26
ENDBRANCH   1  20
TORSDOF 5
