REMARK  Name = ZINC02652887
REMARK  7 active torsions:
REMARK  status: ('A' for Active; 'I' for Inactive)
REMARK    1  A    between atoms: C_3  and  O_17
REMARK    2  A    between atoms: C_6  and  S_7
REMARK    3  A    between atoms: S_7  and  N_10
REMARK    4  A    between atoms: O_17  and  C_18
REMARK    5  A    between atoms: C_18  and  C_19
REMARK    6  A    between atoms: N_21  and  C_22
REMARK    7  A    between atoms: C_23  and  C_30
REMARK                            x       y       z     vdW  Elec       q    Type
REMARK                         _______ _______ _______ _____ _____    ______ ____
ROOT
ATOM      1  C   UNL     1      -2.792   4.336   5.314  0.00  0.00    +0.325 C 
ENDROOT
BRANCH   1   2
ATOM      2  C   UNL     1      -3.655   4.573   6.526  0.00  0.00    +0.255 C 
ATOM      3  O   UNL     1      -4.421   3.711   6.902  0.00  0.00    -0.272 OA
ATOM      4  N   UNL     1      -3.577   5.742   7.192  0.00  0.00    -0.277 N 
ATOM      5  H   UNL     1      -2.964   6.431   6.891  0.00  0.00    +0.155 HD
BRANCH   4   6
ATOM      6  C   UNL     1      -4.371   5.960   8.307  0.00  0.00    +0.084 A 
ATOM      7  C   UNL     1      -4.428   7.080   9.117  0.00  0.00    +0.068 A 
ATOM      8  C   UNL     1      -5.365   7.057  10.240  0.00  0.00    -0.023 A 
ATOM      9  C   UNL     1      -6.074   5.922  10.369  0.00  0.00    -0.004 A 
ATOM     10  S   UNL     1      -5.527   4.893   9.029  0.00  0.00    -0.077 S 
ATOM     11  C   UNL     1      -7.011   5.972  11.545  0.00  0.00    +0.043 C 
ATOM     12  C   UNL     1      -7.113   7.473  11.898  0.00  0.00    +0.010 C 
ATOM     13  C   UNL     1      -5.771   8.012  11.364  0.00  0.00    +0.037 C 
BRANCH   7  14
ATOM     14  C   UNL     1      -3.583   8.250   8.857  0.00  0.00    +0.244 C 
ATOM     15  O   UNL     1      -3.985   9.142   8.133  0.00  0.00    -0.270 OA
ATOM     16  N   UNL     1      -2.361   8.337   9.418  0.00  0.00    -0.325 N 
ATOM     17  H   UNL     1      -2.040   7.626   9.995  0.00  0.00    +0.145 HD
ATOM     18  H   UNL     1      -1.802   9.111   9.246  0.00  0.00    +0.145 HD
ENDBRANCH   7  14
ENDBRANCH   4   6
ENDBRANCH   1   2
BRANCH   1  19
ATOM     19  O   UNL     1      -3.055   3.034   4.787  0.00  0.00    -0.481 OA
BRANCH  19  22
ATOM     20  C   UNL     1      -0.716   3.145   2.003  0.00  0.00    +0.032 A 
ATOM     21  C   UNL     1      -1.432   3.529   3.121  0.00  0.00    +0.049 A 
ATOM     22  C   UNL     1      -2.354   2.660   3.685  0.00  0.00    +0.140 A 
ATOM     23  C   UNL     1      -2.560   1.409   3.121  0.00  0.00    +0.084 A 
ATOM     24  C   UNL     1      -1.846   1.032   1.999  0.00  0.00    +0.052 A 
ATOM     25  C   UNL     1      -0.927   1.900   1.439  0.00  0.00    +0.107 A 
ATOM     26 CL   UNL     1      -3.713   0.318   3.824  0.00  0.00    -0.080 Cl
BRANCH  25  27
ATOM     27  S   UNL     1      -0.017   1.417   0.010  0.00  0.00    +0.061 S 
ATOM     28  O   UNL     1       0.002  -0.004   0.002  0.00  0.00    -0.153 OA
ATOM     29  O   UNL     1       1.172   2.195   0.003  0.00  0.00    -0.153 OA
BRANCH  27  30
ATOM     30  N   UNL     1      -0.897   1.885  -1.312  0.00  0.00    -0.172 NA
ATOM     31  C   UNL     1      -1.888   0.984  -1.921  0.00  0.00    +0.137 C 
ATOM     32  C   UNL     1      -3.209   1.756  -2.073  0.00  0.00    +0.177 C 
ATOM     33  O   UNL     1      -2.958   2.982  -2.764  0.00  0.00    -0.377 OA
ATOM     34  C   UNL     1      -2.082   3.875  -2.072  0.00  0.00    +0.177 C 
ATOM     35  C   UNL     1      -0.708   3.214  -1.917  0.00  0.00    +0.137 C 
ENDBRANCH  27  30
ENDBRANCH  25  27
ENDBRANCH  19  22
ENDBRANCH   1  19
TORSDOF 7
