REMARK  Name = ZINC09429638
REMARK  8 active torsions:
REMARK  status: ('A' for Active; 'I' for Inactive)
REMARK    1  A    between atoms: C_1  and  C_2
REMARK    2  A    between atoms: C_2  and  C_3
REMARK    3  A    between atoms: C_3  and  C_5
REMARK    4  A    between atoms: C_3  and  N_6
REMARK    5  A    between atoms: C_11  and  C_28
REMARK    6  A    between atoms: C_28  and  C_29
REMARK    7  A    between atoms: C_29  and  C_30
REMARK    8  A    between atoms: C_29  and  C_31
REMARK                            x       y       z     vdW  Elec       q    Type
REMARK                         _______ _______ _______ _____ _____    ______ ____
ROOT
ATOM      1  N   UNL     1       2.064  -1.632  -1.331  0.00  0.00    -0.239 N 
ATOM      2  C   UNL     1       3.292  -1.829  -0.838  0.00  0.00    +0.224 C 
ATOM      3  O   UNL     1       3.759  -2.905  -0.530  0.00  0.00    -0.275 OA
ATOM      4  C   UNL     1       4.008  -0.503  -0.727  0.00  0.00    +0.073 C 
ATOM      5  C   UNL     1       4.207  -0.153   0.763  0.00  0.00    -0.057 C 
ATOM      6  C   UNL     1       2.616   1.373  -0.012  0.00  0.00    +0.050 C 
ATOM      7  C   UNL     1       2.954   0.518  -1.240  0.00  0.00    +0.088 C 
ATOM      8  C   UNL     1       1.769  -0.353  -1.593  0.00  0.00    +0.225 C 
ATOM      9  O   UNL     1       0.717   0.044  -2.044  0.00  0.00    -0.275 OA
ATOM     10  C   UNL     1       1.171   1.780   0.000  0.00  0.00    -0.027 A 
ATOM     11  C   UNL     1      -0.013   1.076   0.008  0.00  0.00    +0.019 A 
ATOM     12  C   UNL     1      -1.221   1.751   0.017  0.00  0.00    +0.018 A 
ATOM     13  C   UNL     1      -1.236   3.135   0.029  0.00  0.00    +0.017 A 
ATOM     14  C   UNL     1      -0.053   3.844   0.021  0.00  0.00    +0.024 A 
ATOM     15  C   UNL     1       1.167   3.172   0.006  0.00  0.00    +0.036 A 
ATOM     16  N   UNL     1       2.477   3.658  -0.005  0.00  0.00    -0.286 N 
ATOM     17  C   UNL     1       3.387   2.665  -0.015  0.00  0.00    +0.211 C 
ATOM     18  O   UNL     1       4.594   2.789  -0.026  0.00  0.00    -0.277 OA
ATOM     19 BR   UNL     1      -2.847   0.786   0.020  0.00  0.00    -0.050 Br
ATOM     20  H   UNL     1       2.704   4.601  -0.005  0.00  0.00    +0.155 HD
ATOM     21  N   UNL     1       2.975   0.550   1.130  0.00  0.00    +0.394 N 
ATOM     22  H   UNL     1       3.136   1.139   1.956  0.00  0.00    -0.083 HD
ATOM     23  H   UNL     1       2.228  -0.125   1.330  0.00  0.00    -0.083 HD
ENDROOT
BRANCH   1  24
ATOM     24  C   UNL     1       1.119  -2.727  -1.564  0.00  0.00    +0.081 C 
ATOM     25  C   UNL     1       0.835  -3.446  -0.244  0.00  0.00    +0.028 C 
BRANCH  24  27
ATOM     26  C   UNL     1       1.889  -3.030  -3.922  0.00  0.00    +0.006 C 
ATOM     27  C   UNL     1       1.721  -3.716  -2.564  0.00  0.00    +0.019 C 
ENDBRANCH  24  27
ENDBRANCH   1  24
BRANCH   5  28
ATOM     28  C   UNL     1       4.388  -1.429   1.589  0.00  0.00    -0.012 C 
BRANCH  28  29
ATOM     29  C   UNL     1       4.631  -1.058   3.053  0.00  0.00    -0.019 C 
ATOM     30  C   UNL     1       4.689  -2.331   3.899  0.00  0.00    +0.007 C 
ATOM     31  C   UNL     1       5.957  -0.304   3.175  0.00  0.00    +0.007 C 
ENDBRANCH  28  29
ENDBRANCH   5  28
TORSDOF 4
