REMARK  Name = ZINC39997833
REMARK  11 active torsions:
REMARK  status: ('A' for Active; 'I' for Inactive)
REMARK    1  A    between atoms: C_1  and  C_2
REMARK    2  A    between atoms: C_2  and  C_3
REMARK    3  A    between atoms: C_3  and  S_4
REMARK    4  A    between atoms: S_4  and  C_5
REMARK    5  A    between atoms: C_8  and  C_11
REMARK    6  A    between atoms: C_12  and  C_22
REMARK    7  A    between atoms: N_14  and  C_16
REMARK    8  A    between atoms: C_23  and  C_24
REMARK    9  A    between atoms: C_23  and  C_26
REMARK   10  A    between atoms: N_28  and  C_29
REMARK   11  A    between atoms: C_32  and  C_34
REMARK                            x       y       z     vdW  Elec       q    Type
REMARK                         _______ _______ _______ _____ _____    ______ ____
ROOT
ATOM      1  C   UNL     1       4.239  -3.450  -6.374  0.00  0.00    +0.100 A 
ATOM      2  C   UNL     1       4.787  -4.798  -6.581  0.00  0.00    +0.022 A 
ATOM      3  C   UNL     1       5.177  -4.857  -7.910  0.00  0.00    +0.123 A 
ATOM      4  N   UNL     1       4.901  -3.668  -8.472  0.00  0.00    -0.239 N 
ATOM      5  N   UNL     1       4.323  -2.820  -7.524  0.00  0.00    -0.166 NA
ENDROOT
BRANCH   1   9
ATOM      6  C   UNL     1       2.664  -1.891  -2.745  0.00  0.00    +0.008 A 
ATOM      7  C   UNL     1       3.358  -1.057  -3.616  0.00  0.00    +0.015 A 
ATOM      8  C   UNL     1       3.869  -1.560  -4.792  0.00  0.00    +0.011 A 
ATOM      9  C   UNL     1       3.691  -2.907  -5.109  0.00  0.00    +0.003 A 
ATOM     10  C   UNL     1       2.995  -3.742  -4.234  0.00  0.00    +0.011 A 
ATOM     11  C   UNL     1       2.490  -3.235  -3.056  0.00  0.00    +0.015 A 
BRANCH   6  12
ATOM     12  S   UNL     1       2.012  -1.245  -1.241  0.00  0.00    -0.125 S 
BRANCH  12  13
ATOM     13  C   UNL     1       2.480   0.508  -1.276  0.00  0.00    +0.074 C 
BRANCH  13  15
ATOM     14  C   UNL     1       2.363   2.676  -0.041  0.00  0.00    +0.004 C 
ATOM     15  C   UNL     1       1.968   1.198  -0.011  0.00  0.00    +0.008 C 
ENDBRANCH  13  15
ENDBRANCH  12  13
ENDBRANCH   6  12
ENDBRANCH   1   9
BRANCH   4  16
ATOM     16  C   UNL     1       5.149  -3.332  -9.809  0.00  0.00    +0.065 A 
ATOM     17  C   UNL     1       5.721  -4.263 -10.666  0.00  0.00    +0.028 A 
ATOM     18  C   UNL     1       5.965  -3.928 -11.984  0.00  0.00    +0.002 A 
ATOM     19  C   UNL     1       5.641  -2.666 -12.449  0.00  0.00    +0.000 A 
ATOM     20  C   UNL     1       5.073  -1.736 -11.598  0.00  0.00    +0.002 A 
ATOM     21  C   UNL     1       4.821  -2.068 -10.281  0.00  0.00    +0.028 A 
ENDBRANCH   4  16
BRANCH   2  22
ATOM     22  C   UNL     1       4.898  -5.862  -5.586  0.00  0.00    +0.036 C 
ATOM     23  C   UNL     1       5.103  -7.166  -5.990  0.00  0.00    +0.119 C 
BRANCH  23  24
ATOM     24  C   UNL     1       5.363  -8.212  -4.992  0.00  0.00    +0.290 C 
ATOM     25  O   UNL     1       5.403  -7.897  -3.677  0.00  0.00    -0.264 OA
ATOM     26  N   UNL     1       5.558  -9.455  -5.377  0.00  0.00    -0.180 NA
BRANCH  26  27
ATOM     27  C   UNL     1       5.799 -10.422  -4.454  0.00  0.00    +0.218 A 
ATOM     28  N   UNL     1       5.875 -10.340  -3.126  0.00  0.00    -0.121 NA
ATOM     29  N   UNL     1       6.109 -11.354  -2.413  0.00  0.00    -0.145 NA
ATOM     30  C   UNL     1       6.293 -12.552  -2.933  0.00  0.00    +0.101 A 
ATOM     31  S   UNL     1       6.097 -12.174  -4.672  0.00  0.00    -0.031 S 
ATOM     32  C   UNL     1       6.580 -13.867  -2.256  0.00  0.00    +0.075 C 
ENDBRANCH  26  27
ENDBRANCH  23  24
BRANCH  23  33
ATOM     33  C   UNL     1       5.061  -7.500  -7.382  0.00  0.00    +0.105 C 
ATOM     34  N   UNL     1       5.027  -7.764  -8.486  0.00  0.00    -0.191 NA
ENDBRANCH  23  33
ENDBRANCH   2  22
TORSDOF 9
