REMARK  Name = ZINC01372510
REMARK  11 active torsions:
REMARK  status: ('A' for Active; 'I' for Inactive)
REMARK    1  A    between atoms: C_1  and  C_2
REMARK    2  A    between atoms: C_5  and  O_40
REMARK    3  A    between atoms: C_6  and  N_8
REMARK    4  A    between atoms: N_8  and  C_9
REMARK    5  A    between atoms: C_9  and  C_11
REMARK    6  A    between atoms: C_9  and  C_18
REMARK    7  A    between atoms: N_20  and  C_21
REMARK    8  A    between atoms: C_21  and  C_22
REMARK    9  A    between atoms: C_28  and  C_30
REMARK   10  A    between atoms: C_30  and  N_31
REMARK   11  A    between atoms: O_40  and  C_41
REMARK                            x       y       z     vdW  Elec       q    Type
REMARK                         _______ _______ _______ _____ _____    ______ ____
ROOT
ATOM      1  N   UNL     1       0.012  -2.654   2.397  0.00  0.00    -0.250 N 
ATOM      2  C   UNL     1       1.223  -2.872   2.947  0.00  0.00    +0.242 C 
ATOM      3  O   UNL     1       1.309  -3.400   4.035  0.00  0.00    -0.273 OA
ENDROOT
BRANCH   1   9
ATOM      4  C   UNL     1      -0.269   1.606  -0.042  0.00  0.00    +0.044 C 
ATOM      5  C   UNL     1      -0.230   0.100  -0.030  0.00  0.00    -0.048 A 
ATOM      6  C   UNL     1      -0.298  -0.601  -1.221  0.00  0.00    +0.007 A 
ATOM      7  C   UNL     1      -0.263  -1.983  -1.216  0.00  0.00    +0.048 A 
ATOM      8  C   UNL     1      -0.161  -2.670  -0.017  0.00  0.00    +0.141 A 
ATOM      9  C   UNL     1      -0.092  -1.965   1.182  0.00  0.00    +0.079 A 
ATOM     10  C   UNL     1      -0.121  -0.578   1.169  0.00  0.00    +0.030 A 
BRANCH   8  11
ATOM     11  O   UNL     1      -0.128  -4.029  -0.011  0.00  0.00    -0.493 OA
ATOM     12  C   UNL     1      -0.320  -4.689  -1.265  0.00  0.00    +0.277 C 
ENDBRANCH   8  11
ENDBRANCH   1   9
BRANCH   1  13
ATOM     13  C   UNL     1      -1.196  -3.137   3.071  0.00  0.00    +0.200 C 
BRANCH  13  14
ATOM     14  C   UNL     1      -1.403  -2.363   4.347  0.00  0.00    +0.017 A 
ATOM     15  C   UNL     1      -0.359  -1.643   4.896  0.00  0.00    +0.009 A 
ATOM     16  C   UNL     1      -0.549  -0.933   6.067  0.00  0.00    +0.001 A 
ATOM     17  C   UNL     1      -1.783  -0.942   6.690  0.00  0.00    +0.003 A 
ATOM     18  C   UNL     1      -2.829  -1.661   6.143  0.00  0.00    +0.039 A 
ATOM     19  C   UNL     1      -2.641  -2.369   4.967  0.00  0.00    +0.129 A 
ATOM     20  F   UNL     1      -3.664  -3.068   4.429  0.00  0.00    -0.205 F 
ENDBRANCH  13  14
BRANCH  13  21
ATOM     21  C   UNL     1      -1.041  -4.602   3.391  0.00  0.00    +0.239 C 
ATOM     22  O   UNL     1      -0.021  -5.184   3.087  0.00  0.00    -0.273 OA
ATOM     23  N   UNL     1      -2.034  -5.264   4.016  0.00  0.00    -0.309 N 
ATOM     24  H   UNL     1      -2.849  -4.798   4.260  0.00  0.00    +0.149 HD
BRANCH  23  25
ATOM     25  C   UNL     1      -1.883  -6.688   4.327  0.00  0.00    +0.139 C 
BRANCH  25  26
ATOM     26  C   UNL     1      -3.126  -7.185   5.020  0.00  0.00    -0.030 A 
ATOM     27  C   UNL     1      -3.220  -7.125   6.398  0.00  0.00    +0.005 A 
ATOM     28  C   UNL     1      -4.359  -7.581   7.034  0.00  0.00    +0.000 A 
ATOM     29  C   UNL     1      -5.405  -8.097   6.292  0.00  0.00    +0.000 A 
ATOM     30  C   UNL     1      -5.312  -8.155   4.914  0.00  0.00    +0.000 A 
ATOM     31  C   UNL     1      -4.174  -7.696   4.278  0.00  0.00    +0.005 A 
ENDBRANCH  25  26
ENDBRANCH  23  25
ENDBRANCH  13  21
ENDBRANCH   1  13
BRANCH   2  32
ATOM     32  C   UNL     1       2.471  -2.460   2.209  0.00  0.00    +0.242 C 
BRANCH  32  33
ATOM     33  N   UNL     1       3.648  -2.803   3.010  0.00  0.00    -0.235 N 
ATOM     34  C   UNL     1       4.265  -2.009   3.947  0.00  0.00    +0.090 A 
ATOM     35  C   UNL     1       4.031  -0.727   4.432  0.00  0.00    +0.029 A 
ATOM     36  C   UNL     1       4.850  -0.203   5.393  0.00  0.00    +0.002 A 
ATOM     37  C   UNL     1       5.916  -0.942   5.891  0.00  0.00    +0.002 A 
ATOM     38  C   UNL     1       6.167  -2.202   5.432  0.00  0.00    +0.032 A 
ATOM     39  C   UNL     1       5.342  -2.761   4.447  0.00  0.00    +0.113 A 
ATOM     40  N   UNL     1       5.339  -3.951   3.814  0.00  0.00    -0.129 NA
ATOM     41  N   UNL     1       4.364  -4.009   2.977  0.00  0.00    -0.064 NA
ENDBRANCH  32  33
ENDBRANCH   2  32
TORSDOF 9
