REMARK  Name = ZINC34787505
REMARK  7 active torsions:
REMARK  status: ('A' for Active; 'I' for Inactive)
REMARK    1  A    between atoms: C_1  and  C_2
REMARK    2  A    between atoms: C_4  and  C_36
REMARK    3  A    between atoms: C_11  and  C_16
REMARK    4  A    between atoms: N_22  and  N_23
REMARK    5  A    between atoms: N_22  and  N_31
REMARK    6  A    between atoms: N_23  and  C_24
REMARK    7  A    between atoms: C_24  and  C_25
REMARK                            x       y       z     vdW  Elec       q    Type
REMARK                         _______ _______ _______ _____ _____    ______ ____
ROOT
ATOM      1  C   UNL     1      -4.205   1.933   7.474  0.00  0.00    +0.067 C 
ATOM      2  C   UNL     1      -4.307   1.097   6.225  0.00  0.00    +0.061 A 
ATOM      3  C   UNL     1      -5.174   1.331   5.151  0.00  0.00    +0.048 A 
ATOM      4  C   UNL     1      -4.966   0.365   4.228  0.00  0.00    +0.045 A 
ATOM      5  N   UNL     1      -3.994  -0.457   4.705  0.00  0.00    -0.202 N 
ATOM      6  N   UNL     1      -3.597   0.032   5.957  0.00  0.00    -0.169 NA
ATOM      7  C   UNL     1      -3.480  -1.583   4.061  0.00  0.00    +0.254 A 
ATOM      8  N   UNL     1      -2.532  -2.295   4.654  0.00  0.00    -0.192 NA
ATOM      9  C   UNL     1      -2.007  -3.371   4.093  0.00  0.00    +0.164 A 
ATOM     10  C   UNL     1      -2.467  -3.783   2.813  0.00  0.00    +0.058 A 
ATOM     11  C   UNL     1      -2.052  -4.919   1.997  0.00  0.00    +0.002 A 
ATOM     12  C   UNL     1      -2.645  -5.109   0.795  0.00  0.00    +0.056 A 
ATOM     13  S   UNL     1      -3.807  -3.762   0.686  0.00  0.00    -0.076 S 
ATOM     14  C   UNL     1      -3.475  -2.979   2.242  0.00  0.00    +0.116 A 
ATOM     15  N   UNL     1      -3.951  -1.922   2.871  0.00  0.00    -0.203 NA
ATOM     16  N   UNL     1      -1.019  -4.088   4.744  0.00  0.00    -0.178 N 
ATOM     17  C   UNL     1      -5.681   0.225   2.909  0.00  0.00    +0.066 C 
ENDROOT
BRANCH  11  18
ATOM     18  C   UNL     1      -1.000  -5.847   2.475  0.00  0.00    -0.017 A 
ATOM     19  C   UNL     1       0.246  -5.354   2.861  0.00  0.00    +0.008 A 
ATOM     20  C   UNL     1       1.221  -6.223   3.306  0.00  0.00    +0.001 A 
ATOM     21  C   UNL     1       0.965  -7.581   3.368  0.00  0.00    +0.000 A 
ATOM     22  C   UNL     1      -0.269  -8.076   2.986  0.00  0.00    +0.001 A 
ATOM     23  C   UNL     1      -1.254  -7.217   2.546  0.00  0.00    +0.008 A 
ENDBRANCH  11  18
BRANCH  16  24
ATOM     24  N   UNL     1       0.175  -3.493   5.039  0.00  0.00    -0.211 NA
ATOM     25  C   UNL     1       0.000  -2.429   6.051  0.00  0.00    +0.107 C 
ATOM     26  C   UNL     1       0.389  -3.094   7.395  0.00  0.00    +0.018 C 
ATOM     27  C   UNL     1       1.565  -4.008   6.964  0.00  0.00    +0.018 C 
ATOM     28  C   UNL     1       1.143  -4.478   5.556  0.00  0.00    +0.107 C 
ENDBRANCH  16  24
BRANCH  16  29
ATOM     29  N   UNL     1      -1.237  -5.391   5.092  0.00  0.00    -0.220 NA
ATOM     30  H   UNL     1      -1.232  -5.988   4.278  0.00  0.00    +0.146 HD
BRANCH  29  31
ATOM     31  C   UNL     1      -2.493  -5.532   5.841  0.00  0.00    +0.138 C 
BRANCH  31  32
ATOM     32  C   UNL     1      -3.080  -6.896   5.583  0.00  0.00    -0.032 A 
ATOM     33  C   UNL     1      -3.913  -7.096   4.497  0.00  0.00    +0.005 A 
ATOM     34  C   UNL     1      -4.452  -8.346   4.260  0.00  0.00    +0.000 A 
ATOM     35  C   UNL     1      -4.158  -9.397   5.109  0.00  0.00    +0.000 A 
ATOM     36  C   UNL     1      -3.325  -9.198   6.194  0.00  0.00    +0.000 A 
ATOM     37  C   UNL     1      -2.783  -7.948   6.428  0.00  0.00    +0.005 A 
ENDBRANCH  31  32
ENDBRANCH  29  31
ENDBRANCH  16  29
TORSDOF 5
