REMARK  Name = ZINC08942829
REMARK  5 active torsions:
REMARK  status: ('A' for Active; 'I' for Inactive)
REMARK    1  A    between atoms: N_12  and  C_16
REMARK    2  A    between atoms: C_16  and  C_17
REMARK    3  A    between atoms: N_22  and  C_23
REMARK    4  A    between atoms: C_23  and  C_24
REMARK    5  A    between atoms: C_24  and  C_25
REMARK                            x       y       z     vdW  Elec       q    Type
REMARK                         _______ _______ _______ _____ _____    ______ ____
ROOT
ATOM      1  C   UNL     1      -6.581  -3.967  -3.776  0.00  0.00    +0.214 C 
ENDROOT
BRANCH   1  13
ATOM      2  C   UNL     1     -10.005  -5.526  -6.888  0.00  0.00    +0.014 A 
ATOM      3  C   UNL     1     -11.306  -5.726  -7.199  0.00  0.00    +0.046 A 
ATOM      4  S   UNL     1     -11.572  -4.503  -8.473  0.00  0.00    -0.101 S 
ATOM      5  C   UNL     1      -9.936  -3.821  -8.494  0.00  0.00    -0.005 A 
ATOM      6  C   UNL     1      -9.272  -4.541  -7.547  0.00  0.00    -0.005 A 
ATOM      7  C   UNL     1      -7.809  -4.247  -7.262  0.00  0.00    +0.139 C 
ATOM      8  C   UNL     1      -7.198  -3.456  -8.409  0.00  0.00    +0.040 C 
ATOM      9  C   UNL     1      -8.069  -2.236  -8.729  0.00  0.00    +0.008 C 
ATOM     10  C   UNL     1      -9.393  -2.717  -9.341  0.00  0.00    +0.043 C 
ATOM     11  C   UNL     1      -7.685  -3.499  -5.957  0.00  0.00    +0.251 C 
ATOM     12  O   UNL     1      -8.143  -2.409  -5.688  0.00  0.00    -0.272 OA
ATOM     13  N   UNL     1      -6.953  -4.300  -5.154  0.00  0.00    -0.215 N 
ATOM     14  C   UNL     1      -6.614  -5.439  -5.770  0.00  0.00    +0.310 C 
ATOM     15  O   UNL     1      -5.958  -6.320  -5.250  0.00  0.00    -0.252 OA
ATOM     16  N   UNL     1      -7.080  -5.498  -7.033  0.00  0.00    -0.281 N 
ATOM     17  H   UNL     1      -6.958  -6.223  -7.665  0.00  0.00    +0.152 HD
ENDBRANCH   1  13
BRANCH   1  18
ATOM     18  C   UNL     1      -5.260  -3.242  -3.773  0.00  0.00    +0.238 C 
ATOM     19  O   UNL     1      -4.685  -3.025  -4.819  0.00  0.00    -0.274 OA
ATOM     20  N   UNL     1      -4.717  -2.836  -2.609  0.00  0.00    -0.239 N 
ATOM     21  C   UNL     1      -3.535  -2.188  -2.606  0.00  0.00    +0.306 C 
ATOM     22  O   UNL     1      -2.959  -1.970  -3.654  0.00  0.00    -0.252 OA
ATOM     23  N   UNL     1      -2.992  -1.781  -1.442  0.00  0.00    -0.299 N 
ATOM     24  H   UNL     1      -5.176  -3.009  -1.772  0.00  0.00    +0.159 HD
ATOM     25  H   UNL     1      -3.452  -1.954  -0.606  0.00  0.00    +0.150 HD
BRANCH  23  26
ATOM     26  C   UNL     1      -1.707  -1.076  -1.439  0.00  0.00    +0.110 C 
BRANCH  26  27
ATOM     27  C   UNL     1      -1.319  -0.729  -0.001  0.00  0.00    +0.049 C 
BRANCH  27  28
ATOM     28  C   UNL     1       0.002  -0.004   0.002  0.00  0.00    -0.072 C 
ATOM     29  C   UNL     1      -0.015   1.290   0.009  0.00  0.00    -0.028 C 
ATOM     30  C   UNL     1       1.216   2.148   0.002  0.00  0.00    +0.027 C 
ATOM     31  C   UNL     1       2.437   1.320   0.409  0.00  0.00    +0.004 C 
ATOM     32  C   UNL     1       2.450   0.033  -0.424  0.00  0.00    +0.005 C 
ATOM     33  C   UNL     1       1.256  -0.828  -0.004  0.00  0.00    +0.030 C 
ENDBRANCH  27  28
ENDBRANCH  26  27
ENDBRANCH  23  26
ENDBRANCH   1  18
TORSDOF 5
