REMARK  Name = ZINC02405464
REMARK  8 active torsions:
REMARK  status: ('A' for Active; 'I' for Inactive)
REMARK    1  A    between atoms: C_1  and  O_2
REMARK    2  A    between atoms: O_2  and  C_3
REMARK    3  A    between atoms: C_8  and  N_9
REMARK    4  A    between atoms: C_14  and  C_28
REMARK    5  A    between atoms: N_16  and  C_22
REMARK    6  A    between atoms: C_31  and  O_34
REMARK    7  A    between atoms: O_34  and  C_35
REMARK    8  A    between atoms: C_35  and  C_37
REMARK                            x       y       z     vdW  Elec       q    Type
REMARK                         _______ _______ _______ _____ _____    ______ ____
ROOT
ATOM      1  N   UNL     1      -0.061  -2.870  -0.058  0.00  0.00    -0.204 N 
ATOM      2  C   UNL     1       0.546  -3.375   1.023  0.00  0.00    +0.235 C 
ATOM      3  O   UNL     1       0.141  -3.281   2.162  0.00  0.00    -0.274 OA
ATOM      4  C   UNL     1       1.814  -4.079   0.602  0.00  0.00    +0.145 C 
ATOM      5  C   UNL     1       3.036  -3.293   1.129  0.00  0.00    +0.157 C 
ATOM      6  N   UNL     1       3.905  -3.197  -0.069  0.00  0.00    -0.244 N 
ATOM      7  O   UNL     1       2.999  -2.982  -1.153  0.00  0.00    -0.257 OA
ATOM      8  C   UNL     1       1.856  -3.860  -0.935  0.00  0.00    +0.249 C 
ATOM      9  C   UNL     1       0.580  -3.095  -1.211  0.00  0.00    +0.259 C 
ATOM     10  O   UNL     1       0.198  -2.740  -2.305  0.00  0.00    -0.272 OA
ENDROOT
BRANCH   1  16
ATOM     11  C   UNL     1      -1.270  -0.784   0.182  0.00  0.00    +0.142 A 
ATOM     12  C   UNL     1      -2.471  -0.094   0.244  0.00  0.00    +0.047 A 
ATOM     13  C   UNL     1      -3.667  -0.778   0.142  0.00  0.00    +0.004 A 
ATOM     14  C   UNL     1      -3.671  -2.152  -0.021  0.00  0.00    +0.002 A 
ATOM     15  C   UNL     1      -2.479  -2.847  -0.084  0.00  0.00    +0.027 A 
ATOM     16  C   UNL     1      -1.274  -2.167   0.011  0.00  0.00    +0.086 A 
BRANCH  11  18
ATOM     17  C   UNL     1      -0.166   1.304   0.455  0.00  0.00    +0.277 C 
ATOM     18  O   UNL     1      -0.092  -0.113   0.282  0.00  0.00    -0.493 OA
ENDBRANCH  11  18
ENDBRANCH   1  16
BRANCH   6  19
ATOM     19  C   UNL     1       5.297  -3.296  -0.126  0.00  0.00    +0.065 A 
ATOM     20  C   UNL     1       5.896  -4.232  -0.959  0.00  0.00    +0.028 A 
ATOM     21  C   UNL     1       7.272  -4.327  -1.012  0.00  0.00    +0.002 A 
ATOM     22  C   UNL     1       8.055  -3.490  -0.238  0.00  0.00    +0.000 A 
ATOM     23  C   UNL     1       7.463  -2.557   0.593  0.00  0.00    +0.002 A 
ATOM     24  C   UNL     1       6.086  -2.453   0.647  0.00  0.00    +0.028 A 
ENDBRANCH   6  19
BRANCH   5  25
ATOM     25  C   UNL     1       3.724  -4.053   2.234  0.00  0.00    -0.022 A 
ATOM     26  C   UNL     1       4.456  -5.188   1.938  0.00  0.00    +0.009 A 
ATOM     27  C   UNL     1       5.088  -5.887   2.948  0.00  0.00    +0.047 A 
ATOM     28  C   UNL     1       4.988  -5.449   4.261  0.00  0.00    +0.132 A 
ATOM     29  C   UNL     1       4.253  -4.309   4.555  0.00  0.00    +0.047 A 
ATOM     30  C   UNL     1       3.628  -3.611   3.540  0.00  0.00    +0.009 A 
BRANCH  28  31
ATOM     31  O   UNL     1       5.608  -6.135   5.257  0.00  0.00    -0.422 OA
BRANCH  31  32
ATOM     32  C   UNL     1       6.942  -6.000   5.382  0.00  0.00    +0.344 C 
ATOM     33  O   UNL     1       7.567  -5.354   4.565  0.00  0.00    -0.245 OA
BRANCH  32  34
ATOM     34  C   UNL     1       7.646  -6.636   6.514  0.00  0.00    +0.059 A 
ATOM     35  C   UNL     1       6.932  -7.384   7.453  0.00  0.00    +0.015 A 
ATOM     36  C   UNL     1       7.595  -7.976   8.508  0.00  0.00    +0.001 A 
ATOM     37  C   UNL     1       8.965  -7.830   8.636  0.00  0.00    +0.000 A 
ATOM     38  C   UNL     1       9.679  -7.090   7.710  0.00  0.00    +0.001 A 
ATOM     39  C   UNL     1       9.029  -6.498   6.647  0.00  0.00    +0.015 A 
ENDBRANCH  32  34
ENDBRANCH  31  32
ENDBRANCH  28  31
ENDBRANCH   5  25
TORSDOF 7
