REMARK  Name = ZINC13064781
REMARK  13 active torsions:
REMARK  status: ('A' for Active; 'I' for Inactive)
REMARK    1  A    between atoms: C_1  and  C_2
REMARK    2  A    between atoms: C_2  and  C_3
REMARK    3  A    between atoms: C_3  and  C_5
REMARK    4  A    between atoms: C_3  and  N_68
REMARK    5  A    between atoms: N_9  and  C_10
REMARK    6  A    between atoms: C_10  and  C_11
REMARK    7  A    between atoms: C_10  and  C_12
REMARK    8  A    between atoms: C_10  and  C_13
REMARK    9  A    between atoms: C_14  and  C_15
REMARK   10  A    between atoms: C_14  and  N_68
REMARK   11  A    between atoms: C_18  and  C_28
REMARK   12  A    between atoms: C_20  and  C_27
REMARK   13  A    between atoms: C_29  and  N_68
REMARK                            x       y       z     vdW  Elec       q    Type
REMARK                         _______ _______ _______ _____ _____    ______ ____
ROOT
ATOM      1  N   UNL     1      -0.788  -2.097  -0.788  0.00  0.00    +0.391 N 
ATOM      2  H   UNL     1       0.119  -2.496  -0.519  0.00  0.00    -0.080 HD
ENDROOT
BRANCH   1   3
ATOM      3  C   UNL     1      -0.756  -1.756  -2.225  0.00  0.00    -0.067 C 
ATOM      4  C   UNL     1      -0.589  -3.043  -3.059  0.00  0.00    -0.015 C 
ATOM      5  C   UNL     1       0.356  -2.627  -4.214  0.00  0.00    -0.002 C 
ATOM      6  C   UNL     1       1.350  -1.667  -3.514  0.00  0.00    -0.002 C 
ATOM      7  C   UNL     1       0.476  -0.881  -2.515  0.00  0.00    -0.015 C 
ENDBRANCH   1   3
BRANCH   1   8
ATOM      8  C   UNL     1      -1.035  -0.881   0.015  0.00  0.00    +0.003 C 
BRANCH   8   9
ATOM      9  C   UNL     1      -0.300  -1.014   1.324  0.00  0.00    +0.139 A 
ATOM     10  N   UNL     1      -0.176  -2.102   2.045  0.00  0.00    -0.115 NA
ATOM     11  N   UNL     1       0.520  -1.810   3.089  0.00  0.00    -0.023 NA
ATOM     12  N   UNL     1       0.843  -0.564   3.053  0.00  0.00    -0.043 NA
ATOM     13  N   UNL     1       0.356  -0.039   1.980  0.00  0.00    -0.226 N 
BRANCH  13  14
ATOM     14  C   UNL     1       0.496   1.355   1.553  0.00  0.00    +0.059 C 
ATOM     15  C   UNL     1      -0.889   1.947   1.281  0.00  0.00    +0.036 C 
ATOM     16  C   UNL     1       1.186   2.160   2.656  0.00  0.00    +0.036 C 
ATOM     17  C   UNL     1       1.336   1.416   0.276  0.00  0.00    +0.036 C 
ENDBRANCH  13  14
ENDBRANCH   8   9
BRANCH   8  19
ATOM     18  C   UNL     1      -3.261  -0.448  -1.033  0.00  0.00    +0.002 C 
ATOM     19  C   UNL     1      -2.532  -0.716   0.285  0.00  0.00    -0.011 C 
ENDBRANCH   8  19
ENDBRANCH   1   8
BRANCH   1  20
ATOM     20  C   UNL     1      -1.846  -3.096  -0.529  0.00  0.00    -0.036 C 
BRANCH  20  21
ATOM     21  C   UNL     1      -1.571  -3.760   0.795  0.00  0.00    +0.001 A 
ATOM     22  C   UNL     1      -2.338  -3.460   1.873  0.00  0.00    +0.017 A 
ATOM     23  C   UNL     1      -2.047  -4.125   3.145  0.00  0.00    +0.002 A 
ATOM     24  C   UNL     1      -2.807  -3.861   4.289  0.00  0.00    -0.041 A 
ATOM     25  C   UNL     1      -2.507  -4.495   5.462  0.00  0.00    +0.007 A 
ATOM     26  C   UNL     1      -1.455  -5.399   5.528  0.00  0.00    -0.048 A 
ATOM     27  C   UNL     1      -0.694  -5.674   4.413  0.00  0.00    +0.029 A 
ATOM     28  C   UNL     1      -0.980  -5.041   3.207  0.00  0.00    +0.050 A 
ATOM     29  N   UNL     1      -0.235  -5.298   2.076  0.00  0.00    -0.322 N 
ATOM     30  H   UNL     1       0.500  -5.930   2.121  0.00  0.00    +0.169 HD
ATOM     31  C   UNL     1      -0.513  -4.686   0.912  0.00  0.00    +0.251 A 
ATOM     32  O   UNL     1       0.167  -4.938  -0.068  0.00  0.00    -0.268 OA
ATOM     33  C   UNL     1      -1.143  -6.086   6.832  0.00  0.00    +0.044 C 
ATOM     34  C   UNL     1      -3.950  -2.881   4.230  0.00  0.00    +0.044 C 
ENDBRANCH  20  21
ENDBRANCH   1  20
TORSDOF 7
