REMARK  Name = ZINC09544496
REMARK  8 active torsions:
REMARK  status: ('A' for Active; 'I' for Inactive)
REMARK    1  A    between atoms: C_1  and  C_2
REMARK    2  A    between atoms: C_2  and  O_3
REMARK    3  A    between atoms: O_3  and  C_4
REMARK    4  A    between atoms: C_4  and  C_6
REMARK    5  A    between atoms: C_10  and  N_11
REMARK    6  A    between atoms: C_12  and  C_14
REMARK    7  A    between atoms: C_14  and  C_16
REMARK    8  A    between atoms: C_14  and  N_17
REMARK                            x       y       z     vdW  Elec       q    Type
REMARK                         _______ _______ _______ _____ _____    ______ ____
ROOT
ATOM      1  N   UNL     1      -0.016   1.344   0.009  0.00  0.00    -0.278 N 
ATOM      2  C   UNL     1       0.002  -0.004   0.002  0.00  0.00    +0.238 C 
ATOM      3  O   UNL     1      -1.040  -0.625   0.009  0.00  0.00    -0.273 OA
ATOM      4  H   UNL     1       0.817   1.840   0.004  0.00  0.00    +0.155 HD
ENDROOT
BRANCH   1   9
ATOM      5  C   UNL     1      -1.448   3.391   0.033  0.00  0.00    +0.091 A 
ATOM      6  C   UNL     1      -2.828   3.847   0.036  0.00  0.00    -0.021 A 
ATOM      7  C   UNL     1      -3.757   2.868   0.036  0.00  0.00    -0.004 A 
ATOM      8  S   UNL     1      -2.828   1.361   0.023  0.00  0.00    -0.077 S 
ATOM      9  C   UNL     1      -1.226   2.020   0.019  0.00  0.00    +0.086 A 
ATOM     10  C   UNL     1      -5.246   3.035   0.044  0.00  0.00    +0.043 C 
ATOM     11  C   UNL     1      -5.567   4.486   0.431  0.00  0.00    +0.005 C 
ATOM     12  C   UNL     1      -4.693   5.425  -0.405  0.00  0.00    +0.005 C 
ATOM     13  C   UNL     1      -3.235   5.316   0.044  0.00  0.00    +0.037 C 
BRANCH   5  14
ATOM     14  C   UNL     1      -0.333   4.341   0.040  0.00  0.00    +0.342 C 
ATOM     15  O   UNL     1       0.127   4.746  -1.010  0.00  0.00    -0.245 OA
BRANCH  14  16
ATOM     16  O   UNL     1       0.183   4.766   1.212  0.00  0.00    -0.461 OA
BRANCH  16  18
ATOM     17  C   UNL     1       1.734   6.073   2.559  0.00  0.00    +0.048 C 
ATOM     18  C   UNL     1       1.286   5.708   1.143  0.00  0.00    +0.229 C 
ENDBRANCH  16  18
ENDBRANCH  14  16
ENDBRANCH   5  14
ENDBRANCH   1   9
BRANCH   2  19
ATOM     19  C   UNL     1       1.317  -0.740  -0.015  0.00  0.00    +0.168 C 
ATOM     20  C   UNL     1       2.103  -0.352  -1.269  0.00  0.00    +0.038 C 
BRANCH  19  21
ATOM     21  N   UNL     1       1.069  -2.183  -0.020  0.00  0.00    -0.212 N 
ATOM     22  C   UNL     1       1.505  -3.032   0.936  0.00  0.00    +0.247 C 
ATOM     23  O   UNL     1       2.150  -2.758   1.925  0.00  0.00    -0.273 OA
ATOM     24  C   UNL     1       1.014  -4.393   0.513  0.00  0.00    +0.113 C 
ATOM     25  C   UNL     1       2.189  -5.359   0.308  0.00  0.00    +0.035 C 
ATOM     26  C   UNL     1       2.237  -6.175   1.626  0.00  0.00    +0.003 C 
ATOM     27  C   UNL     1       0.738  -6.352   1.977  0.00  0.00    +0.003 C 
ATOM     28  C   UNL     1       0.092  -5.009   1.569  0.00  0.00    +0.035 C 
ATOM     29  N   UNL     1       0.302  -4.152  -0.744  0.00  0.00    -0.285 N 
ATOM     30  C   UNL     1       0.387  -2.827  -0.976  0.00  0.00    +0.310 C 
ATOM     31  O   UNL     1      -0.101  -2.278  -1.945  0.00  0.00    -0.252 OA
ATOM     32  H   UNL     1      -0.142  -4.813  -1.297  0.00  0.00    +0.151 HD
ENDBRANCH  19  21
ENDBRANCH   2  19
TORSDOF 6
