REMARK  Name = ZINC33331739
REMARK  9 active torsions:
REMARK  status: ('A' for Active; 'I' for Inactive)
REMARK    1  A    between atoms: C_1  and  C_2
REMARK    2  A    between atoms: C_2  and  C_3
REMARK    3  A    between atoms: C_12  and  C_23
REMARK    4  A    between atoms: C_12  and  C_24
REMARK    5  A    between atoms: N_13  and  C_16
REMARK    6  A    between atoms: C_16  and  C_17
REMARK    7  A    between atoms: C_17  and  N_18
REMARK    8  A    between atoms: N_26  and  C_27
REMARK    9  A    between atoms: C_30  and  C_33
REMARK                            x       y       z     vdW  Elec       q    Type
REMARK                         _______ _______ _______ _____ _____    ______ ____
ROOT
ATOM      1  C   UNL     1       4.473   5.183   0.129  0.00  0.00    -0.008 A 
ATOM      2  C   UNL     1       3.132   5.115   0.264  0.00  0.00    +0.037 A 
ATOM      3  C   UNL     1       2.473   3.882   0.156  0.00  0.00    +0.057 A 
ATOM      4  C   UNL     1       3.297   2.775  -0.098  0.00  0.00    +0.038 A 
ATOM      5  S   UNL     1       4.922   3.482  -0.168  0.00  0.00    -0.092 S 
ATOM      6  C   UNL     1       2.519   1.626  -0.183  0.00  0.00    +0.048 A 
ATOM      7  C   UNL     1       1.222   2.004   0.001  0.00  0.00    +0.106 A 
ATOM      8  N   UNL     1       1.188   3.377   0.228  0.00  0.00    -0.333 N 
ATOM      9  C   UNL     1      -0.066   4.084   0.501  0.00  0.00    +0.157 C 
ATOM     10  C   UNL     1      -1.213   3.353  -0.196  0.00  0.00    +0.128 C 
ATOM     11  N   UNL     1      -1.174   1.911   0.018  0.00  0.00    -0.282 N 
ATOM     12  C   UNL     1      -0.014   1.213   0.009  0.00  0.00    +0.264 C 
ATOM     13  O   UNL     1       0.002  -0.004   0.002  0.00  0.00    -0.268 OA
ATOM     14  C   UNL     1      -2.541   3.896   0.335  0.00  0.00    +0.043 C 
ENDROOT
BRANCH  10  15
ATOM     15  C   UNL     1      -1.135   3.623  -1.676  0.00  0.00    +0.238 C 
ATOM     16  O   UNL     1      -1.787   4.521  -2.164  0.00  0.00    -0.273 OA
ATOM     17  N   UNL     1      -0.339   2.866  -2.458  0.00  0.00    -0.311 N 
ATOM     18  H   UNL     1       0.253   2.051  -2.015  0.00  0.00    +0.149 HD
BRANCH  17  19
ATOM     19  C   UNL     1      -0.263   3.128  -3.897  0.00  0.00    +0.073 C 
ATOM     20  C   UNL     1      -1.406   2.402  -4.610  0.00  0.00    +0.022 C 
ATOM     21  C   UNL     1      -1.289   0.897  -4.359  0.00  0.00    +0.005 C 
ATOM     22  C   UNL     1       0.051   0.393  -4.899  0.00  0.00    -0.014 C 
ATOM     23  C   UNL     1       1.194   1.119  -4.187  0.00  0.00    +0.005 C 
ATOM     24  C   UNL     1       1.077   2.624  -4.438  0.00  0.00    +0.022 C 
ATOM     25  C   UNL     1       0.168  -1.112  -4.648  0.00  0.00    +0.007 C 
ENDBRANCH  17  19
ENDBRANCH  10  15
BRANCH   1  27
ATOM     26  C   UNL     1       5.823   6.597   1.655  0.00  0.00    +0.009 C 
ATOM     27  C   UNL     1       5.367   6.394   0.208  0.00  0.00    +0.039 C 
ENDBRANCH   1  27
BRANCH  11  28
ATOM     28  C   UNL     1      -2.431   1.197   0.255  0.00  0.00    +0.091 C 
BRANCH  28  29
ATOM     29  C   UNL     1      -2.725   1.167   1.756  0.00  0.00    -0.060 C 
BRANCH  29  30
ATOM     30  N   UNL     1      -3.985   0.451   1.994  0.00  0.00    +0.381 N 
ATOM     31  C   UNL     1      -3.970  -0.884   1.343  0.00  0.00    -0.079 C 
ATOM     32  C   UNL     1      -5.070  -1.664   2.105  0.00  0.00    -0.020 C 
ATOM     33  C   UNL     1      -4.905  -1.163   3.558  0.00  0.00    -0.020 C 
ATOM     34  C   UNL     1      -4.184   0.193   3.437  0.00  0.00    -0.079 C 
ATOM     35  H   UNL     1      -4.778   1.095   1.587  0.00  0.00    -0.082 HD
ENDBRANCH  29  30
ENDBRANCH  28  29
ENDBRANCH  11  28
TORSDOF 6
