REMARK  Name = ZINC34830043
REMARK  6 active torsions:
REMARK  status: ('A' for Active; 'I' for Inactive)
REMARK    1  A    between atoms: C_4  and  C_7
REMARK    2  A    between atoms: N_16  and  C_17
REMARK    3  A    between atoms: C_17  and  C_18
REMARK    4  A    between atoms: C_18  and  C_19
REMARK    5  A    between atoms: C_28  and  C_30
REMARK    6  A    between atoms: C_33  and  N_36
REMARK                            x       y       z     vdW  Elec       q    Type
REMARK                         _______ _______ _______ _____ _____    ______ ____
ROOT
ATOM      1  C   UNL     1       2.616  -2.121  -4.392  0.00  0.00    +0.214 C 
ATOM      2  O   UNL     1       2.558  -0.926  -4.588  0.00  0.00    -0.276 OA
ATOM      3  N   UNL     1       2.481  -2.980  -5.422  0.00  0.00    -0.300 N 
ATOM      4  C   UNL     1       2.276  -2.519  -6.750  0.00  0.00    +0.109 C 
ATOM      5  C   UNL     1       0.789  -2.193  -7.105  0.00  0.00    +0.038 C 
ATOM      6  C   UNL     1      -0.102  -3.269  -6.402  0.00  0.00    +0.109 C 
ATOM      7  N   UNL     1       0.446  -4.580  -6.396  0.00  0.00    -0.296 N 
ATOM      8  C   UNL     1       1.189  -4.995  -5.178  0.00  0.00    +0.127 C 
ATOM      9  C   UNL     1       2.547  -4.450  -5.219  0.00  0.00    +0.126 C 
ATOM     10  C   UNL     1       0.299  -5.410  -7.447  0.00  0.00    +0.247 C 
ATOM     11  O   UNL     1      -0.315  -5.043  -8.430  0.00  0.00    -0.270 OA
ENDROOT
BRANCH  10  12
ATOM     12  C   UNL     1       0.885  -6.767  -7.406  0.00  0.00    +0.037 A 
ATOM     13  C   UNL     1       0.281  -7.813  -8.106  0.00  0.00    +0.015 A 
ATOM     14  C   UNL     1       0.834  -9.076  -8.063  0.00  0.00    +0.033 A 
ATOM     15  C   UNL     1       1.983  -9.308  -7.329  0.00  0.00    +0.126 A 
ATOM     16  C   UNL     1       2.586  -8.276  -6.633  0.00  0.00    +0.033 A 
ATOM     17  C   UNL     1       2.048  -7.006  -6.672  0.00  0.00    +0.015 A 
BRANCH  15  18
ATOM     18  N   UNL     1       2.570 -10.666  -7.287  0.00  0.00    +0.056 N 
ATOM     19  O   UNL     1       2.044 -11.570  -7.895  0.00  0.00    -0.126 OA
ATOM     20  O   UNL     1       3.574 -10.872  -6.647  0.00  0.00    -0.126 OA
ENDBRANCH  15  18
ENDBRANCH  10  12
BRANCH   1  21
ATOM     21  C   UNL     1       2.838  -2.646  -2.997  0.00  0.00    +0.077 C 
BRANCH  21  22
ATOM     22  C   UNL     1       2.957  -1.472  -2.023  0.00  0.00    -0.068 C 
BRANCH  22  31
ATOM     23  C   UNL     1       3.167  -0.861   0.282  0.00  0.00    -0.006 C 
ATOM     24  C   UNL     1       3.495  -1.387   1.676  0.00  0.00    -0.047 A 
ATOM     25  C   UNL     1       3.204  -0.706   2.855  0.00  0.00    +0.010 A 
ATOM     26  C   UNL     1       3.530  -1.252   4.050  0.00  0.00    +0.045 A 
ATOM     27  S   UNL     1       4.285  -2.795   3.558  0.00  0.00    -0.101 S 
ATOM     28  C   UNL     1       4.111  -2.596   1.808  0.00  0.00    -0.010 A 
ATOM     29  C   UNL     1       4.527  -3.505   0.698  0.00  0.00    +0.024 C 
ATOM     30  C   UNL     1       4.455  -2.701  -0.612  0.00  0.00    -0.072 C 
ATOM     31  N   UNL     1       3.174  -1.984  -0.663  0.00  0.00    +0.388 N 
ATOM     32  H   UNL     1       2.429  -2.621  -0.426  0.00  0.00    -0.080 HD
BRANCH  23  36
ATOM     33  C   UNL     1      -0.696   0.963   0.310  0.00  0.00    +0.000 A 
ATOM     34  C   UNL     1       0.440   1.748   0.374  0.00  0.00    +0.000 A 
ATOM     35  C   UNL     1       1.690   1.158   0.365  0.00  0.00    +0.002 A 
ATOM     36  C   UNL     1       1.804  -0.217   0.293  0.00  0.00    -0.057 A 
ATOM     37  C   UNL     1       0.669  -1.003   0.230  0.00  0.00    +0.002 A 
ATOM     38  C   UNL     1      -0.581  -0.413   0.237  0.00  0.00    +0.000 A 
ENDBRANCH  23  36
ENDBRANCH  22  31
ENDBRANCH  21  22
ENDBRANCH   1  21
TORSDOF 6
