REMARK  Name = ZINC39486263
REMARK  9 active torsions:
REMARK  status: ('A' for Active; 'I' for Inactive)
REMARK    1  A    between atoms: C_1  and  C_2
REMARK    2  A    between atoms: C_2  and  C_3
REMARK    3  A    between atoms: C_2  and  S_4
REMARK    4  A    between atoms: S_4  and  C_7
REMARK    5  A    between atoms: C_11  and  C_13
REMARK    6  A    between atoms: C_23  and  O_36
REMARK    7  A    between atoms: C_25  and  C_27
REMARK    8  A    between atoms: C_27  and  C_29
REMARK    9  A    between atoms: C_34  and  O_35
REMARK                            x       y       z     vdW  Elec       q    Type
REMARK                         _______ _______ _______ _____ _____    ______ ____
ROOT
ATOM      1  C   UNL     1       5.847  -0.880   0.020  0.00  0.00    +0.063 C 
ATOM      2  C   UNL     1       6.357  -0.086   1.192  0.00  0.00    -0.025 A 
ATOM      3  C   UNL     1       5.463   0.655   1.939  0.00  0.00    +0.054 A 
ATOM      4  C   UNL     1       5.901   1.396   3.029  0.00  0.00    +0.167 A 
ATOM      5  C   UNL     1       7.253   1.397   3.379  0.00  0.00    +0.167 A 
ATOM      6  C   UNL     1       8.154   0.660   2.640  0.00  0.00    +0.061 A 
ATOM      7  C   UNL     1       7.710  -0.084   1.540  0.00  0.00    +0.028 A 
ATOM      8  C   UNL     1       8.679  -0.860   0.747  0.00  0.00    +0.192 C 
ATOM      9  O   UNL     1       9.874  -0.714   0.898  0.00  0.00    -0.289 OA
ATOM     10  C   UNL     1       8.131  -1.847  -0.263  0.00  0.00    +0.197 C 
ATOM     11  C   UNL     1       6.962  -1.163  -0.983  0.00  0.00    +0.108 C 
ATOM     12  O   UNL     1       7.418   2.195   4.474  0.00  0.00    -0.453 OA
ATOM     13  C   UNL     1       6.229   3.004   4.542  0.00  0.00    +0.466 C 
ATOM     14  O   UNL     1       5.225   2.192   3.905  0.00  0.00    -0.453 OA
ENDROOT
BRANCH   1  19
ATOM     15  C   UNL     1       2.476   0.084  -1.381  0.00  0.00    +0.089 A 
ATOM     16  C   UNL     1       2.747   1.327  -1.922  0.00  0.00    +0.027 A 
ATOM     17  C   UNL     1       4.021   1.855  -1.836  0.00  0.00    +0.002 A 
ATOM     18  C   UNL     1       5.025   1.141  -1.208  0.00  0.00    +0.004 A 
ATOM     19  C   UNL     1       4.753  -0.101  -0.665  0.00  0.00    -0.037 A 
ATOM     20  C   UNL     1       3.477  -0.627  -0.748  0.00  0.00    +0.031 A 
BRANCH  15  21
ATOM     21  S   UNL     1       0.851  -0.589  -1.490  0.00  0.00    -0.001 S 
ATOM     22  O   UNL     1       1.037  -1.996  -1.428  0.00  0.00    -0.169 OA
ATOM     23  O   UNL     1       0.285   0.016  -2.645  0.00  0.00    -0.169 OA
BRANCH  21  25
ATOM     24  C   UNL     1      -0.019   1.526   0.010  0.00  0.00    +0.032 C 
ATOM     25  C   UNL     1       0.002  -0.004   0.002  0.00  0.00    +0.130 C 
ATOM     26  C   UNL     1      -1.433  -0.534   0.013  0.00  0.00    +0.032 C 
ENDBRANCH  21  25
ENDBRANCH  15  21
ENDBRANCH   1  19
BRANCH  11  27
ATOM     27  C   UNL     1       6.443  -2.068  -2.070  0.00  0.00    +0.173 C 
ATOM     28  O   UNL     1       5.503  -2.803  -1.850  0.00  0.00    -0.292 OA
BRANCH  27  29
ATOM     29  C   UNL     1       7.075  -2.062  -3.395  0.00  0.00    +0.059 A 
ATOM     30  C   UNL     1       8.164  -1.220  -3.652  0.00  0.00    +0.015 A 
ATOM     31  C   UNL     1       8.752  -1.220  -4.897  0.00  0.00    +0.001 A 
ATOM     32  C   UNL     1       8.270  -2.049  -5.899  0.00  0.00    +0.004 A 
ATOM     33  C   UNL     1       7.197  -2.884  -5.660  0.00  0.00    +0.046 A 
ATOM     34  C   UNL     1       6.595  -2.904  -4.411  0.00  0.00    +0.127 A 
BRANCH  34  35
ATOM     35  O   UNL     1       5.545  -3.728  -4.174  0.00  0.00    -0.506 OA
ATOM     36  H   UNL     1       4.683  -3.333  -4.368  0.00  0.00    +0.292 HD
ENDBRANCH  34  35
ENDBRANCH  27  29
ENDBRANCH  11  27
BRANCH  10  37
ATOM     37  O   UNL     1       7.672  -3.023   0.406  0.00  0.00    -0.383 OA
ATOM     38  H   UNL     1       8.359  -3.484   0.907  0.00  0.00    +0.210 HD
ENDBRANCH  10  37
TORSDOF 7
