REMARK  Name = ZINC09460303
REMARK  11 active torsions:
REMARK  status: ('A' for Active; 'I' for Inactive)
REMARK    1  A    between atoms: C_1  and  C_2
REMARK    2  A    between atoms: C_2  and  O_3
REMARK    3  A    between atoms: O_3  and  C_4
REMARK    4  A    between atoms: C_9  and  C_10
REMARK    5  A    between atoms: C_10  and  N_11
REMARK    6  A    between atoms: C_12  and  C_14
REMARK    7  A    between atoms: C_19  and  S_20
REMARK    8  A    between atoms: S_20  and  C_21
REMARK    9  A    between atoms: C_21  and  C_22
REMARK   10  A    between atoms: C_22  and  C_29
REMARK   11  A    between atoms: C_31  and  C_34
REMARK                            x       y       z     vdW  Elec       q    Type
REMARK                         _______ _______ _______ _____ _____    ______ ____
ROOT
ATOM      1  N   UNL     1      -3.574   6.350  -3.128  0.00  0.00    -0.307 N 
ATOM      2  C   UNL     1      -2.982   5.586  -2.189  0.00  0.00    +0.245 C 
ATOM      3  O   UNL     1      -2.981   4.375  -2.302  0.00  0.00    -0.270 OA
ATOM      4  H   UNL     1      -3.575   7.316  -3.038  0.00  0.00    +0.149 HD
ENDROOT
BRANCH   2   5
ATOM      5  C   UNL     1      -2.337   6.219  -1.024  0.00  0.00    +0.050 A 
ATOM      6  C   UNL     1      -2.340   7.609  -0.887  0.00  0.00    +0.014 A 
ATOM      7  C   UNL     1      -1.730   8.194   0.200  0.00  0.00    +0.001 A 
ATOM      8  C   UNL     1      -1.115   7.410   1.165  0.00  0.00    +0.001 A 
ATOM      9  C   UNL     1      -1.108   6.036   1.048  0.00  0.00    +0.015 A 
ATOM     10  C   UNL     1      -1.719   5.427  -0.043  0.00  0.00    +0.020 A 
BRANCH  10  11
ATOM     11  S   UNL     1      -1.711   3.672  -0.196  0.00  0.00    -0.122 S 
BRANCH  11  12
ATOM     12  C   UNL     1      -0.810   3.107   1.274  0.00  0.00    +0.109 C 
BRANCH  12  13
ATOM     13  C   UNL     1      -0.729   1.579   1.267  0.00  0.00    +0.119 C 
ATOM     14  C   UNL     1      -0.026   1.077   2.512  0.00  0.00    +0.244 C 
ATOM     15  O   UNL     1       1.113   1.313   2.856  0.00  0.00    -0.273 OA
ATOM     16  N   UNL     1      -0.929   0.314   3.158  0.00  0.00    -0.238 N 
ATOM     17  C   UNL     1      -2.094   0.265   2.501  0.00  0.00    +0.307 C 
ATOM     18  O   UNL     1      -3.062  -0.361   2.887  0.00  0.00    -0.252 OA
ATOM     19  N   UNL     1      -2.073   0.985   1.365  0.00  0.00    -0.285 N 
ATOM     20  C   UNL     1      -0.013   1.086   0.008  0.00  0.00    +0.042 C 
ATOM     21  H   UNL     1      -0.757  -0.144   3.995  0.00  0.00    +0.159 HD
ATOM     22  H   UNL     1      -2.802   1.093   0.734  0.00  0.00    +0.151 HD
ENDBRANCH  12  13
ENDBRANCH  11  12
ENDBRANCH  10  11
ENDBRANCH   2   5
BRANCH   1  23
ATOM     23  C   UNL     1      -4.215   5.722  -4.286  0.00  0.00    +0.143 C 
BRANCH  23  29
ATOM     24  C   UNL     1      -3.972   7.484  -6.049  0.00  0.00    +0.126 A 
ATOM     25  C   UNL     1      -4.513   8.460  -6.875  0.00  0.00    +0.053 A 
ATOM     26  C   UNL     1      -5.861   8.737  -6.820  0.00  0.00    +0.001 A 
ATOM     27  C   UNL     1      -6.693   8.052  -5.944  0.00  0.00    +0.125 A 
ATOM     28  C   UNL     1      -6.146   7.071  -5.122  0.00  0.00    +0.054 A 
ATOM     29  C   UNL     1      -4.797   6.788  -5.178  0.00  0.00    +0.015 A 
ATOM     30  O   UNL     1      -7.979   8.491  -6.040  0.00  0.00    -0.488 OA
ATOM     31  C   UNL     1      -8.151   9.183  -7.289  0.00  0.00    +0.175 C 
ATOM     32  C   UNL     1      -6.730   9.719  -7.582  0.00  0.00    +0.083 C 
ATOM     33  C   UNL     1      -9.145  10.337  -7.137  0.00  0.00    +0.052 C 
BRANCH  24  34
ATOM     34  O   UNL     1      -2.641   7.210  -6.096  0.00  0.00    -0.492 OA
BRANCH  34  36
ATOM     35  C   UNL     1      -0.394   7.522  -6.929  0.00  0.00    +0.048 C 
ATOM     36  C   UNL     1      -1.855   7.968  -7.018  0.00  0.00    +0.225 C 
ENDBRANCH  34  36
ENDBRANCH  24  34
ENDBRANCH  23  29
ENDBRANCH   1  23
TORSDOF 8
