REMARK  Name = ZINC09399297
REMARK  11 active torsions:
REMARK  status: ('A' for Active; 'I' for Inactive)
REMARK    1  A    between atoms: C_1  and  C_2
REMARK    2  A    between atoms: C_2  and  N_3
REMARK    3  A    between atoms: C_7  and  S_33
REMARK    4  A    between atoms: N_12  and  C_13
REMARK    5  A    between atoms: C_13  and  C_15
REMARK    6  A    between atoms: C_18  and  S_21
REMARK    7  A    between atoms: S_21  and  N_24
REMARK    8  A    between atoms: N_24  and  C_25
REMARK    9  A    between atoms: N_24  and  C_27
REMARK   10  A    between atoms: C_25  and  C_26
REMARK   11  A    between atoms: S_33  and  C_34
REMARK                            x       y       z     vdW  Elec       q    Type
REMARK                         _______ _______ _______ _____ _____    ______ ____
ROOT
ATOM      1  C   UNL     1       0.543  -3.114   0.229  0.00  0.00    +0.039 A 
ATOM      2  C   UNL     1       0.620  -2.506   1.482  0.00  0.00    +0.015 A 
ATOM      3  C   UNL     1       0.858  -1.150   1.573  0.00  0.00    +0.029 A 
ATOM      4  C   UNL     1       1.021  -0.394   0.426  0.00  0.00    +0.109 A 
ATOM      5  C   UNL     1       0.940  -0.991  -0.820  0.00  0.00    +0.029 A 
ATOM      6  C   UNL     1       0.708  -2.347  -0.924  0.00  0.00    +0.015 A 
ENDROOT
BRANCH   4   7
ATOM      7  S   UNL     1       1.324   1.337   0.551  0.00  0.00    +0.075 S 
ATOM      8  O   UNL     1       0.897   1.914  -0.676  0.00  0.00    -0.150 OA
ATOM      9  O   UNL     1       0.806   1.750   1.808  0.00  0.00    -0.150 OA
BRANCH   7  10
ATOM     10  N   UNL     1       2.965   1.543   0.625  0.00  0.00    -0.203 N 
BRANCH  10  11
ATOM     11  C   UNL     1       3.601   1.649   1.864  0.00  0.00    +0.051 A 
ATOM     12  C   UNL     1       4.569   0.724   2.231  0.00  0.00    +0.025 A 
ATOM     13  C   UNL     1       5.199   0.835   3.455  0.00  0.00    +0.002 A 
ATOM     14  C   UNL     1       4.859   1.860   4.319  0.00  0.00    +0.000 A 
ATOM     15  C   UNL     1       3.892   2.780   3.958  0.00  0.00    +0.002 A 
ATOM     16  C   UNL     1       3.262   2.678   2.733  0.00  0.00    +0.025 A 
ENDBRANCH  10  11
BRANCH  10  17
ATOM     17  C   UNL     1       3.751   1.613  -0.610  0.00  0.00    +0.128 C 
ATOM     18  C   UNL     1       3.952   3.077  -1.004  0.00  0.00    +0.026 C 
ENDBRANCH  10  17
ENDBRANCH   7  10
ENDBRANCH   4   7
BRANCH   1  19
ATOM     19  C   UNL     1       0.286  -4.569   0.124  0.00  0.00    +0.269 C 
ATOM     20  O   UNL     1       0.142  -5.237   1.133  0.00  0.00    -0.268 OA
BRANCH  19  30
ATOM     21  N   UNL     1      -0.123  -7.213  -2.296  0.00  0.00    -0.321 N 
ATOM     22  C   UNL     1      -0.367  -8.573  -2.195  0.00  0.00    +0.058 A 
ATOM     23  C   UNL     1      -0.508  -9.510  -3.231  0.00  0.00    +0.028 A 
ATOM     24  C   UNL     1      -0.750 -10.834  -2.955  0.00  0.00    +0.017 A 
ATOM     25  C   UNL     1      -0.863 -11.287  -1.644  0.00  0.00    +0.009 A 
ATOM     26  C   UNL     1      -0.727 -10.378  -0.601  0.00  0.00    +0.032 A 
ATOM     27  C   UNL     1      -0.485  -9.055  -0.883  0.00  0.00    +0.040 A 
ATOM     28  S   UNL     1      -0.245  -7.602   0.108  0.00  0.00    -0.052 S 
ATOM     29  C   UNL     1      -0.017  -6.455  -1.172  0.00  0.00    +0.167 A 
ATOM     30  N   UNL     1       0.213  -5.150  -1.078  0.00  0.00    -0.152 NA
BRANCH  21  32
ATOM     31  C   UNL     1      -0.606  -5.196  -3.591  0.00  0.00    +0.027 C 
ATOM     32  C   UNL     1       0.020  -6.592  -3.614  0.00  0.00    +0.121 C 
ENDBRANCH  21  32
BRANCH  25  33
ATOM     33  S   UNL     1      -1.173 -12.989  -1.311  0.00  0.00    -0.129 S 
ATOM     34  C   UNL     1      -1.266 -13.748  -2.956  0.00  0.00    +0.090 C 
ENDBRANCH  25  33
ENDBRANCH  19  30
ENDBRANCH   1  19
TORSDOF 8
