REMARK  Name = ZINC01173252
REMARK  10 active torsions:
REMARK  status: ('A' for Active; 'I' for Inactive)
REMARK    1  A    between atoms: C_1  and  C_2
REMARK    2  A    between atoms: C_5  and  S_8
REMARK    3  A    between atoms: S_8  and  N_11
REMARK    4  A    between atoms: N_11  and  C_12
REMARK    5  A    between atoms: N_11  and  C_24
REMARK    6  A    between atoms: C_12  and  C_13
REMARK    7  A    between atoms: N_15  and  C_16
REMARK    8  A    between atoms: C_19  and  C_23
REMARK    9  A    between atoms: C_27  and  O_31
REMARK   10  A    between atoms: O_31  and  C_32
REMARK                            x       y       z     vdW  Elec       q    Type
REMARK                         _______ _______ _______ _____ _____    ______ ____
ROOT
ATOM      1  N   UNL     1      -6.022   2.990  -0.209  0.00  0.00    -0.194 N 
ENDROOT
BRANCH   1   2
ATOM      2  C   UNL     1      -6.497   2.439  -1.405  0.00  0.00    +0.053 A 
ATOM      3  C   UNL     1      -7.768   1.881  -1.457  0.00  0.00    +0.028 A 
ATOM      4  C   UNL     1      -8.238   1.343  -2.639  0.00  0.00    +0.049 A 
ATOM      5  C   UNL     1      -7.438   1.350  -3.771  0.00  0.00    +0.138 A 
ATOM      6  C   UNL     1      -6.166   1.903  -3.720  0.00  0.00    +0.084 A 
ATOM      7  C   UNL     1      -5.696   2.446  -2.539  0.00  0.00    +0.048 A 
ATOM      8 CL   UNL     1      -5.166   1.912  -5.138  0.00  0.00    -0.080 Cl
BRANCH   5   9
ATOM      9  O   UNL     1      -7.901   0.816  -4.934  0.00  0.00    -0.494 OA
ATOM     10  C   UNL     1      -9.219   0.264  -4.915  0.00  0.00    +0.277 C 
ENDBRANCH   5   9
ENDBRANCH   1   2
BRANCH   1  11
ATOM     11  S   UNL     1      -6.614   2.453   1.241  0.00  0.00    +0.075 S 
ATOM     12  O   UNL     1      -7.044   1.114   1.034  0.00  0.00    -0.150 OA
ATOM     13  O   UNL     1      -5.650   2.800   2.226  0.00  0.00    -0.150 OA
BRANCH  11  18
ATOM     14  C   UNL     1     -11.562   5.685   2.457  0.00  0.00    +0.044 C 
ATOM     15  C   UNL     1     -10.326   4.877   2.154  0.00  0.00    -0.050 A 
ATOM     16  C   UNL     1     -10.442   3.628   1.573  0.00  0.00    +0.005 A 
ATOM     17  C   UNL     1      -9.308   2.888   1.294  0.00  0.00    +0.029 A 
ATOM     18  C   UNL     1      -8.059   3.397   1.596  0.00  0.00    +0.109 A 
ATOM     19  C   UNL     1      -7.943   4.644   2.182  0.00  0.00    +0.029 A 
ATOM     20  C   UNL     1      -9.077   5.386   2.456  0.00  0.00    +0.005 A 
ENDBRANCH  11  18
ENDBRANCH   1  11
BRANCH   1  21
ATOM     21  C   UNL     1      -5.002   4.040  -0.241  0.00  0.00    +0.227 C 
BRANCH  21  22
ATOM     22  C   UNL     1      -3.635   3.411  -0.326  0.00  0.00    +0.236 C 
ATOM     23  O   UNL     1      -3.525   2.204  -0.357  0.00  0.00    -0.274 OA
ATOM     24  N   UNL     1      -2.536   4.190  -0.367  0.00  0.00    -0.284 N 
ATOM     25  H   UNL     1      -2.619   5.151  -0.271  0.00  0.00    +0.155 HD
BRANCH  24  26
ATOM     26  C   UNL     1      -1.275   3.611  -0.548  0.00  0.00    +0.035 A 
ATOM     27  C   UNL     1      -0.303   4.278  -1.283  0.00  0.00    +0.023 A 
ATOM     28  C   UNL     1       0.939   3.702  -1.466  0.00  0.00    +0.006 A 
ATOM     29  C   UNL     1       1.219   2.468  -0.909  0.00  0.00    -0.032 A 
ATOM     30  C   UNL     1       0.255   1.803  -0.172  0.00  0.00    +0.046 A 
ATOM     31  C   UNL     1      -0.992   2.372   0.010  0.00  0.00    +0.043 A 
ATOM     32 CL   UNL     1       0.611   0.253   0.525  0.00  0.00    -0.083 Cl
ATOM     33  C   UNL     1       2.578   1.845  -1.106  0.00  0.00    +0.045 C 
ENDBRANCH  24  26
ENDBRANCH  21  22
ENDBRANCH   1  21
TORSDOF 7
