REMARK  Name = ZINC14944840
REMARK  3 active torsions:
REMARK  status: ('A' for Active; 'I' for Inactive)
REMARK    1  A    between atoms: C_4  and  N_7
REMARK    2  A    between atoms: N_30  and  C_33
REMARK    3  A    between atoms: C_33  and  C_34
REMARK                            x       y       z     vdW  Elec       q    Type
REMARK                         _______ _______ _______ _____ _____    ______ ____
ROOT
ATOM      1  N   UNL     1       4.772   0.827  -2.632  0.00  0.00    -0.210 N 
ATOM      2  C   UNL     1       5.357   1.287  -1.482  0.00  0.00    +0.228 C 
ATOM      3  O   UNL     1       6.535   1.270  -1.195  0.00  0.00    -0.275 OA
ATOM      4  C   UNL     1       4.218   1.820  -0.650  0.00  0.00    +0.074 C 
ATOM      5  C   UNL     1       4.194   1.647   0.854  0.00  0.00    -0.054 C 
ATOM      6  C   UNL     1       5.435   1.043   1.506  0.00  0.00    -0.015 C 
ATOM      7  C   UNL     1       5.154   1.032   3.020  0.00  0.00    -0.003 C 
ATOM      8  C   UNL     1       3.868   0.286   3.362  0.00  0.00    -0.019 C 
ATOM      9  C   UNL     1       2.682   0.769   2.502  0.00  0.00    -0.076 C 
ATOM     10  N   UNL     1       3.104   0.656   1.133  0.00  0.00    +0.395 N 
ATOM     11  C   UNL     1       2.190   0.699  -0.015  0.00  0.00    +0.053 C 
ATOM     12  C   UNL     1       3.209   0.668  -1.079  0.00  0.00    +0.089 C 
ATOM     13  C   UNL     1       3.406   0.669  -2.506  0.00  0.00    +0.229 C 
ATOM     14  O   UNL     1       2.575   0.559  -3.382  0.00  0.00    -0.275 OA
ATOM     15  C   UNL     1       1.292   1.886  -0.000  0.00  0.00    -0.027 A 
ATOM     16  C   UNL     1       1.547   3.241   0.004  0.00  0.00    +0.004 A 
ATOM     17  C   UNL     1       0.450   4.095   0.018  0.00  0.00    +0.000 A 
ATOM     18  C   UNL     1      -0.841   3.608   0.029  0.00  0.00    +0.002 A 
ATOM     19  C   UNL     1      -1.109   2.248   0.030  0.00  0.00    +0.024 A 
ATOM     20  C   UNL     1      -0.017   1.380   0.010  0.00  0.00    +0.039 A 
ATOM     21  N   UNL     1       0.002  -0.004   0.002  0.00  0.00    -0.268 N 
ATOM     22  C   UNL     1       1.261  -0.492  -0.012  0.00  0.00    +0.215 C 
ATOM     23  O   UNL     1       1.584  -1.661  -0.021  0.00  0.00    -0.276 OA
ATOM     24  H   UNL     1       3.334  -0.418   1.187  0.00  0.00    -0.079 HD
ENDROOT
BRANCH   1  28
ATOM     25  C   UNL     1       6.883  -0.005  -6.129  0.00  0.00    +0.000 A 
ATOM     26  C   UNL     1       7.554   0.457  -5.012  0.00  0.00    +0.002 A 
ATOM     27  C   UNL     1       6.857   0.734  -3.852  0.00  0.00    +0.024 A 
ATOM     28  C   UNL     1       5.482   0.547  -3.808  0.00  0.00    +0.044 A 
ATOM     29  C   UNL     1       4.812   0.078  -4.930  0.00  0.00    +0.024 A 
ATOM     30  C   UNL     1       5.513  -0.191  -6.089  0.00  0.00    +0.002 A 
ENDBRANCH   1  28
BRANCH  21  31
ATOM     31  C   UNL     1      -1.201  -0.840   0.009  0.00  0.00    +0.148 C 
BRANCH  31  32
ATOM     32  C   UNL     1      -1.627  -1.119  -1.409  0.00  0.00    -0.030 A 
ATOM     33  C   UNL     1      -2.510  -0.267  -2.046  0.00  0.00    +0.008 A 
ATOM     34  C   UNL     1      -2.897  -0.519  -3.349  0.00  0.00    +0.038 A 
ATOM     35  C   UNL     1      -2.409  -1.633  -4.012  0.00  0.00    +0.123 A 
ATOM     36  C   UNL     1      -1.529  -2.489  -3.371  0.00  0.00    +0.038 A 
ATOM     37  C   UNL     1      -1.139  -2.231  -2.071  0.00  0.00    +0.008 A 
ATOM     38  F   UNL     1      -2.791  -1.884  -5.283  0.00  0.00    -0.205 F 
ENDBRANCH  31  32
ENDBRANCH  21  31
TORSDOF 3
