REMARK  Name = ZINC34921542
REMARK  11 active torsions:
REMARK  status: ('A' for Active; 'I' for Inactive)
REMARK    1  A    between atoms: C_1  and  N_2
REMARK    2  A    between atoms: N_2  and  C_3
REMARK    3  A    between atoms: N_2  and  C_4
REMARK    4  A    between atoms: C_7  and  N_25
REMARK    5  A    between atoms: C_9  and  C_10
REMARK    6  A    between atoms: C_10  and  N_11
REMARK    7  A    between atoms: N_11  and  C_12
REMARK    8  A    between atoms: C_12  and  C_13
REMARK    9  A    between atoms: C_18  and  C_20
REMARK   10  A    between atoms: C_26  and  C_28
REMARK   11  A    between atoms: C_31  and  N_34
REMARK                            x       y       z     vdW  Elec       q    Type
REMARK                         _______ _______ _______ _____ _____    ______ ____
ROOT
ATOM      1  C   UNL     1      -0.344  -0.872  -0.969  0.00  0.00    +0.034 A 
ATOM      2  C   UNL     1       0.818  -1.305  -1.596  0.00  0.00    +0.025 A 
ATOM      3  C   UNL     1       0.756  -1.845  -2.865  0.00  0.00    +0.025 A 
ATOM      4  C   UNL     1      -0.466  -1.956  -3.515  0.00  0.00    +0.034 A 
ATOM      5  C   UNL     1      -1.627  -1.523  -2.888  0.00  0.00    +0.030 A 
ATOM      6  C   UNL     1      -1.567  -0.988  -1.617  0.00  0.00    -0.007 A 
ENDROOT
BRANCH   4   7
ATOM      7  N   UNL     1      -0.528  -2.504  -4.802  0.00  0.00    -0.281 N 
ATOM      8  C   UNL     1       0.314  -3.495  -5.154  0.00  0.00    +0.248 C 
ATOM      9  O   UNL     1       1.064  -3.978  -4.327  0.00  0.00    -0.270 OA
ATOM     10  H   UNL     1      -1.177  -2.169  -5.441  0.00  0.00    +0.155 HD
BRANCH   8  11
ATOM     11  C   UNL     1       0.327  -3.996  -6.545  0.00  0.00    +0.037 A 
ATOM     12  C   UNL     1      -0.529  -3.441  -7.497  0.00  0.00    +0.015 A 
ATOM     13  C   UNL     1      -0.512  -3.912  -8.794  0.00  0.00    +0.033 A 
ATOM     14  C   UNL     1       0.350  -4.934  -9.150  0.00  0.00    +0.126 A 
ATOM     15  C   UNL     1       1.200  -5.490  -8.210  0.00  0.00    +0.033 A 
ATOM     16  C   UNL     1       1.198  -5.023  -6.912  0.00  0.00    +0.015 A 
BRANCH  14  17
ATOM     17  N   UNL     1       0.362  -5.436 -10.543  0.00  0.00    +0.056 N 
ATOM     18  O   UNL     1      -0.380  -4.953 -11.366  0.00  0.00    -0.126 OA
ATOM     19  O   UNL     1       1.114  -6.329 -10.857  0.00  0.00    -0.126 OA
ENDBRANCH  14  17
ENDBRANCH   8  11
ENDBRANCH   4   7
BRANCH   1  21
ATOM     20  C   UNL     1      -0.143   1.123   0.491  0.00  0.00    +0.129 C 
ATOM     21  N   UNL     1      -0.282  -0.325   0.317  0.00  0.00    -0.336 N 
ATOM     22  C   UNL     1      -0.356  -1.200   1.490  0.00  0.00    +0.129 C 
ENDBRANCH   1  21
BRANCH   6  23
ATOM     23  C   UNL     1      -2.828  -0.523  -0.934  0.00  0.00    +0.145 C 
BRANCH  23  24
ATOM     24  N   UNL     1      -3.979  -0.794  -1.798  0.00  0.00    -0.285 N 
ATOM     25  C   UNL     1      -4.335   0.097  -2.745  0.00  0.00    +0.254 C 
ATOM     26  O   UNL     1      -5.342  -0.085  -3.404  0.00  0.00    -0.269 OA
BRANCH  25  27
ATOM     27  C   UNL     1      -3.509   1.284  -2.983  0.00  0.00    +0.074 A 
ATOM     28  C   UNL     1      -3.748   2.362  -3.821  0.00  0.00    +0.021 A 
ATOM     29  C   UNL     1      -2.778   3.336  -3.833  0.00  0.00    +0.008 A 
ATOM     30  C   UNL     1      -1.683   3.185  -3.047  0.00  0.00    +0.046 A 
ATOM     31  S   UNL     1      -1.938   1.722  -2.263  0.00  0.00    -0.092 S 
ENDBRANCH  25  27
BRANCH  24  32
ATOM     32  C   UNL     1      -4.744  -2.032  -1.633  0.00  0.00    +0.182 C 
BRANCH  32  33
ATOM     33  C   UNL     1      -5.927  -1.777  -0.736  0.00  0.00    +0.122 A 
ATOM     34  C   UNL     1      -7.175  -1.483  -1.144  0.00  0.00    +0.046 A 
ATOM     35  C   UNL     1      -7.959  -1.323   0.021  0.00  0.00    +0.041 A 
ATOM     36  C   UNL     1      -7.144  -1.529   1.071  0.00  0.00    +0.195 A 
ATOM     37  O   UNL     1      -5.916  -1.808   0.607  0.00  0.00    -0.466 OA
ENDBRANCH  32  33
ENDBRANCH  24  32
ENDBRANCH  23  24
ENDBRANCH   6  23
TORSDOF 9
