REMARK  Name = ZINC35591733
REMARK  13 active torsions:
REMARK  status: ('A' for Active; 'I' for Inactive)
REMARK    1  A    between atoms: C_1  and  C_2
REMARK    2  A    between atoms: C_2  and  C_40
REMARK    3  A    between atoms: C_7  and  C_24
REMARK    4  A    between atoms: C_7  and  O_31
REMARK    5  A    between atoms: C_9  and  O_14
REMARK    6  A    between atoms: O_14  and  C_15
REMARK    7  A    between atoms: C_15  and  C_16
REMARK    8  A    between atoms: N_26  and  C_27
REMARK    9  A    between atoms: C_27  and  C_28
REMARK   10  A    between atoms: C_28  and  O_29
REMARK   11  A    between atoms: O_29  and  C_30
REMARK   12  A    between atoms: O_31  and  C_32
REMARK   13  A    between atoms: C_32  and  C_33
REMARK                            x       y       z     vdW  Elec       q    Type
REMARK                         _______ _______ _______ _____ _____    ______ ____
ROOT
ATOM      1  C   UNL     1      -0.433   1.730  -0.161  0.00  0.00    +0.074 C 
ATOM      2  C   UNL     1      -0.384   0.204  -0.262  0.00  0.00    +0.165 C 
ATOM      3  O   UNL     1      -1.713  -0.336  -0.099  0.00  0.00    -0.343 OA
ATOM      4  C   UNL     1      -1.490  -1.564   0.617  0.00  0.00    +0.156 C 
ATOM      5  C   UNL     1      -2.724  -2.095   1.293  0.00  0.00    +0.079 C 
ATOM      6  C   UNL     1      -3.249  -1.202   2.396  0.00  0.00    +0.150 C 
ATOM      7  C   UNL     1      -2.168  -0.780   3.366  0.00  0.00    +0.079 C 
ATOM      8  C   UNL     1      -0.943  -0.222   2.679  0.00  0.00    +0.153 C 
ATOM      9  C   UNL     1      -0.396  -1.149   1.621  0.00  0.00    +0.179 C 
ATOM     10  O   UNL     1       0.456  -0.322   0.780  0.00  0.00    -0.341 OA
ATOM     11  C   UNL     1       0.172  -0.204  -1.627  0.00  0.00    +0.074 C 
ENDROOT
BRANCH   6  12
ATOM     12  C   UNL     1      -4.321  -1.942   3.153  0.00  0.00    +0.245 C 
ATOM     13  O   UNL     1      -4.343  -3.154   3.145  0.00  0.00    -0.273 OA
ATOM     14  N   UNL     1      -5.256  -1.256   3.840  0.00  0.00    -0.311 N 
ATOM     15  H   UNL     1      -5.280  -0.288   3.792  0.00  0.00    +0.149 HD
BRANCH  14  16
ATOM     16  C   UNL     1      -6.237  -1.974   4.659  0.00  0.00    +0.132 C 
BRANCH  16  17
ATOM     17  C   UNL     1      -7.177  -0.968   5.327  0.00  0.00    +0.178 C 
BRANCH  17  18
ATOM     18  O   UNL     1      -7.941  -0.293   4.326  0.00  0.00    -0.381 OA
ATOM     19  C   UNL     1      -8.856   0.674   4.847  0.00  0.00    +0.194 C 
ENDBRANCH  17  18
ENDBRANCH  16  17
ENDBRANCH  14  16
ENDBRANCH   6  12
BRANCH   8  20
ATOM     20  O   UNL     1       0.070   0.010   3.660  0.00  0.00    -0.369 OA
BRANCH  20  21
ATOM     21  C   UNL     1       0.031   1.316   4.238  0.00  0.00    +0.201 C 
BRANCH  21  22
ATOM     22  C   UNL     1       1.137   1.449   5.253  0.00  0.00    +0.048 A 
ATOM     23  C   UNL     1       0.910   1.104   6.574  0.00  0.00    +0.131 A 
ATOM     24  C   UNL     1       1.927   1.226   7.506  0.00  0.00    +0.039 A 
ATOM     25  C   UNL     1       3.168   1.694   7.117  0.00  0.00    +0.006 A 
ATOM     26  C   UNL     1       3.396   2.039   5.799  0.00  0.00    +0.039 A 
ATOM     27  C   UNL     1       2.382   1.911   4.864  0.00  0.00    +0.131 A 
ATOM     28  F   UNL     1       2.607   2.243   3.574  0.00  0.00    -0.205 F 
ATOM     29  F   UNL     1      -0.304   0.647   6.954  0.00  0.00    -0.205 F 
ENDBRANCH  21  22
ENDBRANCH  20  21
ENDBRANCH   8  20
BRANCH   6  30
ATOM     30  O   UNL     1      -3.824  -0.033   1.809  0.00  0.00    -0.359 OA
BRANCH  30  31
ATOM     31  C   UNL     1      -4.950  -0.298   0.970  0.00  0.00    +0.196 C 
BRANCH  31  32
ATOM     32  C   UNL     1      -5.553   1.005   0.511  0.00  0.00    -0.022 A 
ATOM     33  C   UNL     1      -6.541   1.612   1.263  0.00  0.00    +0.009 A 
ATOM     34  C   UNL     1      -7.094   2.807   0.843  0.00  0.00    +0.038 A 
ATOM     35  C   UNL     1      -6.657   3.396  -0.331  0.00  0.00    +0.123 A 
ATOM     36  C   UNL     1      -5.667   2.787  -1.084  0.00  0.00    +0.038 A 
ATOM     37  C   UNL     1      -5.112   1.595  -0.659  0.00  0.00    +0.009 A 
ATOM     38  F   UNL     1      -7.197   4.564  -0.743  0.00  0.00    -0.205 F 
ENDBRANCH  31  32
ENDBRANCH  30  31
ENDBRANCH   6  30
TORSDOF 10
