REMARK  Name = ZINC20559486
REMARK  9 active torsions:
REMARK  status: ('A' for Active; 'I' for Inactive)
REMARK    1  A    between atoms: C_1  and  C_2
REMARK    2  A    between atoms: C_5  and  C_8
REMARK    3  A    between atoms: C_8  and  C_10
REMARK    4  A    between atoms: C_8  and  N_21
REMARK    5  A    between atoms: C_26  and  C_29
REMARK    6  A    between atoms: C_29  and  C_30
REMARK    7  A    between atoms: N_32  and  C_33
REMARK    8  A    between atoms: C_36  and  C_40
REMARK    9  A    between atoms: C_38  and  C_39
REMARK                            x       y       z     vdW  Elec       q    Type
REMARK                         _______ _______ _______ _____ _____    ______ ____
ROOT
ATOM      1  N   UNL     1      -1.336   3.064   1.156  0.00  0.00    -0.314 N 
ATOM      2  C   UNL     1      -1.728   2.613   2.381  0.00  0.00    +0.148 C 
ATOM      3  N   UNL     1      -2.107   1.388   2.709  0.00  0.00    -0.158 NA
ATOM      4  C   UNL     1      -2.471   1.027   3.911  0.00  0.00    +0.252 C 
ATOM      5  O   UNL     1      -2.815  -0.106   4.186  0.00  0.00    -0.272 OA
ATOM      6  C   UNL     1      -2.427   2.153   4.938  0.00  0.00    +0.150 C 
ATOM      7  S   UNL     1      -1.836   3.518   3.860  0.00  0.00    -0.080 S 
ATOM      8  H   UNL     1      -1.044   4.116   1.024  0.00  0.00    +0.149 HD
ENDROOT
BRANCH   1   9
ATOM      9  C   UNL     1      -1.301   2.146   0.014  0.00  0.00    +0.143 C 
BRANCH   9  10
ATOM     10  C   UNL     1       0.012   1.407   0.003  0.00  0.00    +0.106 A 
ATOM     11  C   UNL     1       0.038   0.044  -0.011  0.00  0.00    +0.263 A 
ATOM     12  N   UNL     1       1.245  -0.608  -0.027  0.00  0.00    -0.275 N 
ATOM     13  H   UNL     1       1.276  -1.708  -0.039  0.00  0.00    +0.173 HD
ATOM     14  C   UNL     1       2.396   0.088  -0.028  0.00  0.00    +0.329 A 
ATOM     15  O   UNL     1       3.457  -0.507  -0.042  0.00  0.00    -0.247 OA
ATOM     16  N   UNL     1       2.392   1.434  -0.013  0.00  0.00    -0.275 N 
ATOM     17  H   UNL     1       3.342   1.987  -0.014  0.00  0.00    +0.173 HD
ATOM     18  C   UNL     1       1.228   2.114   0.002  0.00  0.00    +0.263 A 
ATOM     19  O   UNL     1       1.229   3.332   0.015  0.00  0.00    -0.267 OA
ATOM     20  O   UNL     1      -1.115  -0.658  -0.011  0.00  0.00    -0.267 OA
ENDBRANCH   9  10
BRANCH   9  25
ATOM     21  C   UNL     1      -1.863   5.151  -4.890  0.00  0.00    +0.044 C 
ATOM     22  C   UNL     1      -1.716   4.367  -3.611  0.00  0.00    -0.050 A 
ATOM     23  C   UNL     1      -2.359   3.152  -3.468  0.00  0.00    +0.004 A 
ATOM     24  C   UNL     1      -2.225   2.433  -2.294  0.00  0.00    +0.006 A 
ATOM     25  C   UNL     1      -1.447   2.929  -1.265  0.00  0.00    -0.022 A 
ATOM     26  C   UNL     1      -0.809   4.147  -1.406  0.00  0.00    +0.006 A 
ATOM     27  C   UNL     1      -0.939   4.864  -2.581  0.00  0.00    +0.004 A 
ENDBRANCH   9  25
ENDBRANCH   1   9
BRANCH   6  28
ATOM     28  C   UNL     1      -1.424   1.853   6.053  0.00  0.00    +0.120 C 
BRANCH  28  29
ATOM     29  C   UNL     1      -1.504   2.930   7.104  0.00  0.00    +0.219 C 
ATOM     30  O   UNL     1      -2.287   3.848   6.973  0.00  0.00    -0.275 OA
ATOM     31  N   UNL     1      -0.707   2.874   8.188  0.00  0.00    -0.285 N 
ATOM     32  H   UNL     1      -0.062   1.998   8.353  0.00  0.00    +0.155 HD
BRANCH  31  33
ATOM     33  C   UNL     1      -0.697   3.931   9.105  0.00  0.00    +0.036 A 
ATOM     34  C   UNL     1      -1.064   5.208   8.700  0.00  0.00    +0.024 A 
ATOM     35  C   UNL     1      -1.059   6.248   9.608  0.00  0.00    +0.005 A 
ATOM     36  C   UNL     1      -0.679   6.021  10.918  0.00  0.00    -0.050 A 
ATOM     37  C   UNL     1      -0.308   4.753  11.324  0.00  0.00    +0.008 A 
ATOM     38  C   UNL     1      -0.316   3.707  10.422  0.00  0.00    -0.029 A 
ATOM     39  C   UNL     1       0.088   2.325  10.865  0.00  0.00    +0.045 C 
ATOM     40  C   UNL     1      -0.669   7.160  11.906  0.00  0.00    +0.044 C 
ENDBRANCH  31  33
ENDBRANCH  28  29
ENDBRANCH   6  28
TORSDOF 6
