REMARK  Name = ZINC43667559
REMARK  8 active torsions:
REMARK  status: ('A' for Active; 'I' for Inactive)
REMARK    1  A    between atoms: C_1  and  C_2
REMARK    2  A    between atoms: C_5  and  O_19
REMARK    3  A    between atoms: C_6  and  C_8
REMARK    4  A    between atoms: C_8  and  C_10
REMARK    5  A    between atoms: C_8  and  N_11
REMARK    6  A    between atoms: C_12  and  N_18
REMARK    7  A    between atoms: C_14  and  C_16
REMARK    8  A    between atoms: O_19  and  C_20
REMARK                            x       y       z     vdW  Elec       q    Type
REMARK                         _______ _______ _______ _____ _____    ______ ____
ROOT
ATOM      1  C   UNL     1       0.052  -2.841   2.493  0.00  0.00    +0.140 C 
ATOM      2  C   UNL     1       1.300  -2.458   3.291  0.00  0.00    +0.038 C 
ENDROOT
BRANCH   1   8
ATOM      3  C   UNL     1      -0.018   1.503   0.010  0.00  0.00    +0.044 C 
ATOM      4  C   UNL     1       0.002  -0.004   0.002  0.00  0.00    -0.050 A 
ATOM      5  C   UNL     1       0.006  -0.688  -1.200  0.00  0.00    +0.007 A 
ATOM      6  C   UNL     1       0.024  -2.069  -1.210  0.00  0.00    +0.046 A 
ATOM      7  C   UNL     1       0.039  -2.770  -0.013  0.00  0.00    +0.125 A 
ATOM      8  C   UNL     1       0.036  -2.082   1.191  0.00  0.00    +0.019 A 
ATOM      9  C   UNL     1       0.023  -0.701   1.196  0.00  0.00    +0.012 A 
BRANCH   7  10
ATOM     10  O   UNL     1       0.057  -4.129  -0.021  0.00  0.00    -0.495 OA
ATOM     11  C   UNL     1       0.058  -4.771  -1.298  0.00  0.00    +0.277 C 
ENDBRANCH   7  10
ENDBRANCH   1   8
BRANCH   1  12
ATOM     12  N   UNL     1      -1.145  -2.506   3.269  0.00  0.00    -0.242 N 
ATOM     13  C   UNL     1      -2.099  -3.379   3.685  0.00  0.00    +0.134 A 
ATOM     14  C   UNL     1      -3.034  -2.665   4.372  0.00  0.00    +0.103 A 
ATOM     15  C   UNL     1      -2.636  -1.325   4.371  0.00  0.00    +0.080 A 
ATOM     16  N   UNL     1      -1.506  -1.229   3.718  0.00  0.00    -0.173 NA
ATOM     17  C   UNL     1      -3.380  -0.185   5.018  0.00  0.00    +0.069 C 
ATOM     18 CL   UNL     1      -4.466  -3.306   5.115  0.00  0.00    -0.078 Cl
BRANCH  13  19
ATOM     19  N   UNL     1      -2.117  -4.752   3.452  0.00  0.00    -0.342 N 
ATOM     20  H   UNL     1      -1.400  -5.168   2.948  0.00  0.00    +0.144 HD
ATOM     21  H   UNL     1      -2.847  -5.292   3.793  0.00  0.00    +0.144 HD
ENDBRANCH  13  19
ENDBRANCH   1  12
TORSDOF 4
