REMARK  Name = ZINC00922502
REMARK  8 active torsions:
REMARK  status: ('A' for Active; 'I' for Inactive)
REMARK    1  A    between atoms: C_3  and  C_6
REMARK    2  A    between atoms: C_6  and  C_7
REMARK    3  A    between atoms: N_9  and  C_10
REMARK    4  A    between atoms: N_9  and  C_19
REMARK    5  A    between atoms: C_19  and  C_21
REMARK    6  A    between atoms: C_19  and  C_28
REMARK    7  A    between atoms: C_24  and  O_27
REMARK    8  A    between atoms: N_30  and  C_31
REMARK                            x       y       z     vdW  Elec       q    Type
REMARK                         _______ _______ _______ _____ _____    ______ ____
ROOT
ATOM      1  C   UNL     1       4.655   0.331  -3.107  0.00  0.00    +0.197 C 
ENDROOT
BRANCH   1   2
ATOM      2  C   UNL     1       6.042   0.851  -3.386  0.00  0.00    -0.018 A 
ATOM      3  C   UNL     1       7.033   0.720  -2.431  0.00  0.00    +0.009 A 
ATOM      4  C   UNL     1       8.307   1.190  -2.687  0.00  0.00    +0.046 A 
ATOM      5  C   UNL     1       8.588   1.805  -3.898  0.00  0.00    +0.117 A 
ATOM      6  C   UNL     1       7.590   1.940  -4.853  0.00  0.00    +0.046 A 
ATOM      7  C   UNL     1       6.320   1.462  -4.595  0.00  0.00    +0.009 A 
BRANCH   5   8
ATOM      8  O   UNL     1       9.838   2.274  -4.149  0.00  0.00    -0.507 OA
ATOM      9  H   UNL     1       9.976   3.192  -3.877  0.00  0.00    +0.292 HD
ENDBRANCH   5   8
ENDBRANCH   1   2
BRANCH   1  10
ATOM     10  C   UNL     1       4.719  -1.149  -2.832  0.00  0.00    +0.239 C 
ATOM     11  O   UNL     1       4.339  -1.584  -1.766  0.00  0.00    -0.273 OA
ATOM     12  N   UNL     1       5.199  -1.989  -3.771  0.00  0.00    -0.311 N 
ATOM     13  H   UNL     1       5.503  -1.641  -4.623  0.00  0.00    +0.149 HD
BRANCH  12  14
ATOM     14  C   UNL     1       5.261  -3.428  -3.503  0.00  0.00    +0.073 C 
ATOM     15  C   UNL     1       6.558  -3.753  -2.759  0.00  0.00    +0.022 C 
ATOM     16  C   UNL     1       6.623  -5.255  -2.479  0.00  0.00    +0.002 C 
ATOM     17  C   UNL     1       6.588  -6.022  -3.803  0.00  0.00    +0.000 C 
ATOM     18  C   UNL     1       5.291  -5.698  -4.547  0.00  0.00    +0.002 C 
ATOM     19  C   UNL     1       5.226  -4.195  -4.826  0.00  0.00    +0.022 C 
ENDBRANCH  12  14
ENDBRANCH   1  10
BRANCH   1  22
ATOM     20  C   UNL     1       2.823   0.804  -1.573  0.00  0.00    +0.226 C 
ATOM     21  O   UNL     1       2.160  -0.033  -2.149  0.00  0.00    -0.275 OA
ATOM     22  N   UNL     1       4.101   1.022  -1.940  0.00  0.00    -0.255 N 
BRANCH  22  23
ATOM     23  C   UNL     1       4.899   1.909  -1.206  0.00  0.00    +0.041 A 
ATOM     24  C   UNL     1       5.287   3.119  -1.766  0.00  0.00    +0.027 A 
ATOM     25  C   UNL     1       6.074   3.995  -1.043  0.00  0.00    +0.051 A 
ATOM     26  C   UNL     1       6.480   3.668   0.241  0.00  0.00    +0.166 A 
ATOM     27  C   UNL     1       6.092   2.455   0.804  0.00  0.00    +0.168 A 
ATOM     28  C   UNL     1       5.298   1.580   0.082  0.00  0.00    +0.073 A 
ATOM     29  O   UNL     1       6.615   2.372   2.063  0.00  0.00    -0.453 OA
ATOM     30  C   UNL     1       6.982   3.718   2.416  0.00  0.00    +0.466 C 
ATOM     31  O   UNL     1       7.245   4.346   1.147  0.00  0.00    -0.453 OA
ENDBRANCH  22  23
BRANCH  20  32
ATOM     32  C   UNL     1       2.217   1.599  -0.445  0.00  0.00    +0.138 C 
BRANCH  32  35
ATOM     33  C   UNL     1      -1.223   0.175   0.362  0.00  0.00    +0.008 A 
ATOM     34  C   UNL     1       0.153   0.301   0.413  0.00  0.00    +0.011 A 
ATOM     35  C   UNL     1       0.752   1.266  -0.326  0.00  0.00    -0.001 A 
ATOM     36  S   UNL     1      -0.645   2.043  -1.122  0.00  0.00    -0.101 S 
ATOM     37  C   UNL     1      -1.933   1.028  -0.416  0.00  0.00    +0.045 A 
ENDBRANCH  32  35
ENDBRANCH  20  32
ENDBRANCH   1  22
TORSDOF 8
