REMARK  Name = ZINC35778864
REMARK  13 active torsions:
REMARK  status: ('A' for Active; 'I' for Inactive)
REMARK    1  A    between atoms: C_1  and  O_2
REMARK    2  A    between atoms: O_2  and  C_3
REMARK    3  A    between atoms: C_8  and  O_9
REMARK    4  A    between atoms: O_9  and  C_10
REMARK    5  A    between atoms: C_10  and  C_11
REMARK    6  A    between atoms: C_21  and  C_23
REMARK    7  A    between atoms: C_23  and  N_24
REMARK    8  A    between atoms: N_24  and  C_25
REMARK    9  A    between atoms: N_24  and  C_28
REMARK   10  A    between atoms: C_25  and  C_26
REMARK   11  A    between atoms: C_28  and  C_29
REMARK   12  A    between atoms: C_29  and  C_31
REMARK   13  A    between atoms: C_29  and  O_37
REMARK                            x       y       z     vdW  Elec       q    Type
REMARK                         _______ _______ _______ _____ _____    ______ ____
ROOT
ATOM      1  C   UNL     1       2.293  -4.682   0.024  0.00  0.00    +0.144 C 
ATOM      2  C   UNL     1       3.397  -4.193   0.960  0.00  0.00    -0.014 A 
ATOM      3  C   UNL     1       3.446  -4.514   2.316  0.00  0.00    +0.013 A 
ATOM      4  C   UNL     1       4.451  -4.041   3.087  0.00  0.00    +0.046 A 
ATOM      5  S   UNL     1       5.405  -3.096   1.909  0.00  0.00    -0.101 S 
ATOM      6  C   UNL     1       4.397  -3.403   0.483  0.00  0.00    -0.004 A 
ATOM      7  C   UNL     1       4.595  -2.917  -0.916  0.00  0.00    +0.061 C 
ATOM      8  C   UNL     1       3.281  -3.100  -1.691  0.00  0.00    +0.113 C 
ATOM      9  N   UNL     1       2.725  -4.420  -1.356  0.00  0.00    -0.292 N 
ATOM     10  C   UNL     1       2.616  -5.377  -2.299  0.00  0.00    +0.200 C 
ATOM     11  O   UNL     1       2.158  -6.462  -2.012  0.00  0.00    -0.278 OA
ENDROOT
BRANCH   1  12
ATOM     12  C   UNL     1       0.995  -3.925   0.312  0.00  0.00    +0.256 C 
BRANCH  12  13
ATOM     13  O   UNL     1       1.238  -2.518   0.239  0.00  0.00    -0.486 OA
BRANCH  13  19
ATOM     14  C   UNL     1       0.343  -0.316   0.417  0.00  0.00    +0.161 A 
ATOM     15  C   UNL     1      -0.739   0.517   0.649  0.00  0.00    +0.049 A 
ATOM     16  C   UNL     1      -1.978  -0.024   0.941  0.00  0.00    +0.004 A 
ATOM     17  C   UNL     1      -2.139  -1.396   1.001  0.00  0.00    +0.004 A 
ATOM     18  C   UNL     1      -1.063  -2.232   0.770  0.00  0.00    +0.049 A 
ATOM     19  C   UNL     1       0.179  -1.697   0.472  0.00  0.00    +0.162 A 
BRANCH  14  21
ATOM     20  C   UNL     1       1.656   1.640   0.091  0.00  0.00    +0.277 C 
ATOM     21  O   UNL     1       1.562   0.215   0.130  0.00  0.00    -0.491 OA
ENDBRANCH  14  21
ENDBRANCH  13  19
ENDBRANCH  12  13
ENDBRANCH   1  12
BRANCH  10  22
ATOM     22  C   UNL     1       3.062  -5.097  -3.711  0.00  0.00    +0.019 C 
BRANCH  22  23
ATOM     23  N   UNL     1       2.840  -6.289  -4.540  0.00  0.00    +0.390 N 
ATOM     24  H   UNL     1       3.304  -7.081  -4.121  0.00  0.00    -0.081 HD
BRANCH  23  25
ATOM     25  C   UNL     1       1.399  -6.559  -4.635  0.00  0.00    -0.051 C 
BRANCH  25  26
ATOM     26  C   UNL     1       0.698  -5.349  -5.197  0.00  0.00    -0.053 C 
ATOM     27  C   UNL     1      -0.035  -5.461  -6.277  0.00  0.00    +0.002 C 
ENDBRANCH  25  26
ENDBRANCH  23  25
BRANCH  23  28
ATOM     28  C   UNL     1       3.384  -6.059  -5.885  0.00  0.00    -0.041 C 
BRANCH  28  29
ATOM     29  C   UNL     1       3.300  -7.352  -6.698  0.00  0.00    +0.128 C 
BRANCH  29  30
ATOM     30  C   UNL     1       3.765  -7.091  -8.108  0.00  0.00    -0.021 A 
ATOM     31  C   UNL     1       5.112  -7.149  -8.413  0.00  0.00    +0.006 A 
ATOM     32  C   UNL     1       5.538  -6.909  -9.706  0.00  0.00    +0.000 A 
ATOM     33  C   UNL     1       4.617  -6.612 -10.694  0.00  0.00    +0.000 A 
ATOM     34  C   UNL     1       3.270  -6.555 -10.388  0.00  0.00    +0.000 A 
ATOM     35  C   UNL     1       2.844  -6.799  -9.096  0.00  0.00    +0.006 A 
ENDBRANCH  29  30
BRANCH  29  36
ATOM     36  O   UNL     1       4.133  -8.346  -6.098  0.00  0.00    -0.389 OA
ATOM     37  H   UNL     1       5.067  -8.100  -6.050  0.00  0.00    +0.210 HD
ENDBRANCH  29  36
ENDBRANCH  28  29
ENDBRANCH  23  28
ENDBRANCH  22  23
ENDBRANCH  10  22
TORSDOF 12
