REMARK  Name = ZINC04647634
REMARK  11 active torsions:
REMARK  status: ('A' for Active; 'I' for Inactive)
REMARK    1  A    between atoms: C_1  and  C_2
REMARK    2  A    between atoms: C_5  and  N_8
REMARK    3  A    between atoms: N_8  and  S_9
REMARK    4  A    between atoms: S_9  and  C_12
REMARK    5  A    between atoms: C_14  and  C_20
REMARK    6  A    between atoms: C_17  and  O_18
REMARK    7  A    between atoms: O_18  and  C_19
REMARK    8  A    between atoms: C_20  and  O_22
REMARK    9  A    between atoms: O_22  and  C_23
REMARK   10  A    between atoms: C_23  and  C_24
REMARK   11  A    between atoms: C_34  and  C_36
REMARK                            x       y       z     vdW  Elec       q    Type
REMARK                         _______ _______ _______ _____ _____    ______ ____
ROOT
ATOM      1  C   UNL     1       2.235  -0.150  -0.028  0.00  0.00    +0.151 A 
ATOM      2  C   UNL     1       1.190  -1.046  -0.007  0.00  0.00    +0.047 A 
ATOM      3  C   UNL     1      -0.127  -0.580   0.041  0.00  0.00    +0.061 A 
ATOM      4  C   UNL     1      -0.378   0.795   0.067  0.00  0.00    +0.018 A 
ATOM      5  C   UNL     1       0.673   1.684   0.045  0.00  0.00    +0.048 A 
ATOM      6  C   UNL     1       1.981   1.217  -0.002  0.00  0.00    +0.147 A 
ENDROOT
BRANCH   1   7
ATOM      7  S   UNL     1       3.895  -0.735  -0.088  0.00  0.00    +0.076 S 
ATOM      8  O   UNL     1       4.614  -0.022   0.909  0.00  0.00    -0.150 OA
ATOM      9  O   UNL     1       3.825  -2.155  -0.108  0.00  0.00    -0.150 OA
BRANCH   7  10
ATOM     10  N   UNL     1       4.526  -0.272  -1.548  0.00  0.00    -0.216 N 
ATOM     11  H   UNL     1       5.282   0.334  -1.579  0.00  0.00    +0.174 HD
BRANCH  10  16
ATOM     12  C   UNL     1       2.262  -2.232  -6.364  0.00  0.00    +0.044 C 
ATOM     13  C   UNL     1       2.864  -1.711  -5.084  0.00  0.00    -0.050 A 
ATOM     14  C   UNL     1       3.173  -0.369  -4.963  0.00  0.00    +0.005 A 
ATOM     15  C   UNL     1       3.724   0.112  -3.792  0.00  0.00    +0.025 A 
ATOM     16  C   UNL     1       3.968  -0.755  -2.734  0.00  0.00    +0.048 A 
ATOM     17  C   UNL     1       3.661  -2.104  -2.861  0.00  0.00    +0.025 A 
ATOM     18  C   UNL     1       3.106  -2.577  -4.033  0.00  0.00    +0.005 A 
ENDBRANCH  10  16
ENDBRANCH   7  10
ENDBRANCH   1   7
BRANCH   6  19
ATOM     19  O   UNL     1       3.014   2.097  -0.022  0.00  0.00    -0.493 OA
ATOM     20  C   UNL     1       2.689   3.481   0.118  0.00  0.00    +0.277 C 
ENDBRANCH   6  19
BRANCH   3  21
ATOM     21  C   UNL     1      -1.250  -1.537   0.063  0.00  0.00    +0.340 C 
ATOM     22  O   UNL     1      -1.030  -2.732   0.041  0.00  0.00    -0.245 OA
BRANCH  21  23
ATOM     23  O   UNL     1      -2.518  -1.086   0.109  0.00  0.00    -0.452 OA
BRANCH  23  24
ATOM     24  C   UNL     1      -3.573  -2.084   0.128  0.00  0.00    +0.328 C 
BRANCH  24  25
ATOM     25  C   UNL     1      -4.913  -1.398   0.179  0.00  0.00    +0.258 C 
ATOM     26  O   UNL     1      -4.974  -0.187   0.197  0.00  0.00    -0.271 OA
ATOM     27  N   UNL     1      -6.045  -2.130   0.205  0.00  0.00    -0.265 N 
ATOM     28  C   UNL     1      -6.096  -3.527   0.189  0.00  0.00    +0.040 A 
ATOM     29  C   UNL     1      -5.049  -4.451   0.144  0.00  0.00    +0.024 A 
ATOM     30  C   UNL     1      -5.316  -5.803   0.136  0.00  0.00    +0.002 A 
ATOM     31  C   UNL     1      -6.622  -6.256   0.172  0.00  0.00    +0.000 A 
ATOM     32  C   UNL     1      -7.663  -5.348   0.215  0.00  0.00    +0.005 A 
ATOM     33  C   UNL     1      -7.401  -3.991   0.224  0.00  0.00    -0.024 A 
ATOM     34  C   UNL     1      -8.333  -2.801   0.268  0.00  0.00    +0.059 C 
ATOM     35  C   UNL     1      -7.401  -1.579   0.260  0.00  0.00    +0.083 C 
ATOM     36  C   UNL     1      -7.674  -0.715  -0.973  0.00  0.00    +0.029 C 
ENDBRANCH  24  25
ENDBRANCH  23  24
ENDBRANCH  21  23
ENDBRANCH   3  21
TORSDOF 8
