REMARK  Name = ZINC12572032
REMARK  11 active torsions:
REMARK  status: ('A' for Active; 'I' for Inactive)
REMARK    1  A    between atoms: C_1  and  C_2
REMARK    2  A    between atoms: C_7  and  C_14
REMARK    3  A    between atoms: N_11  and  C_12
REMARK    4  A    between atoms: N_11  and  C_13
REMARK    5  A    between atoms: C_14  and  N_15
REMARK    6  A    between atoms: N_15  and  C_16
REMARK    7  A    between atoms: C_16  and  C_17
REMARK    8  A    between atoms: C_17  and  C_18
REMARK    9  A    between atoms: C_25  and  C_27
REMARK   10  A    between atoms: C_32  and  C_34
REMARK   11  A    between atoms: C_32  and  C_35
REMARK                            x       y       z     vdW  Elec       q    Type
REMARK                         _______ _______ _______ _____ _____    ______ ____
ROOT
ATOM      1  N   UNL     1      -1.528   2.163   3.908  0.00  0.00    -0.297 N 
ATOM      2  C   UNL     1      -1.363   2.749   5.111  0.00  0.00    +0.219 C 
ATOM      3  O   UNL     1      -1.451   3.954   5.216  0.00  0.00    -0.275 OA
ENDROOT
BRANCH   2   4
ATOM      4  C   UNL     1      -1.067   1.907   6.325  0.00  0.00    +0.080 C 
ATOM      5  C   UNL     1       0.447   1.837   6.544  0.00  0.00    +0.041 C 
ATOM      6  C   UNL     1       0.734   1.046   7.823  0.00  0.00    +0.161 C 
ATOM      7  O   UNL     1       0.071   1.668   8.926  0.00  0.00    -0.374 OA
ATOM      8  C   UNL     1      -1.352   1.720   8.798  0.00  0.00    +0.065 C 
ATOM      9  C   UNL     1      -1.722   2.538   7.558  0.00  0.00    +0.047 C 
ATOM     10  C   UNL     1      -1.952   2.378  10.041  0.00  0.00    +0.041 C 
ATOM     11  C   UNL     1      -1.903   0.300   8.655  0.00  0.00    +0.041 C 
ENDBRANCH   2   4
BRANCH   1  12
ATOM     12  C   UNL     1      -1.681   2.987   2.707  0.00  0.00    +0.146 C 
BRANCH  12  19
ATOM     13  C   UNL     1       5.804   3.907   0.261  0.00  0.00    +0.044 C 
ATOM     14  C   UNL     1       4.474   3.626   0.911  0.00  0.00    -0.048 A 
ATOM     15  C   UNL     1       4.435   2.967   2.138  0.00  0.00    +0.004 A 
ATOM     16  C   UNL     1       3.248   2.699   2.750  0.00  0.00    +0.010 A 
ATOM     17  C   UNL     1       2.048   3.091   2.138  0.00  0.00    -0.001 A 
ATOM     18  C   UNL     1       0.800   2.830   2.741  0.00  0.00    +0.018 A 
ATOM     19  C   UNL     1      -0.327   3.241   2.096  0.00  0.00    +0.008 A 
ATOM     20  C   UNL     1      -0.225   3.895   0.859  0.00  0.00    +0.103 A 
ATOM     21  C   UNL     1       2.084   3.760   0.890  0.00  0.00    +0.048 A 
ATOM     22  C   UNL     1       3.328   4.020   0.290  0.00  0.00    +0.029 A 
ATOM     23  N   UNL     1      -1.382   4.302   0.212  0.00  0.00    -0.322 N 
ATOM     24  C   UNL     1      -1.476   5.768   0.173  0.00  0.00    +0.130 C 
ATOM     25  C   UNL     1      -1.456   3.734  -1.141  0.00  0.00    +0.130 C 
ATOM     26  N   UNL     1       0.945   4.172   0.234  0.00  0.00    -0.343 N 
ATOM     27  H   UNL     1       0.981   4.657  -0.671  0.00  0.00    +0.167 HD
ENDBRANCH  12  19
ENDBRANCH   1  12
BRANCH   1  28
ATOM     28  C   UNL     1      -1.556   0.702   3.803  0.00  0.00    +0.113 C 
BRANCH  28  29
ATOM     29  C   UNL     1      -2.976   0.198   4.068  0.00  0.00    +0.054 C 
BRANCH  29  30
ATOM     30  C   UNL     1      -3.008  -1.303   3.940  0.00  0.00    -0.046 A 
ATOM     31  C   UNL     1      -3.206  -1.886   2.702  0.00  0.00    +0.006 A 
ATOM     32  C   UNL     1      -3.232  -3.263   2.583  0.00  0.00    +0.038 A 
ATOM     33  C   UNL     1      -3.068  -4.058   3.704  0.00  0.00    +0.123 A 
ATOM     34  C   UNL     1      -2.875  -3.472   4.944  0.00  0.00    +0.038 A 
ATOM     35  C   UNL     1      -2.845  -2.095   5.061  0.00  0.00    +0.006 A 
ATOM     36  F   UNL     1      -3.097  -5.403   3.589  0.00  0.00    -0.205 F 
ENDBRANCH  29  30
ENDBRANCH  28  29
ENDBRANCH   1  28
TORSDOF 6
