REMARK  Name = ZINC08591066
REMARK  10 active torsions:
REMARK  status: ('A' for Active; 'I' for Inactive)
REMARK    1  A    between atoms: C_1  and  C_2
REMARK    2  A    between atoms: C_2  and  C_3
REMARK    3  A    between atoms: C_3  and  N_4
REMARK    4  A    between atoms: N_15  and  C_18
REMARK    5  A    between atoms: C_18  and  C_19
REMARK    6  A    between atoms: N_21  and  C_22
REMARK    7  A    between atoms: C_22  and  C_23
REMARK    8  A    between atoms: N_26  and  C_29
REMARK    9  A    between atoms: C_29  and  C_30
REMARK   10  A    between atoms: C_33  and  C_36
REMARK                            x       y       z     vdW  Elec       q    Type
REMARK                         _______ _______ _______ _____ _____    ______ ____
ROOT
ATOM      1  C   UNL     1      -3.193  -3.076  -5.129  0.00  0.00    +0.235 C 
ATOM      2  O   UNL     1      -2.067  -3.223  -5.554  0.00  0.00    -0.274 OA
ATOM      3  N   UNL     1      -4.205  -2.807  -5.978  0.00  0.00    -0.314 N 
ATOM      4  H   UNL     1      -5.106  -2.689  -5.638  0.00  0.00    +0.149 HD
ENDROOT
BRANCH   1   5
ATOM      5  C   UNL     1      -3.462  -3.193  -3.651  0.00  0.00    +0.243 C 
BRANCH   5  17
ATOM      6  N   UNL     1       0.738  -1.962  -1.265  0.00  0.00    -0.336 N 
ATOM      7  C   UNL     1       1.731  -2.740  -0.708  0.00  0.00    +0.050 A 
ATOM      8  C   UNL     1       2.907  -2.426  -0.031  0.00  0.00    +0.026 A 
ATOM      9  C   UNL     1       3.727  -3.434   0.424  0.00  0.00    +0.002 A 
ATOM     10  C   UNL     1       3.394  -4.765   0.216  0.00  0.00    +0.001 A 
ATOM     11  C   UNL     1       2.245  -5.095  -0.446  0.00  0.00    +0.010 A 
ATOM     12  C   UNL     1       1.399  -4.090  -0.915  0.00  0.00    +0.009 A 
ATOM     13  C   UNL     1       0.123  -4.095  -1.644  0.00  0.00    +0.033 A 
ATOM     14  C   UNL     1      -0.235  -2.760  -1.825  0.00  0.00    +0.118 A 
ATOM     15  C   UNL     1      -1.444  -2.471  -2.503  0.00  0.00    +0.292 A 
ATOM     16  O   UNL     1      -1.788  -1.314  -2.683  0.00  0.00    -0.264 OA
ATOM     17  N   UNL     1      -2.210  -3.487  -2.949  0.00  0.00    -0.219 N 
ATOM     18  N   UNL     1      -1.827  -4.816  -2.750  0.00  0.00    -0.175 NA
ATOM     19  C   UNL     1      -0.716  -5.117  -2.137  0.00  0.00    +0.143 A 
BRANCH   6  20
ATOM     20  C   UNL     1       0.718  -0.497  -1.257  0.00  0.00    +0.122 C 
BRANCH  20  22
ATOM     21  C   UNL     1      -0.019   1.526   0.010  0.00  0.00    +0.005 C 
ATOM     22  C   UNL     1       0.002  -0.004   0.002  0.00  0.00    +0.018 C 
ENDBRANCH  20  22
ENDBRANCH   6  20
ENDBRANCH   5  17
ENDBRANCH   1   5
BRANCH   3  23
ATOM     23  C   UNL     1      -3.944  -2.693  -7.415  0.00  0.00    +0.107 C 
BRANCH  23  24
ATOM     24  C   UNL     1      -5.251  -2.386  -8.148  0.00  0.00    +0.003 C 
ATOM     25  C   UNL     1      -6.206  -3.576  -8.013  0.00  0.00    -0.014 C 
ATOM     26  C   UNL     1      -7.479  -3.296  -8.814  0.00  0.00    -0.078 C 
ATOM     27  N   UNL     1      -7.138  -3.099 -10.228  0.00  0.00    +0.382 N 
ATOM     28  C   UNL     1      -6.281  -1.916 -10.374  0.00  0.00    -0.078 C 
ATOM     29  C   UNL     1      -4.961  -2.144  -9.633  0.00  0.00    -0.014 C 
ATOM     30  H   UNL     1      -6.649  -3.912 -10.571  0.00  0.00    -0.081 HD
BRANCH  27  31
ATOM     31  C   UNL     1      -8.370  -2.907 -11.005  0.00  0.00    -0.043 C 
BRANCH  31  32
ATOM     32  C   UNL     1      -8.032  -2.828 -12.471  0.00  0.00    -0.064 A 
ATOM     33  C   UNL     1      -7.745  -1.605 -13.049  0.00  0.00    +0.002 A 
ATOM     34  C   UNL     1      -7.435  -1.532 -14.394  0.00  0.00    +0.003 A 
ATOM     35  C   UNL     1      -7.411  -2.682 -15.161  0.00  0.00    -0.050 A 
ATOM     36  C   UNL     1      -7.696  -3.905 -14.583  0.00  0.00    +0.003 A 
ATOM     37  C   UNL     1      -8.002  -3.978 -13.237  0.00  0.00    +0.002 A 
ATOM     38  C   UNL     1      -7.074  -2.602 -16.628  0.00  0.00    +0.044 C 
ENDBRANCH  31  32
ENDBRANCH  27  31
ENDBRANCH  23  24
ENDBRANCH   3  23
TORSDOF 8
