REMARK  Name = ZINC22574334
REMARK  6 active torsions:
REMARK  status: ('A' for Active; 'I' for Inactive)
REMARK    1  A    between atoms: C_1  and  C_2
REMARK    2  A    between atoms: C_5  and  C_21
REMARK    3  A    between atoms: C_7  and  N_8
REMARK    4  A    between atoms: N_23  and  C_24
REMARK    5  A    between atoms: N_27  and  C_30
REMARK    6  A    between atoms: C_30  and  C_31
REMARK                            x       y       z     vdW  Elec       q    Type
REMARK                         _______ _______ _______ _____ _____    ______ ____
ROOT
ATOM      1  C   UNL     1      -3.620  -5.328  -0.712  0.00  0.00    +0.046 C 
ATOM      2  C   UNL     1      -4.087  -3.930  -0.398  0.00  0.00    -0.025 A 
ATOM      3  C   UNL     1      -5.425  -3.692  -0.143  0.00  0.00    +0.006 A 
ATOM      4  C   UNL     1      -5.861  -2.413   0.139  0.00  0.00    +0.013 A 
ATOM      5  C   UNL     1      -4.950  -1.357   0.173  0.00  0.00    +0.039 A 
ATOM      6  C   UNL     1      -3.599  -1.598  -0.079  0.00  0.00    +0.041 A 
ATOM      7  C   UNL     1      -3.171  -2.886  -0.361  0.00  0.00    +0.070 A 
ENDROOT
BRANCH   7   8
ATOM      8  N   UNL     1      -1.818  -3.134  -0.614  0.00  0.00    -0.226 NA
ATOM      9  C   UNL     1      -0.896  -2.119  -0.483  0.00  0.00    +0.155 C 
ATOM     10  N   UNL     1      -1.104  -0.889  -0.027  0.00  0.00    -0.318 N 
ATOM     11  C   UNL     1       0.044  -0.060   0.144  0.00  0.00    +0.108 C 
ATOM     12  C   UNL     1       0.011   1.442   0.360  0.00  0.00    +0.189 C 
ATOM     13  S   UNL     1       1.806   1.838   0.124  0.00  0.00    -0.028 S 
ATOM     14  O   UNL     1       1.938   2.777  -0.934  0.00  0.00    -0.174 OA
ATOM     15  O   UNL     1       2.389   2.120   1.389  0.00  0.00    -0.174 OA
ATOM     16  C   UNL     1       2.397   0.179  -0.460  0.00  0.00    +0.182 C 
ATOM     17  C   UNL     1       1.066  -0.351  -1.021  0.00  0.00    +0.097 C 
ATOM     18  S   UNL     1       0.852  -2.166  -0.909  0.00  0.00    -0.084 S 
ATOM     19  H   UNL     1      -2.104  -0.500   0.216  0.00  0.00    +0.148 HD
ENDBRANCH   7   8
BRANCH   5  20
ATOM     20  C   UNL     1      -5.414   0.014   0.475  0.00  0.00    +0.244 C 
ATOM     21  O   UNL     1      -4.619   0.933   0.505  0.00  0.00    -0.270 OA
ATOM     22  N   UNL     1      -6.720   0.245   0.718  0.00  0.00    -0.309 N 
ATOM     23  H   UNL     1      -7.439  -0.586   0.691  0.00  0.00    +0.149 HD
BRANCH  22  24
ATOM     24  C   UNL     1      -7.180   1.603   1.018  0.00  0.00    +0.070 C 
ATOM     25  C   UNL     1      -7.012   1.882   2.514  0.00  0.00    +0.004 C 
ATOM     26  C   UNL     1      -7.550   3.279   2.831  0.00  0.00    -0.077 C 
ATOM     27  N   UNL     1      -8.969   3.355   2.458  0.00  0.00    +0.382 N 
ATOM     28  C   UNL     1      -9.150   3.137   1.017  0.00  0.00    -0.077 C 
ATOM     29  C   UNL     1      -8.659   1.736   0.645  0.00  0.00    +0.004 C 
ATOM     30  H   UNL     1      -9.498   2.550   2.988  0.00  0.00    -0.081 HD
BRANCH  27  31
ATOM     31  C   UNL     1      -9.555   4.635   2.874  0.00  0.00    -0.043 C 
BRANCH  31  32
ATOM     32  C   UNL     1      -9.570   4.714   4.379  0.00  0.00    -0.064 A 
ATOM     33  C   UNL     1     -10.666   4.253   5.085  0.00  0.00    +0.002 A 
ATOM     34  C   UNL     1     -10.678   4.321   6.465  0.00  0.00    +0.000 A 
ATOM     35  C   UNL     1      -9.599   4.860   7.140  0.00  0.00    +0.000 A 
ATOM     36  C   UNL     1      -8.505   5.326   6.434  0.00  0.00    +0.000 A 
ATOM     37  C   UNL     1      -8.491   5.253   5.054  0.00  0.00    +0.002 A 
ENDBRANCH  31  32
ENDBRANCH  27  31
ENDBRANCH  22  24
ENDBRANCH   5  20
TORSDOF 5
