REMARK  Name = ZINC36346756
REMARK  15 active torsions:
REMARK  status: ('A' for Active; 'I' for Inactive)
REMARK    1  A    between atoms: C_1  and  C_2
REMARK    2  A    between atoms: C_2  and  C_3
REMARK    3  A    between atoms: C_3  and  N_4
REMARK    4  A    between atoms: N_4  and  C_5
REMARK    5  A    between atoms: N_4  and  C_27
REMARK    6  A    between atoms: C_5  and  C_6
REMARK    7  A    between atoms: C_7  and  C_26
REMARK    8  A    between atoms: N_9  and  C_19
REMARK    9  A    between atoms: C_10  and  O_11
REMARK   10  A    between atoms: O_11  and  C_12
REMARK   11  A    between atoms: C_27  and  C_28
REMARK   12  A    between atoms: C_28  and  C_30
REMARK   13  A    between atoms: C_28  and  O_34
REMARK   14  A    between atoms: C_30  and  C_31
REMARK   15  A    between atoms: C_31  and  C_32
REMARK                            x       y       z     vdW  Elec       q    Type
REMARK                         _______ _______ _______ _____ _____    ______ ____
ROOT
ATOM      1  C   UNL     1      -2.898  -1.939  -1.540  0.00  0.00    +0.021 A 
ATOM      2  C   UNL     1      -3.501  -0.728  -1.894  0.00  0.00    +0.065 A 
ATOM      3  N   UNL     1      -3.461  -0.611  -3.197  0.00  0.00    -0.168 NA
ATOM      4  N   UNL     1      -2.831  -1.746  -3.723  0.00  0.00    -0.200 N 
ATOM      5  C   UNL     1      -2.486  -2.550  -2.683  0.00  0.00    +0.225 A 
ATOM      6  C   UNL     1      -4.096   0.273  -0.937  0.00  0.00    +0.068 C 
ENDROOT
BRANCH   4   7
ATOM      7  C   UNL     1      -2.592  -2.003  -5.081  0.00  0.00    +0.069 A 
ATOM      8  C   UNL     1      -1.387  -2.565  -5.481  0.00  0.00    +0.031 A 
ATOM      9  C   UNL     1      -1.154  -2.818  -6.818  0.00  0.00    +0.040 A 
ATOM     10  C   UNL     1      -2.121  -2.511  -7.761  0.00  0.00    +0.124 A 
ATOM     11  C   UNL     1      -3.324  -1.950  -7.364  0.00  0.00    +0.040 A 
ATOM     12  C   UNL     1      -3.563  -1.702  -6.027  0.00  0.00    +0.031 A 
ATOM     13  F   UNL     1      -1.891  -2.758  -9.069  0.00  0.00    -0.205 F 
ENDBRANCH   4   7
BRANCH   1  14
ATOM     14  C   UNL     1      -2.730  -2.470  -0.140  0.00  0.00    -0.036 C 
BRANCH  14  15
ATOM     15  N   UNL     1      -1.453  -2.000   0.413  0.00  0.00    +0.384 N 
ATOM     16  H   UNL     1      -0.702  -2.259  -0.209  0.00  0.00    -0.081 HD
BRANCH  15  17
ATOM     17  C   UNL     1      -1.490  -0.538   0.553  0.00  0.00    -0.079 C 
BRANCH  17  19
ATOM     18  C   UNL     1      -0.116   1.494   1.030  0.00  0.00    +0.002 C 
ATOM     19  C   UNL     1      -0.120  -0.035   1.016  0.00  0.00    -0.022 C 
ENDBRANCH  17  19
ENDBRANCH  15  17
BRANCH  15  20
ATOM     20  C   UNL     1      -1.233  -2.613   1.729  0.00  0.00    -0.047 C 
BRANCH  20  21
ATOM     21  C   UNL     1      -1.036  -4.121   1.563  0.00  0.00    +0.098 C 
BRANCH  21  22
ATOM     22  O   UNL     1       0.149  -4.365   0.803  0.00  0.00    -0.394 OA
ATOM     23  H   UNL     1       0.963  -4.083   1.242  0.00  0.00    +0.210 HD
ENDBRANCH  21  22
BRANCH  21  24
ATOM     24  C   UNL     1      -0.902  -4.773   2.941  0.00  0.00    +0.033 C 
BRANCH  24  25
ATOM     25  C   UNL     1      -0.830  -6.293   2.781  0.00  0.00    +0.029 C 
BRANCH  25  26
ATOM     26  C   UNL     1      -0.698  -6.935   4.138  0.00  0.00    -0.034 C 
ATOM     27  C   UNL     1      -1.554  -7.852   4.514  0.00  0.00    +0.004 C 
ENDBRANCH  25  26
ENDBRANCH  24  25
ENDBRANCH  21  24
ENDBRANCH  20  21
ENDBRANCH  15  20
ENDBRANCH  14  15
ENDBRANCH   1  14
BRANCH   5  28
ATOM     28  O   UNL     1      -1.850  -3.746  -2.769  0.00  0.00    -0.438 OA
BRANCH  28  29
ATOM     29  C   UNL     1      -2.603  -4.854  -2.999  0.00  0.00    +0.131 A 
ATOM     30  C   UNL     1      -3.962  -4.731  -3.246  0.00  0.00    +0.049 A 
ATOM     31  C   UNL     1      -4.726  -5.858  -3.479  0.00  0.00    +0.042 A 
ATOM     32  C   UNL     1      -4.135  -7.111  -3.467  0.00  0.00    +0.124 A 
ATOM     33  C   UNL     1      -2.778  -7.235  -3.220  0.00  0.00    +0.042 A 
ATOM     34  C   UNL     1      -2.011  -6.109  -2.993  0.00  0.00    +0.049 A 
ATOM     35  F   UNL     1      -4.883  -8.212  -3.695  0.00  0.00    -0.205 F 
ENDBRANCH  28  29
ENDBRANCH   5  28
TORSDOF 13
