REMARK  Name = ZINC02159871
REMARK  6 active torsions:
REMARK  status: ('A' for Active; 'I' for Inactive)
REMARK    1  A    between atoms: C_1  and  O_2
REMARK    2  A    between atoms: O_2  and  C_3
REMARK    3  A    between atoms: C_6  and  C_9
REMARK    4  A    between atoms: C_23  and  C_24
REMARK    5  A    between atoms: C_23  and  N_54
REMARK    6  A    between atoms: C_24  and  C_25
REMARK                            x       y       z     vdW  Elec       q    Type
REMARK                         _______ _______ _______ _____ _____    ______ ____
ROOT
ATOM      1  C   UNL     1      -8.411  -2.652   5.079  0.00  0.00    -0.000 A 
ATOM      2  C   UNL     1      -7.564  -2.719   6.173  0.00  0.00    +0.101 A 
ATOM      3  C   UNL     1      -6.298  -2.123   6.097  0.00  0.00    +0.338 A 
ATOM      4  O   UNL     1      -5.564  -2.190   7.069  0.00  0.00    -0.245 OA
ATOM      5  O   UNL     1      -5.857  -1.483   5.009  0.00  0.00    -0.422 OA
ATOM      6  C   UNL     1      -6.632  -1.382   3.910  0.00  0.00    +0.144 A 
ATOM      7  C   UNL     1      -7.918  -1.946   3.884  0.00  0.00    +0.026 A 
ATOM      8  C   UNL     1      -8.711  -1.834   2.741  0.00  0.00    +0.016 A 
ATOM      9  C   UNL     1      -8.234  -1.174   1.645  0.00  0.00    +0.046 A 
ATOM     10  C   UNL     1      -6.957  -0.610   1.659  0.00  0.00    +0.123 A 
ATOM     11  C   UNL     1      -6.161  -0.713   2.786  0.00  0.00    +0.021 A 
ATOM     12  C   UNL     1      -4.782  -0.105   2.816  0.00  0.00    -0.031 C 
ATOM     13  C   UNL     1      -5.383   0.899   0.707  0.00  0.00    +0.157 C 
ATOM     14  O   UNL     1      -6.511   0.035   0.549  0.00  0.00    -0.509 OA
ATOM     15  N   UNL     1      -4.337   0.151   1.433  0.00  0.00    +0.405 N 
ATOM     16  H   UNL     1      -4.176  -0.746   0.960  0.00  0.00    -0.076 HD
ENDROOT
BRANCH   1  20
ATOM     17  C   UNL     1     -12.275  -4.415   5.167  0.00  0.00    +0.120 A 
ATOM     18  C   UNL     1     -11.166  -5.157   5.556  0.00  0.00    +0.046 A 
ATOM     19  C   UNL     1      -9.912  -4.589   5.529  0.00  0.00    +0.012 A 
ATOM     20  C   UNL     1      -9.755  -3.266   5.109  0.00  0.00    -0.017 A 
ATOM     21  C   UNL     1     -10.873  -2.522   4.724  0.00  0.00    +0.012 A 
ATOM     22  C   UNL     1     -12.124  -3.098   4.750  0.00  0.00    +0.046 A 
BRANCH  17  24
ATOM     23  C   UNL     1     -14.606  -4.160   4.783  0.00  0.00    +0.277 C 
ATOM     24  O   UNL     1     -13.510  -4.978   5.196  0.00  0.00    -0.495 OA
ENDBRANCH  17  24
ENDBRANCH   1  20
BRANCH  15  25
ATOM     25  C   UNL     1      -3.074   0.925   1.442  0.00  0.00    -0.069 C 
BRANCH  25  26
ATOM     26  C   UNL     1      -2.514   0.979   0.019  0.00  0.00    +0.018 C 
BRANCH  26  27
ATOM     27  C   UNL     1      -1.219   1.750   0.017  0.00  0.00    -0.031 A 
ATOM     28  C   UNL     1      -0.013   1.076   0.008  0.00  0.00    +0.006 A 
ATOM     29  C   UNL     1       1.175   1.783   0.000  0.00  0.00    +0.020 A 
ATOM     30  C   UNL     1       1.157   3.166   0.008  0.00  0.00    +0.042 A 
ATOM     31  C   UNL     1      -0.050   3.842   0.023  0.00  0.00    +0.040 A 
ATOM     32  C   UNL     1      -1.238   3.134   0.031  0.00  0.00    +0.045 A 
ATOM     33 CL   UNL     1      -2.754   3.981   0.049  0.00  0.00    -0.083 Cl
ATOM     34 CL   UNL     1       2.648   4.054  -0.001  0.00  0.00    -0.083 Cl
ENDBRANCH  26  27
ENDBRANCH  25  26
ENDBRANCH  15  25
TORSDOF 5
