REMARK  Name = ZINC13638626
REMARK  7 active torsions:
REMARK  status: ('A' for Active; 'I' for Inactive)
REMARK    1  A    between atoms: C_1  and  C_2
REMARK    2  A    between atoms: C_3  and  N_15
REMARK    3  A    between atoms: N_6  and  C_9
REMARK    4  A    between atoms: N_7  and  C_8
REMARK    5  A    between atoms: C_19  and  C_30
REMARK    6  A    between atoms: N_20  and  S_21
REMARK    7  A    between atoms: S_21  and  C_24
REMARK                            x       y       z     vdW  Elec       q    Type
REMARK                         _______ _______ _______ _____ _____    ______ ____
ROOT
ATOM      1  N   UNL     1       0.438  -0.390  -2.319  0.00  0.00    -0.218 NA
ATOM      2  C   UNL     1       0.638  -1.474  -3.025  0.00  0.00    +0.171 C 
ATOM      3  S   UNL     1       0.857  -3.024  -2.216  0.00  0.00    -0.014 SA
ATOM      4  N   UNL     1       0.678  -1.404  -4.404  0.00  0.00    -0.277 N 
ATOM      5  C   UNL     1       0.889  -2.547  -5.148  0.00  0.00    +0.153 C 
ATOM      6  N   UNL     1       1.051  -3.693  -4.550  0.00  0.00    -0.113 NA
ATOM      7  H   UNL     1       0.558  -0.550  -4.849  0.00  0.00    +0.156 HD
ENDROOT
BRANCH   1  10
ATOM      8  C   UNL     1       2.777  -0.403  -0.346  0.00  0.00    +0.067 C 
ATOM      9  C   UNL     1       1.304  -0.483  -0.037  0.00  0.00    +0.064 A 
ATOM     10  C   UNL     1       0.299  -0.474  -0.952  0.00  0.00    +0.153 A 
ATOM     11  C   UNL     1      -0.963  -0.570  -0.207  0.00  0.00    +0.298 A 
ATOM     12  O   UNL     1      -2.084  -0.592  -0.681  0.00  0.00    -0.264 OA
ATOM     13  N   UNL     1      -0.642  -0.631   1.101  0.00  0.00    -0.215 N 
ATOM     14  N   UNL     1       0.752  -0.584   1.214  0.00  0.00    -0.282 N 
ATOM     15  C   UNL     1       1.504  -0.631   2.470  0.00  0.00    +0.171 C 
BRANCH  13  16
ATOM     16  C   UNL     1      -1.546  -0.730   2.163  0.00  0.00    +0.067 A 
ATOM     17  C   UNL     1      -1.433   0.121   3.255  0.00  0.00    +0.028 A 
ATOM     18  C   UNL     1      -2.329   0.021   4.302  0.00  0.00    +0.002 A 
ATOM     19  C   UNL     1      -3.336  -0.926   4.264  0.00  0.00    +0.000 A 
ATOM     20  C   UNL     1      -3.451  -1.775   3.179  0.00  0.00    +0.002 A 
ATOM     21  C   UNL     1      -2.563  -1.675   2.125  0.00  0.00    +0.028 A 
ENDBRANCH  13  16
ENDBRANCH   1  10
BRANCH   5  22
ATOM     22  C   UNL     1       0.932  -2.471  -6.626  0.00  0.00    +0.017 A 
ATOM     23  C   UNL     1       0.006  -3.180  -7.391  0.00  0.00    +0.011 A 
ATOM     24  C   UNL     1       0.051  -3.105  -8.768  0.00  0.00    +0.001 A 
ATOM     25  C   UNL     1       1.012  -2.329  -9.390  0.00  0.00    +0.000 A 
ATOM     26  C   UNL     1       1.934  -1.624  -8.637  0.00  0.00    +0.001 A 
ATOM     27  C   UNL     1       1.896  -1.687  -7.259  0.00  0.00    +0.011 A 
ENDBRANCH   5  22
BRANCH   6  28
ATOM     28  S   UNL     1       1.495  -5.028  -5.424  0.00  0.00    +0.100 S 
ATOM     29  O   UNL     1       0.408  -5.327  -6.289  0.00  0.00    -0.146 OA
ATOM     30  O   UNL     1       2.807  -4.778  -5.908  0.00  0.00    -0.146 OA
BRANCH  28  31
ATOM     31  C   UNL     1       1.623  -6.372  -4.292  0.00  0.00    +0.113 A 
ATOM     32  C   UNL     1       2.825  -6.632  -3.661  0.00  0.00    +0.029 A 
ATOM     33  C   UNL     1       2.925  -7.687  -2.773  0.00  0.00    +0.002 A 
ATOM     34  C   UNL     1       1.823  -8.481  -2.516  0.00  0.00    +0.000 A 
ATOM     35  C   UNL     1       0.621  -8.221  -3.147  0.00  0.00    +0.002 A 
ATOM     36  C   UNL     1       0.519  -7.163  -4.032  0.00  0.00    +0.029 A 
ENDBRANCH  28  31
ENDBRANCH   6  28
TORSDOF 5
