REMARK  Name = ZINC36637746
REMARK  11 active torsions:
REMARK  status: ('A' for Active; 'I' for Inactive)
REMARK    1  A    between atoms: C_1  and  C_2
REMARK    2  A    between atoms: C_2  and  N_3
REMARK    3  A    between atoms: N_3  and  C_4
REMARK    4  A    between atoms: N_3  and  C_6
REMARK    5  A    between atoms: C_4  and  C_5
REMARK    6  A    between atoms: C_6  and  C_7
REMARK    7  A    between atoms: C_7  and  N_8
REMARK    8  A    between atoms: C_14  and  O_18
REMARK    9  A    between atoms: O_18  and  C_19
REMARK   10  A    between atoms: C_20  and  C_22
REMARK   11  A    between atoms: C_24  and  C_32
REMARK                            x       y       z     vdW  Elec       q    Type
REMARK                         _______ _______ _______ _____ _____    ______ ____
ROOT
ATOM      1  N   UNL     1      -0.624  -3.712   1.912  0.00  0.00    -0.248 N 
ATOM      2  C   UNL     1       0.447  -4.442   1.424  0.00  0.00    +0.168 A 
ATOM      3  N   UNL     1       1.472  -4.028   0.719  0.00  0.00    -0.224 NA
ATOM      4  C   UNL     1       2.454  -4.861   0.306  0.00  0.00    +0.081 A 
ATOM      5  C   UNL     1       3.604  -4.544  -0.454  0.00  0.00    +0.032 A 
ATOM      6  C   UNL     1       4.510  -5.514  -0.792  0.00  0.00    +0.048 A 
ATOM      7  C   UNL     1       4.335  -6.839  -0.403  0.00  0.00    +0.121 A 
ATOM      8  C   UNL     1       3.218  -7.183   0.344  0.00  0.00    +0.063 A 
ATOM      9  C   UNL     1       2.307  -6.215   0.685  0.00  0.00    +0.044 A 
ATOM     10  S   UNL     1       0.786  -6.188   1.603  0.00  0.00    -0.052 S 
ATOM     11  C   UNL     1      -1.587  -4.324   2.630  0.00  0.00    +0.253 C 
ATOM     12  O   UNL     1      -1.469  -5.497   2.928  0.00  0.00    -0.270 OA
ENDROOT
BRANCH  11  13
ATOM     13  C   UNL     1      -2.785  -3.570   3.054  0.00  0.00    +0.048 A 
ATOM     14  C   UNL     1      -2.678  -2.415   3.814  0.00  0.00    +0.042 A 
ATOM     15  C   UNL     1      -3.844  -1.729   4.196  0.00  0.00    +0.079 A 
ATOM     16  N   UNL     1      -5.048  -2.146   3.855  0.00  0.00    -0.246 NA
ATOM     17  C   UNL     1      -5.242  -3.246   3.125  0.00  0.00    +0.072 A 
ATOM     18  C   UNL     1      -4.131  -4.008   2.683  0.00  0.00    +0.013 A 
ATOM     19  C   UNL     1      -4.339  -5.158   1.914  0.00  0.00    +0.011 A 
ATOM     20  C   UNL     1      -5.610  -5.533   1.591  0.00  0.00    +0.001 A 
ATOM     21  C   UNL     1      -6.705  -4.784   2.017  0.00  0.00    +0.002 A 
ATOM     22  C   UNL     1      -6.539  -3.667   2.777  0.00  0.00    +0.028 A 
BRANCH  15  23
ATOM     23  C   UNL     1      -3.717  -0.502   5.005  0.00  0.00    +0.038 A 
ATOM     24  C   UNL     1      -4.703   0.267   5.569  0.00  0.00    +0.017 A 
ATOM     25  C   UNL     1      -4.340   1.381   6.290  0.00  0.00    +0.008 A 
ATOM     26  C   UNL     1      -3.022   1.685   6.422  0.00  0.00    +0.046 A 
ATOM     27  S   UNL     1      -2.240   0.364   5.510  0.00  0.00    -0.095 S 
ENDBRANCH  15  23
ENDBRANCH  11  13
BRANCH   7  28
ATOM     28  O   UNL     1       5.248  -7.785  -0.751  0.00  0.00    -0.495 OA
ATOM     29  C   UNL     1       6.371  -7.350  -1.521  0.00  0.00    +0.277 C 
ENDBRANCH   7  28
BRANCH   1  30
ATOM     30  C   UNL     1      -0.711  -2.274   1.647  0.00  0.00    +0.097 C 
BRANCH  30  31
ATOM     31  C   UNL     1      -1.595  -2.033   0.422  0.00  0.00    -0.059 C 
BRANCH  31  32
ATOM     32  N   UNL     1      -1.605  -0.600   0.099  0.00  0.00    +0.380 N 
ATOM     33  H   UNL     1      -1.890  -0.074   0.912  0.00  0.00    -0.082 HD
BRANCH  32  35
ATOM     34  C   UNL     1      -0.238   1.335  -0.524  0.00  0.00    -0.017 C 
ATOM     35  C   UNL     1      -0.257  -0.180  -0.307  0.00  0.00    -0.082 C 
ENDBRANCH  32  35
BRANCH  32  36
ATOM     36  C   UNL     1      -2.547  -0.351  -1.000  0.00  0.00    -0.082 C 
ATOM     37  C   UNL     1      -3.971  -0.654  -0.528  0.00  0.00    -0.017 C 
ENDBRANCH  32  36
ENDBRANCH  31  32
ENDBRANCH  30  31
ENDBRANCH   1  30
TORSDOF 8
