REMARK  Name = ZINC36051965
REMARK  12 active torsions:
REMARK  status: ('A' for Active; 'I' for Inactive)
REMARK    1  A    between atoms: C_1  and  C_2
REMARK    2  A    between atoms: C_2  and  C_3
REMARK    3  A    between atoms: N_5  and  C_6
REMARK    4  A    between atoms: N_5  and  C_12
REMARK    5  A    between atoms: C_6  and  C_7
REMARK    6  A    between atoms: C_12  and  C_13
REMARK    7  A    between atoms: C_18  and  C_31
REMARK    8  A    between atoms: N_20  and  C_21
REMARK    9  A    between atoms: C_24  and  O_29
REMARK   10  A    between atoms: C_25  and  O_27
REMARK   11  A    between atoms: O_27  and  C_28
REMARK   12  A    between atoms: O_29  and  C_30
REMARK                            x       y       z     vdW  Elec       q    Type
REMARK                         _______ _______ _______ _____ _____    ______ ____
ROOT
ATOM      1  C   UNL     1      -0.114  -3.119   1.407  0.00  0.00    +0.237 C 
ATOM      2  O   UNL     1      -0.711  -2.621   2.338  0.00  0.00    -0.274 OA
ATOM      3  N   UNL     1       0.907  -3.968   1.639  0.00  0.00    -0.254 N 
ATOM      4  C   UNL     1       1.275  -4.271   2.943  0.00  0.00    +0.207 A 
ATOM      5  N   UNL     1       0.706  -3.802   4.026  0.00  0.00    -0.214 NA
ATOM      6  C   UNL     1       1.326  -4.312   5.112  0.00  0.00    +0.091 A 
ATOM      7  C   UNL     1       2.320  -5.131   4.682  0.00  0.00    +0.122 A 
ATOM      8  N   UNL     1       2.286  -5.110   3.309  0.00  0.00    -0.287 N 
ATOM      9  H   UNL     1       1.385  -4.367   0.895  0.00  0.00    +0.158 HD
ENDROOT
BRANCH   6  10
ATOM     10  C   UNL     1       0.981  -4.028   6.526  0.00  0.00    +0.002 A 
ATOM     11  C   UNL     1       1.710  -4.620   7.556  0.00  0.00    +0.011 A 
ATOM     12  C   UNL     1       1.386  -4.351   8.870  0.00  0.00    +0.020 A 
ATOM     13  C   UNL     1       0.339  -3.496   9.167  0.00  0.00    +0.041 A 
ATOM     14  C   UNL     1      -0.389  -2.906   8.147  0.00  0.00    +0.020 A 
ATOM     15  C   UNL     1      -0.069  -3.163   6.830  0.00  0.00    +0.011 A 
ATOM     16 CL   UNL     1      -0.065  -3.164  10.822  0.00  0.00    -0.084 Cl
ENDBRANCH   6  10
BRANCH   8  17
ATOM     17  C   UNL     1       3.134  -5.818   2.445  0.00  0.00    +0.053 A 
ATOM     18  C   UNL     1       2.598  -6.568   1.407  0.00  0.00    +0.030 A 
ATOM     19  C   UNL     1       3.432  -7.266   0.554  0.00  0.00    +0.051 A 
ATOM     20  C   UNL     1       4.805  -7.218   0.733  0.00  0.00    +0.162 A 
ATOM     21  C   UNL     1       5.346  -6.467   1.772  0.00  0.00    +0.163 A 
ATOM     22  C   UNL     1       4.509  -5.764   2.624  0.00  0.00    +0.075 A 
BRANCH  21  23
ATOM     23  O   UNL     1       6.693  -6.420   1.950  0.00  0.00    -0.491 OA
ATOM     24  C   UNL     1       7.177  -5.629   3.037  0.00  0.00    +0.277 C 
ENDBRANCH  21  23
BRANCH  20  25
ATOM     25  O   UNL     1       5.625  -7.906  -0.107  0.00  0.00    -0.491 OA
ATOM     26  C   UNL     1       5.002  -8.657  -1.151  0.00  0.00    +0.277 C 
ENDBRANCH  20  25
ENDBRANCH   8  17
BRANCH   1  27
ATOM     27  C   UNL     1      -0.514  -2.791  -0.008  0.00  0.00    +0.204 C 
BRANCH  27  30
ATOM     28  C   UNL     1      -1.412  -0.526   0.013  0.00  0.00    +0.216 C 
ATOM     29  O   UNL     1      -2.344   0.250   0.026  0.00  0.00    -0.276 OA
ATOM     30  N   UNL     1      -1.640  -1.854   0.008  0.00  0.00    -0.285 N 
BRANCH  28  32
ATOM     31  C   UNL     1      -0.019   1.526   0.010  0.00  0.00    +0.013 C 
ATOM     32  C   UNL     1       0.002  -0.004   0.002  0.00  0.00    +0.092 C 
ENDBRANCH  28  32
BRANCH  30  33
ATOM     33  C   UNL     1      -3.014  -2.361   0.018  0.00  0.00    +0.182 C 
BRANCH  33  34
ATOM     34  C   UNL     1      -3.499  -2.527  -1.399  0.00  0.00    +0.122 A 
ATOM     35  C   UNL     1      -3.380  -3.639  -2.146  0.00  0.00    +0.046 A 
ATOM     36  C   UNL     1      -3.966  -3.356  -3.401  0.00  0.00    +0.041 A 
ATOM     37  C   UNL     1      -4.410  -2.087  -3.345  0.00  0.00    +0.195 A 
ATOM     38  O   UNL     1      -4.129  -1.592  -2.128  0.00  0.00    -0.466 OA
ENDBRANCH  33  34
ENDBRANCH  30  33
ENDBRANCH  27  30
ENDBRANCH   1  27
TORSDOF 9
