REMARK  Name = ZINC39873873
REMARK  8 active torsions:
REMARK  status: ('A' for Active; 'I' for Inactive)
REMARK    1  A    between atoms: C_1  and  C_2
REMARK    2  A    between atoms: C_2  and  O_3
REMARK    3  A    between atoms: O_3  and  C_4
REMARK    4  A    between atoms: C_6  and  C_11
REMARK    5  A    between atoms: C_9  and  O_10
REMARK    6  A    between atoms: N_26  and  C_27
REMARK    7  A    between atoms: C_30  and  C_33
REMARK    8  A    between atoms: C_33  and  C_35
REMARK                            x       y       z     vdW  Elec       q    Type
REMARK                         _______ _______ _______ _____ _____    ______ ____
ROOT
ATOM      1  C   UNL     1      -0.235  -4.970   0.495  0.00  0.00    +0.150 C 
ATOM      2  C   UNL     1      -1.527  -5.537   0.005  0.00  0.00    +0.072 A 
ATOM      3  C   UNL     1      -2.793  -4.889  -0.350  0.00  0.00    +0.199 A 
ATOM      4  O   UNL     1      -2.919  -3.682  -0.455  0.00  0.00    -0.287 OA
ATOM      5  C   UNL     1      -3.908  -5.844  -0.571  0.00  0.00    +0.066 A 
ATOM      6  C   UNL     1      -5.215  -5.381  -0.719  0.00  0.00    +0.035 A 
ATOM      7  C   UNL     1      -6.239  -6.283  -0.918  0.00  0.00    +0.042 A 
ATOM      8  C   UNL     1      -5.966  -7.644  -0.970  0.00  0.00    +0.023 A 
ATOM      9  C   UNL     1      -4.680  -8.111  -0.827  0.00  0.00    +0.048 A 
ATOM     10  C   UNL     1      -3.627  -7.219  -0.627  0.00  0.00    +0.140 A 
ATOM     11  O   UNL     1      -2.371  -7.705  -0.499  0.00  0.00    -0.450 OA
ATOM     12  C   UNL     1      -1.381  -6.893  -0.079  0.00  0.00    +0.199 A 
ATOM     13  C   UNL     1      -0.016  -7.238   0.351  0.00  0.00    +0.287 C 
ATOM     14  O   UNL     1       0.435  -8.365   0.397  0.00  0.00    -0.266 OA
ATOM     15  N   UNL     1       0.662  -6.120   0.689  0.00  0.00    -0.253 N 
ATOM     16 CL   UNL     1      -7.869  -5.717  -1.105  0.00  0.00    -0.084 Cl
ENDROOT
BRANCH   1  19
ATOM     17  C   UNL     1       0.760  -1.795  -1.296  0.00  0.00    +0.162 A 
ATOM     18  C   UNL     1       0.230  -2.662  -0.353  0.00  0.00    +0.055 A 
ATOM     19  C   UNL     1       0.342  -4.028  -0.531  0.00  0.00    -0.018 A 
ATOM     20  C   UNL     1       0.981  -4.533  -1.648  0.00  0.00    +0.009 A 
ATOM     21  C   UNL     1       1.512  -3.674  -2.592  0.00  0.00    +0.049 A 
ATOM     22  C   UNL     1       1.398  -2.303  -2.423  0.00  0.00    +0.158 A 
BRANCH  22  23
ATOM     23  O   UNL     1       1.915  -1.457  -3.354  0.00  0.00    -0.503 OA
ATOM     24  H   UNL     1       2.834  -1.205  -3.189  0.00  0.00    +0.292 HD
ENDBRANCH  22  23
BRANCH  17  25
ATOM     25  O   UNL     1       0.650  -0.451  -1.123  0.00  0.00    -0.489 OA
BRANCH  25  27
ATOM     26  C   UNL     1      -0.043   1.529   0.078  0.00  0.00    +0.048 C 
ATOM     27  C   UNL     1      -0.018  -0.001   0.058  0.00  0.00    +0.226 C 
ENDBRANCH  25  27
ENDBRANCH  17  25
ENDBRANCH   1  19
BRANCH  15  28
ATOM     28  C   UNL     1       1.978  -6.065   1.141  0.00  0.00    +0.038 A 
ATOM     29  C   UNL     1       2.551  -4.836   1.459  0.00  0.00    +0.024 A 
ATOM     30  C   UNL     1       3.842  -4.777   1.902  0.00  0.00    +0.013 A 
ATOM     31  C   UNL     1       4.588  -5.954   2.037  0.00  0.00    +0.017 A 
ATOM     32  C   UNL     1       4.008  -7.188   1.716  0.00  0.00    +0.013 A 
ATOM     33  C   UNL     1       2.715  -7.238   1.278  0.00  0.00    +0.024 A 
BRANCH  31  34
ATOM     34  C   UNL     1       5.977  -5.896   2.512  0.00  0.00    +0.160 C 
ATOM     35  O   UNL     1       6.511  -4.822   2.693  0.00  0.00    -0.292 OA
ATOM     36  C   UNL     1       6.738  -7.170   2.775  0.00  0.00    +0.091 C 
ENDBRANCH  31  34
ENDBRANCH  15  28
TORSDOF 6
