REMARK  Name = ZINC35288350
REMARK  7 active torsions:
REMARK  status: ('A' for Active; 'I' for Inactive)
REMARK    1  A    between atoms: C_1  and  C_2
REMARK    2  A    between atoms: C_2  and  C_3
REMARK    3  A    between atoms: C_2  and  O_4
REMARK    4  A    between atoms: O_4  and  C_5
REMARK    5  A    between atoms: C_8  and  C_11
REMARK    6  A    between atoms: C_14  and  C_18
REMARK    7  A    between atoms: C_18  and  C_19
REMARK                            x       y       z     vdW  Elec       q    Type
REMARK                         _______ _______ _______ _____ _____    ______ ____
ROOT
ATOM      1  C   UNL     1      -2.292  -0.983   5.876  0.00  0.00    +0.145 A 
ATOM      2  N   UNL     1      -1.658  -1.321   7.035  0.00  0.00    -0.307 N 
ATOM      3  C   UNL     1      -2.363  -1.446   8.178  0.00  0.00    +0.259 A 
ATOM      4  C   UNL     1      -3.747  -1.223   8.147  0.00  0.00    +0.087 A 
ATOM      5  C   UNL     1      -4.339  -0.882   6.944  0.00  0.00    +0.281 A 
ATOM      6  N   UNL     1      -3.590  -0.767   5.843  0.00  0.00    -0.191 NA
ATOM      7  O   UNL     1      -5.673  -0.661   6.883  0.00  0.00    -0.265 OA
ATOM      8  O   UNL     1      -1.806  -1.749   9.221  0.00  0.00    -0.267 OA
ATOM      9  H   UNL     1      -0.700  -1.471   7.037  0.00  0.00    +0.170 HD
ENDROOT
BRANCH   1  13
ATOM     10  C   UNL     1      -0.030  -0.600   2.302  0.00  0.00    +0.121 A 
ATOM     11  C   UNL     1      -1.401  -0.375   2.281  0.00  0.00    +0.046 A 
ATOM     12  C   UNL     1      -2.139  -0.498   3.438  0.00  0.00    +0.015 A 
ATOM     13  C   UNL     1      -1.506  -0.850   4.634  0.00  0.00    +0.018 A 
ATOM     14  C   UNL     1      -0.127  -1.075   4.650  0.00  0.00    +0.015 A 
ATOM     15  C   UNL     1       0.603  -0.954   3.488  0.00  0.00    +0.046 A 
BRANCH  10  16
ATOM     16  O   UNL     1       0.693  -0.477   1.160  0.00  0.00    -0.489 OA
BRANCH  16  18
ATOM     17  C   UNL     1      -0.292   1.273  -0.184  0.00  0.00    +0.051 C 
ATOM     18  C   UNL     1      -0.034  -0.229  -0.045  0.00  0.00    +0.167 C 
ATOM     19  C   UNL     1       0.781  -0.719  -1.243  0.00  0.00    +0.051 C 
ENDBRANCH  16  18
ENDBRANCH  10  16
ENDBRANCH   1  13
BRANCH   4  20
ATOM     20  C   UNL     1      -4.574  -1.353   9.401  0.00  0.00    +0.081 C 
BRANCH  20  21
ATOM     21  C   UNL     1      -4.962  -2.795   9.599  0.00  0.00    -0.043 A 
ATOM     22  C   UNL     1      -6.134  -3.278   9.046  0.00  0.00    +0.005 A 
ATOM     23  C   UNL     1      -6.490  -4.601   9.228  0.00  0.00    +0.015 A 
ATOM     24  C   UNL     1      -5.674  -5.442   9.963  0.00  0.00    +0.018 A 
ATOM     25  C   UNL     1      -4.502  -4.959  10.515  0.00  0.00    +0.015 A 
ATOM     26  C   UNL     1      -4.144  -3.637  10.329  0.00  0.00    +0.005 A 
ATOM     27 BR   UNL     1      -6.162  -7.252  10.212  0.00  0.00    -0.050 Br
ENDBRANCH  20  21
ENDBRANCH   4  20
TORSDOF 5
