REMARK  Name = ZINC35498931
REMARK  16 active torsions:
REMARK  status: ('A' for Active; 'I' for Inactive)
REMARK    1  A    between atoms: C_1  and  C_2
REMARK    2  A    between atoms: C_2  and  C_3
REMARK    3  A    between atoms: C_2  and  C_4
REMARK    4  A    between atoms: C_2  and  C_5
REMARK    5  A    between atoms: C_8  and  C_11
REMARK    6  A    between atoms: C_11  and  N_12
REMARK    7  A    between atoms: C_16  and  C_17
REMARK    8  A    between atoms: C_17  and  N_18
REMARK    9  A    between atoms: N_18  and  C_19
REMARK   10  A    between atoms: N_18  and  C_26
REMARK   11  A    between atoms: C_19  and  C_20
REMARK   12  A    between atoms: C_26  and  C_27
REMARK   13  A    between atoms: C_27  and  C_29
REMARK   14  A    between atoms: C_27  and  O_37
REMARK   15  A    between atoms: C_29  and  O_30
REMARK   16  A    between atoms: O_30  and  C_31
REMARK                            x       y       z     vdW  Elec       q    Type
REMARK                         _______ _______ _______ _____ _____    ______ ____
ROOT
ATOM      1  N   UNL     1       3.762   1.313  -4.310  0.00  0.00    +0.388 N 
ATOM      2  H   UNL     1       2.755   1.326  -4.245  0.00  0.00    -0.081 HD
ENDROOT
BRANCH   1   3
ATOM      3  C   UNL     1       4.159   0.944  -5.675  0.00  0.00    -0.024 C 
BRANCH   3   8
ATOM      4  N   UNL     1       4.049  -1.609  -5.785  0.00  0.00    -0.348 N 
ATOM      5  C   UNL     1       3.191  -2.554  -6.262  0.00  0.00    +0.086 A 
ATOM      6  C   UNL     1       2.139  -1.924  -6.823  0.00  0.00    +0.019 A 
ATOM      7  C   UNL     1       2.356  -0.538  -6.687  0.00  0.00    +0.021 A 
ATOM      8  C   UNL     1       3.529  -0.375  -6.043  0.00  0.00    +0.003 A 
BRANCH   4   9
ATOM      9  C   UNL     1       5.318  -1.874  -5.102  0.00  0.00    +0.156 C 
BRANCH   9  13
ATOM     10  C   UNL     1       8.309  -2.868  -7.985  0.00  0.00    -0.042 A 
ATOM     11  C   UNL     1       8.160  -1.559  -7.567  0.00  0.00    +0.004 A 
ATOM     12  C   UNL     1       7.192  -1.237  -6.634  0.00  0.00    +0.005 A 
ATOM     13  C   UNL     1       6.373  -2.225  -6.120  0.00  0.00    -0.028 A 
ATOM     14  C   UNL     1       6.521  -3.534  -6.538  0.00  0.00    +0.005 A 
ATOM     15  C   UNL     1       7.487  -3.854  -7.474  0.00  0.00    +0.004 A 
BRANCH  10  17
ATOM     16  C   UNL     1       8.693  -3.717 -10.283  0.00  0.00    +0.015 C 
ATOM     17  C   UNL     1       9.365  -3.218  -9.002  0.00  0.00    -0.013 C 
ATOM     18  C   UNL     1      10.270  -4.316  -8.440  0.00  0.00    +0.015 C 
ATOM     19  C   UNL     1      10.203  -1.977  -9.315  0.00  0.00    +0.015 C 
ENDBRANCH  10  17
ENDBRANCH   9  13
ENDBRANCH   4   9
ENDBRANCH   3   8
ENDBRANCH   1   3
BRANCH   1  20
ATOM     20  C   UNL     1       4.301   0.330  -3.361  0.00  0.00    -0.042 C 
BRANCH  20  21
ATOM     21  C   UNL     1       3.749   0.605  -1.986  0.00  0.00    -0.064 A 
ATOM     22  C   UNL     1       4.569   1.124  -1.002  0.00  0.00    +0.002 A 
ATOM     23  C   UNL     1       4.063   1.376   0.259  0.00  0.00    +0.000 A 
ATOM     24  C   UNL     1       2.735   1.108   0.537  0.00  0.00    +0.000 A 
ATOM     25  C   UNL     1       1.914   0.590  -0.447  0.00  0.00    +0.000 A 
ATOM     26  C   UNL     1       2.420   0.342  -1.709  0.00  0.00    +0.002 A 
ENDBRANCH  20  21
ENDBRANCH   1  20
BRANCH   1  27
ATOM     27  C   UNL     1       4.291   2.645  -3.989  0.00  0.00    -0.043 C 
BRANCH  27  28
ATOM     28  C   UNL     1       3.394   3.312  -2.944  0.00  0.00    +0.135 C 
BRANCH  28  29
ATOM     29  O   UNL     1       2.110   3.570  -3.514  0.00  0.00    -0.390 OA
ATOM     30  H   UNL     1       2.131   4.153  -4.285  0.00  0.00    +0.210 HD
ENDBRANCH  28  29
BRANCH  28  31
ATOM     31  C   UNL     1       4.028   4.630  -2.495  0.00  0.00    +0.258 C 
BRANCH  31  32
ATOM     32  O   UNL     1       3.252   5.196  -1.437  0.00  0.00    -0.489 OA
BRANCH  32  33
ATOM     33  C   UNL     1       3.681   6.377  -0.920  0.00  0.00    +0.121 A 
ATOM     34  C   UNL     1       4.822   6.983  -1.425  0.00  0.00    +0.045 A 
ATOM     35  C   UNL     1       5.256   8.184  -0.899  0.00  0.00    +0.004 A 
ATOM     36  C   UNL     1       4.554   8.783   0.131  0.00  0.00    +0.000 A 
ATOM     37  C   UNL     1       3.416   8.181   0.637  0.00  0.00    +0.004 A 
ATOM     38  C   UNL     1       2.975   6.982   0.110  0.00  0.00    +0.045 A 
ENDBRANCH  32  33
ENDBRANCH  31  32
ENDBRANCH  28  31
ENDBRANCH  27  28
ENDBRANCH   1  27
TORSDOF 13
