REMARK  Name = ZINC39528918
REMARK  8 active torsions:
REMARK  status: ('A' for Active; 'I' for Inactive)
REMARK    1  A    between atoms: C_1  and  C_2
REMARK    2  A    between atoms: C_2  and  C_3
REMARK    3  A    between atoms: C_5  and  S_23
REMARK    4  A    between atoms: C_8  and  N_9
REMARK    5  A    between atoms: C_13  and  C_16
REMARK    6  A    between atoms: C_21  and  O_22
REMARK    7  A    between atoms: S_23  and  O_26
REMARK    8  A    between atoms: O_26  and  C_27
REMARK                            x       y       z     vdW  Elec       q    Type
REMARK                         _______ _______ _______ _____ _____    ______ ____
ROOT
ATOM      1  C   UNL     1       0.707  -0.490  -1.238  0.00  0.00    -0.025 A 
ATOM      2  C   UNL     1      -0.021  -0.817  -2.365  0.00  0.00    +0.036 A 
ATOM      3  C   UNL     1       0.625  -1.264  -3.502  0.00  0.00    +0.128 A 
ATOM      4  C   UNL     1       2.003  -1.384  -3.517  0.00  0.00    +0.032 A 
ATOM      5  C   UNL     1       2.737  -1.058  -2.394  0.00  0.00    +0.025 A 
ATOM      6  C   UNL     1       2.092  -0.604  -1.251  0.00  0.00    +0.033 A 
ENDROOT
BRANCH   6   7
ATOM      7  N   UNL     1       2.832  -0.269  -0.115  0.00  0.00    -0.333 N 
ATOM      8  C   UNL     1       3.144  -1.277   0.909  0.00  0.00    +0.086 C 
ATOM      9  C   UNL     1       2.756  -0.714   2.280  0.00  0.00    -0.063 C 
ATOM     10  N   UNL     1       3.420   0.581   2.482  0.00  0.00    +0.386 N 
ATOM     11  C   UNL     1       2.926   1.554   1.500  0.00  0.00    -0.020 C 
ATOM     12  C   UNL     1       3.327   1.101   0.088  0.00  0.00    +0.094 C 
ATOM     13  H   UNL     1       3.225   0.916   3.413  0.00  0.00    -0.085 HD
ATOM     14  H   UNL     1       4.416   0.467   2.370  0.00  0.00    -0.085 HD
BRANCH  11  15
ATOM     15  C   UNL     1       3.531   2.905   1.784  0.00  0.00    -0.018 A 
ATOM     16  C   UNL     1       4.740   2.996   2.446  0.00  0.00    +0.005 A 
ATOM     17  C   UNL     1       5.295   4.235   2.707  0.00  0.00    +0.000 A 
ATOM     18  C   UNL     1       4.642   5.386   2.306  0.00  0.00    +0.004 A 
ATOM     19  C   UNL     1       3.433   5.301   1.644  0.00  0.00    +0.045 A 
ATOM     20  C   UNL     1       2.877   4.058   1.376  0.00  0.00    +0.118 A 
BRANCH  20  21
ATOM     21  O   UNL     1       1.690   3.971   0.719  0.00  0.00    -0.507 OA
ATOM     22  H   UNL     1       0.917   3.976   1.300  0.00  0.00    +0.292 HD
ENDBRANCH  20  21
ENDBRANCH  11  15
ENDBRANCH   6   7
BRANCH   3  23
ATOM     23  S   UNL     1      -0.309  -1.681  -4.937  0.00  0.00    +0.151 S 
ATOM     24  O   UNL     1       0.484  -2.590  -5.688  0.00  0.00    -0.131 OA
ATOM     25  O   UNL     1      -1.619  -2.002  -4.490  0.00  0.00    -0.131 OA
BRANCH  23  26
ATOM     26  O   UNL     1      -0.433  -0.417  -5.777  0.00  0.00    -0.342 OA
BRANCH  26  27
ATOM     27  C   UNL     1       0.705  -0.079  -6.439  0.00  0.00    +0.157 A 
ATOM     28  C   UNL     1       1.641   0.748  -5.835  0.00  0.00    +0.048 A 
ATOM     29  C   UNL     1       2.796   1.089  -6.510  0.00  0.00    +0.004 A 
ATOM     30  C   UNL     1       3.021   0.608  -7.787  0.00  0.00    +0.000 A 
ATOM     31  C   UNL     1       2.089  -0.216  -8.391  0.00  0.00    +0.004 A 
ATOM     32  C   UNL     1       0.934  -0.566  -7.718  0.00  0.00    +0.048 A 
ENDBRANCH  26  27
ENDBRANCH  23  26
ENDBRANCH   3  23
BRANCH   1  34
ATOM     33  C   UNL     1      -0.019   1.526   0.010  0.00  0.00    +0.009 C 
ATOM     34  C   UNL     1       0.002  -0.004   0.002  0.00  0.00    +0.033 C 
ENDBRANCH   1  34
TORSDOF 7
