REMARK  Name = ZINC13215842
REMARK  6 active torsions:
REMARK  status: ('A' for Active; 'I' for Inactive)
REMARK    1  A    between atoms: C_1  and  C_2
REMARK    2  A    between atoms: C_5  and  C_34
REMARK    3  A    between atoms: C_7  and  N_8
REMARK    4  A    between atoms: C_9  and  C_27
REMARK    5  A    between atoms: C_11  and  C_16
REMARK    6  A    between atoms: C_16  and  C_18
REMARK                            x       y       z     vdW  Elec       q    Type
REMARK                         _______ _______ _______ _____ _____    ______ ____
ROOT
ATOM      1  N   UNL     1      -0.579  -0.432   2.396  0.00  0.00    -0.253 N 
ATOM      2  C   UNL     1      -1.431  -0.021   3.517  0.00  0.00    +0.150 C 
ATOM      3  C   UNL     1      -0.567   0.840   4.409  0.00  0.00    +0.077 C 
ATOM      4  C   UNL     1       0.656   0.898   3.830  0.00  0.00    +0.250 C 
ATOM      5  C   UNL     1       0.641   0.102   2.586  0.00  0.00    +0.292 C 
ATOM      6  O   UNL     1       1.591  -0.045   1.841  0.00  0.00    -0.266 OA
ATOM      7  O   UNL     1       1.722   1.573   4.317  0.00  0.00    -0.282 OA
ENDROOT
BRANCH   1  14
ATOM      8  C   UNL     1      -1.640   0.833   0.083  0.00  0.00    +0.045 C 
ATOM      9  C   UNL     1      -1.489  -0.664   0.171  0.00  0.00    -0.029 A 
ATOM     10  C   UNL     1      -1.867  -1.459  -0.895  0.00  0.00    +0.006 A 
ATOM     11  C   UNL     1      -1.732  -2.830  -0.823  0.00  0.00    +0.015 A 
ATOM     12  C   UNL     1      -1.211  -3.420   0.332  0.00  0.00    +0.065 A 
ATOM     13  C   UNL     1      -0.829  -2.618   1.409  0.00  0.00    +0.039 A 
ATOM     14  C   UNL     1      -0.964  -1.240   1.323  0.00  0.00    +0.041 A 
BRANCH  12  15
ATOM     15  C   UNL     1      -1.065  -4.886   0.413  0.00  0.00    +0.387 C 
ATOM     16  O   UNL     1      -1.401  -5.587  -0.531  0.00  0.00    -0.241 OA
ATOM     17  O   UNL     1      -0.609  -5.400   1.424  0.00  0.00    -0.241 OA
ENDBRANCH  12  15
ENDBRANCH   1  14
BRANCH   2  18
ATOM     18  C   UNL     1      -1.913  -1.232   4.273  0.00  0.00    -0.022 A 
ATOM     19  C   UNL     1      -1.022  -2.232   4.616  0.00  0.00    +0.008 A 
ATOM     20  C   UNL     1      -1.463  -3.343   5.310  0.00  0.00    +0.038 A 
ATOM     21  C   UNL     1      -2.798  -3.455   5.660  0.00  0.00    +0.123 A 
ATOM     22  C   UNL     1      -3.689  -2.453   5.316  0.00  0.00    +0.038 A 
ATOM     23  C   UNL     1      -3.245  -1.340   4.627  0.00  0.00    +0.008 A 
ATOM     24  F   UNL     1      -3.230  -4.541   6.338  0.00  0.00    -0.205 F 
ENDBRANCH   2  18
BRANCH   3  25
ATOM     25  C   UNL     1      -0.973   1.487   5.660  0.00  0.00    +0.195 C 
ATOM     26  O   UNL     1      -0.450   1.164   6.711  0.00  0.00    -0.287 OA
BRANCH  25  27
ATOM     27  C   UNL     1      -2.018   2.530   5.646  0.00  0.00    +0.026 A 
ATOM     28  C   UNL     1      -2.544   2.978   4.431  0.00  0.00    +0.015 A 
ATOM     29  C   UNL     1      -3.519   3.950   4.420  0.00  0.00    +0.050 A 
ATOM     30  C   UNL     1      -3.982   4.490   5.613  0.00  0.00    +0.166 A 
ATOM     31  C   UNL     1      -3.460   4.047   6.830  0.00  0.00    +0.167 A 
ATOM     32  C   UNL     1      -2.487   3.068   6.848  0.00  0.00    +0.061 A 
ATOM     33  O   UNL     1      -4.076   4.728   7.841  0.00  0.00    -0.453 OA
ATOM     34  C   UNL     1      -4.680   5.876   7.218  0.00  0.00    +0.466 C 
ATOM     35  O   UNL     1      -4.922   5.445   5.865  0.00  0.00    -0.453 OA
ENDBRANCH  25  27
ENDBRANCH   3  25
TORSDOF 5
