REMARK  Name = ZINC40957686
REMARK  9 active torsions:
REMARK  status: ('A' for Active; 'I' for Inactive)
REMARK    1  A    between atoms: C_1  and  C_2
REMARK    2  A    between atoms: C_5  and  C_8
REMARK    3  A    between atoms: C_10  and  C_13
REMARK    4  A    between atoms: C_13  and  N_14
REMARK    5  A    between atoms: C_17  and  N_20
REMARK    6  A    between atoms: C_21  and  C_23
REMARK    7  A    between atoms: C_24  and  C_25
REMARK    8  A    between atoms: C_28  and  C_32
REMARK    9  A    between atoms: C_29  and  C_31
REMARK                            x       y       z     vdW  Elec       q    Type
REMARK                         _______ _______ _______ _____ _____    ______ ____
ROOT
ATOM      1  N   UNL     1      -1.278  -7.884   1.946  0.00  0.00    +0.386 N 
ATOM      2  C   UNL     1      -1.931  -8.356   0.719  0.00  0.00    -0.076 C 
ATOM      3  C   UNL     1      -3.392  -8.700   1.014  0.00  0.00    +0.004 C 
ATOM      4  C   UNL     1      -3.447  -9.799   2.079  0.00  0.00    +0.070 C 
ATOM      5  C   UNL     1      -2.699  -9.325   3.328  0.00  0.00    +0.004 C 
ATOM      6  C   UNL     1      -1.264  -8.958   2.947  0.00  0.00    -0.076 C 
ATOM      7  H   UNL     1      -1.785  -7.092   2.312  0.00  0.00    -0.081 HD
ENDROOT
BRANCH   4   8
ATOM      8  N   UNL     1      -4.844 -10.080   2.421  0.00  0.00    -0.309 N 
ATOM      9  C   UNL     1      -5.187 -11.286   2.917  0.00  0.00    +0.237 C 
ATOM     10  O   UNL     1      -4.337 -12.141   3.079  0.00  0.00    -0.271 OA
ATOM     11  H   UNL     1      -5.522  -9.398   2.291  0.00  0.00    +0.149 HD
BRANCH   9  12
ATOM     12  C   UNL     1      -6.583 -11.566   3.259  0.00  0.00    +0.068 C 
ATOM     13  C   UNL     1      -6.926 -12.772   3.754  0.00  0.00    +0.013 C 
BRANCH  13  14
ATOM     14  C   UNL     1      -8.329 -13.054   4.098  0.00  0.00    -0.025 A 
ATOM     15  C   UNL     1      -9.310 -12.076   3.907  0.00  0.00    +0.008 A 
ATOM     16  C   UNL     1     -10.622 -12.348   4.232  0.00  0.00    +0.004 A 
ATOM     17  C   UNL     1     -10.970 -13.585   4.746  0.00  0.00    -0.048 A 
ATOM     18  C   UNL     1     -10.005 -14.558   4.938  0.00  0.00    -0.047 A 
ATOM     19  C   UNL     1      -8.689 -14.304   4.613  0.00  0.00    +0.011 A 
ATOM     20  C   UNL     1     -10.394 -15.902   5.498  0.00  0.00    +0.044 C 
ATOM     21  C   UNL     1     -12.406 -13.874   5.099  0.00  0.00    +0.044 C 
ENDBRANCH  13  14
ENDBRANCH   9  12
ENDBRANCH   4   8
BRANCH   1  22
ATOM     22  C   UNL     1       0.102  -7.482   1.642  0.00  0.00    +0.022 C 
BRANCH  22  25
ATOM     23  C   UNL     1       0.059  -4.256  -0.021  0.00  0.00    +0.202 A 
ATOM     24  N   UNL     1       0.070  -5.047   1.067  0.00  0.00    -0.193 NA
ATOM     25  C   UNL     1       0.086  -6.299   0.708  0.00  0.00    +0.211 A 
ATOM     26  O   UNL     1       0.086  -6.357  -0.630  0.00  0.00    -0.340 OA
ATOM     27  N   UNL     1       0.064  -5.015  -1.090  0.00  0.00    -0.056 NA
BRANCH  23  32
ATOM     28  C   UNL     1      -0.018   1.503   0.010  0.00  0.00    +0.044 C 
ATOM     29  C   UNL     1       0.002  -0.004   0.002  0.00  0.00    -0.050 A 
ATOM     30  C   UNL     1       0.006  -0.686  -1.201  0.00  0.00    +0.004 A 
ATOM     31  C   UNL     1       0.024  -2.067  -1.214  0.00  0.00    +0.012 A 
ATOM     32  C   UNL     1       0.040  -2.772  -0.013  0.00  0.00    +0.022 A 
ATOM     33  C   UNL     1       0.036  -2.080   1.196  0.00  0.00    +0.012 A 
ATOM     34  C   UNL     1       0.023  -0.700   1.198  0.00  0.00    +0.004 A 
ENDBRANCH  23  32
ENDBRANCH  22  25
ENDBRANCH   1  22
TORSDOF 6
