REMARK  Name = ZINC02465585
REMARK  3 active torsions:
REMARK  status: ('A' for Active; 'I' for Inactive)
REMARK    1  A    between atoms: C_6  and  N_7
REMARK    2  A    between atoms: C_8  and  C_10
REMARK    3  A    between atoms: C_12  and  C_15
REMARK                            x       y       z     vdW  Elec       q    Type
REMARK                         _______ _______ _______ _____ _____    ______ ____
ROOT
ATOM      1  C   UNL     1      -2.457  -2.816  -0.202  0.00  0.00    +0.168 A 
ATOM      2  C   UNL     1      -2.587  -4.216  -0.315  0.00  0.00    +0.086 A 
ATOM      3  C   UNL     1      -3.914  -4.509  -0.385  0.00  0.00    +0.168 A 
ATOM      4  O   UNL     1      -4.597  -3.351  -0.319  0.00  0.00    -0.354 OA
ATOM      5  N   UNL     1      -3.662  -2.295  -0.199  0.00  0.00    -0.073 NA
ENDROOT
BRANCH   3   6
ATOM      6  C   UNL     1      -4.501  -5.859  -0.510  0.00  0.00    +0.024 A 
ATOM      7  C   UNL     1      -3.672  -6.981  -0.563  0.00  0.00    +0.015 A 
ATOM      8  C   UNL     1      -4.222  -8.239  -0.680  0.00  0.00    +0.050 A 
ATOM      9  C   UNL     1      -5.599  -8.397  -0.747  0.00  0.00    +0.166 A 
ATOM     10  C   UNL     1      -6.433  -7.280  -0.695  0.00  0.00    +0.167 A 
ATOM     11  C   UNL     1      -5.887  -6.016  -0.571  0.00  0.00    +0.061 A 
ATOM     12  O   UNL     1      -7.729  -7.700  -0.777  0.00  0.00    -0.453 OA
ATOM     13  C   UNL     1      -7.665  -9.044  -1.291  0.00  0.00    +0.466 C 
ATOM     14  O   UNL     1      -6.374  -9.514  -0.862  0.00  0.00    -0.453 OA
ENDBRANCH   3   6
BRANCH   1  16
ATOM     15  N   UNL     1      -1.199  -0.721   0.010  0.00  0.00    -0.280 N 
ATOM     16  C   UNL     1      -1.182  -2.064  -0.099  0.00  0.00    +0.270 C 
ATOM     17  O   UNL     1      -0.123  -2.660  -0.113  0.00  0.00    -0.268 OA
ATOM     18  H   UNL     1      -2.043  -0.252   0.098  0.00  0.00    +0.155 HD
BRANCH  15  24
ATOM     19  C   UNL     1       1.072  -0.453  -0.767  0.00  0.00    +0.024 A 
ATOM     20  C   UNL     1       2.256   0.258  -0.779  0.00  0.00    +0.017 A 
ATOM     21  C   UNL     1       2.377   1.417  -0.032  0.00  0.00    +0.018 A 
ATOM     22  C   UNL     1       1.312   1.866   0.730  0.00  0.00    +0.017 A 
ATOM     23  C   UNL     1       0.126   1.159   0.745  0.00  0.00    +0.024 A 
ATOM     24  C   UNL     1       0.002  -0.004  -0.004  0.00  0.00    +0.034 A 
ATOM     25 BR   UNL     1       4.000   2.387  -0.051  0.00  0.00    -0.050 Br
ENDBRANCH  15  24
ENDBRANCH   1  16
TORSDOF 3
