REMARK  Name = ZINC43159145
REMARK  8 active torsions:
REMARK  status: ('A' for Active; 'I' for Inactive)
REMARK    1  A    between atoms: C_1  and  C_2
REMARK    2  A    between atoms: N_5  and  C_11
REMARK    3  A    between atoms: C_7  and  C_10
REMARK    4  A    between atoms: C_14  and  N_31
REMARK    5  A    between atoms: C_15  and  C_17
REMARK    6  A    between atoms: C_17  and  C_18
REMARK    7  A    between atoms: C_18  and  C_20
REMARK    8  A    between atoms: C_18  and  C_21
REMARK                            x       y       z     vdW  Elec       q    Type
REMARK                         _______ _______ _______ _____ _____    ______ ____
ROOT
ATOM      1  C   UNL     1       2.515   1.763  -4.033  0.00  0.00    +0.030 A 
ATOM      2  C   UNL     1       2.065   0.770  -3.171  0.00  0.00    +0.025 A 
ATOM      3  C   UNL     1       2.954   0.138  -2.325  0.00  0.00    +0.035 A 
ATOM      4  C   UNL     1       4.292   0.491  -2.335  0.00  0.00    +0.129 A 
ATOM      5  C   UNL     1       4.742   1.478  -3.192  0.00  0.00    -0.015 A 
ATOM      6  C   UNL     1       3.859   2.111  -4.044  0.00  0.00    +0.029 A 
ENDROOT
BRANCH   1  10
ATOM      7  C   UNL     1       1.159   5.199  -4.099  0.00  0.00    -0.012 C 
ATOM      8  C   UNL     1       1.068   4.689  -5.539  0.00  0.00    -0.057 C 
ATOM      9  C   UNL     1       2.051   3.530  -5.733  0.00  0.00    +0.089 C 
ATOM     10  N   UNL     1       1.618   2.405  -4.890  0.00  0.00    -0.333 N 
ATOM     11  C   UNL     1       0.214   1.974  -4.976  0.00  0.00    +0.089 C 
ATOM     12  C   UNL     1      -0.682   3.207  -4.817  0.00  0.00    -0.057 C 
ATOM     13  N   UNL     1      -0.298   4.221  -5.807  0.00  0.00    +0.384 N 
ATOM     14  C   UNL     1      -2.143   2.807  -5.037  0.00  0.00    -0.012 C 
ATOM     15  H   UNL     1      -0.936   5.001  -5.753  0.00  0.00    -0.085 HD
ATOM     16  H   UNL     1      -0.339   3.820  -6.732  0.00  0.00    -0.085 HD
ENDBRANCH   1  10
BRANCH   4  17
ATOM     17  N   UNL     1       5.242  -0.190  -1.427  0.00  0.00    +0.057 N 
ATOM     18  O   UNL     1       4.863  -1.100  -0.728  0.00  0.00    -0.126 OA
ATOM     19  O   UNL     1       6.397   0.165  -1.385  0.00  0.00    -0.126 OA
ENDBRANCH   4  17
BRANCH   5  20
ATOM     20  C   UNL     1       6.200   1.860  -3.199  0.00  0.00    +0.041 C 
BRANCH  20  21
ATOM     21  C   UNL     1       6.998   0.812  -3.976  0.00  0.00    -0.003 C 
ATOM     22  C   UNL     1       6.559   0.820  -5.441  0.00  0.00    +0.008 C 
BRANCH  21  23
ATOM     23  C   UNL     1       8.490   1.140  -3.890  0.00  0.00    -0.026 C 
ATOM     24  C   UNL     1       8.930   1.132  -2.425  0.00  0.00    +0.010 C 
ATOM     25  C   UNL     1      10.422   1.460  -2.338  0.00  0.00    -0.010 C 
ATOM     26  C   UNL     1      11.221   0.412  -3.116  0.00  0.00    +0.007 C 
ATOM     27  C   UNL     1      10.781   0.419  -4.581  0.00  0.00    -0.010 C 
ATOM     28  C   UNL     1       9.289   0.092  -4.668  0.00  0.00    +0.010 C 
ATOM     29  C   UNL     1      11.034   1.803  -5.183  0.00  0.00    +0.007 C 
ATOM     30  C   UNL     1      10.236   2.852  -4.405  0.00  0.00    -0.010 C 
ATOM     31  C   UNL     1      10.676   2.844  -2.940  0.00  0.00    +0.007 C 
ATOM     32  C   UNL     1       8.744   2.524  -4.491  0.00  0.00    +0.010 C 
ENDBRANCH  21  23
ENDBRANCH  20  21
ENDBRANCH   5  20
TORSDOF 5
