REMARK  Name = ZINC36593767
REMARK  20 active torsions:
REMARK  status: ('A' for Active; 'I' for Inactive)
REMARK    1  A    between atoms: C_1  and  C_2
REMARK    2  A    between atoms: C_2  and  C_3
REMARK    3  A    between atoms: C_2  and  C_4
REMARK    4  A    between atoms: C_2  and  C_5
REMARK    5  A    between atoms: C_5  and  C_6
REMARK    6  A    between atoms: C_6  and  C_7
REMARK    7  A    between atoms: C_6  and  C_8
REMARK    8  A    between atoms: C_6  and  N_9
REMARK    9  A    between atoms: C_10  and  C_12
REMARK   10  A    between atoms: C_12  and  C_14
REMARK   11  A    between atoms: C_12  and  N_23
REMARK   12  A    between atoms: C_17  and  O_22
REMARK   13  A    between atoms: C_18  and  O_20
REMARK   14  A    between atoms: O_20  and  C_21
REMARK   15  A    between atoms: N_23  and  C_35
REMARK   16  A    between atoms: C_24  and  C_26
REMARK   17  A    between atoms: C_29  and  N_32
REMARK   18  A    between atoms: C_35  and  C_36
REMARK   19  A    between atoms: C_35  and  C_37
REMARK   20  A    between atoms: C_35  and  C_38
REMARK                            x       y       z     vdW  Elec       q    Type
REMARK                         _______ _______ _______ _____ _____    ______ ____
ROOT
ATOM      1  C   UNL     1       5.961   0.512  -3.104  0.00  0.00    +0.193 C 
ENDROOT
BRANCH   1   2
ATOM      2  C   UNL     1       5.391   1.862  -2.753  0.00  0.00    -0.014 A 
ATOM      3  C   UNL     1       6.095   3.011  -3.063  0.00  0.00    +0.010 A 
ATOM      4  C   UNL     1       5.575   4.251  -2.742  0.00  0.00    +0.049 A 
ATOM      5  C   UNL     1       4.346   4.345  -2.109  0.00  0.00    +0.158 A 
ATOM      6  C   UNL     1       3.638   3.189  -1.798  0.00  0.00    +0.162 A 
ATOM      7  C   UNL     1       4.162   1.949  -2.126  0.00  0.00    +0.055 A 
BRANCH   6   8
ATOM      8  O   UNL     1       2.431   3.276  -1.176  0.00  0.00    -0.491 OA
ATOM      9  C   UNL     1       1.760   2.048  -0.887  0.00  0.00    +0.277 C 
ENDBRANCH   6   8
BRANCH   5  10
ATOM     10  O   UNL     1       3.834   5.565  -1.793  0.00  0.00    -0.503 OA
ATOM     11  H   UNL     1       3.284   5.952  -2.487  0.00  0.00    +0.292 HD
ENDBRANCH   5  10
ENDBRANCH   1   2
BRANCH   1  13
ATOM     12  N   UNL     1       6.219  -0.267  -0.771  0.00  0.00    -0.308 N 
ATOM     13  C   UNL     1       6.797   0.006  -1.957  0.00  0.00    +0.239 C 
ATOM     14  O   UNL     1       7.990  -0.156  -2.102  0.00  0.00    -0.273 OA
ATOM     15  H   UNL     1       5.264  -0.137  -0.655  0.00  0.00    +0.149 HD
BRANCH  12  16
ATOM     16  C   UNL     1       7.031  -0.759   0.345  0.00  0.00    +0.030 C 
ATOM     17  C   UNL     1       8.261   0.135   0.513  0.00  0.00    +0.031 C 
ATOM     18  C   UNL     1       7.479  -2.193   0.055  0.00  0.00    +0.031 C 
BRANCH  16  19
ATOM     19  C   UNL     1       6.202  -0.733   1.630  0.00  0.00    +0.031 C 
BRANCH  19  21
ATOM     20  C   UNL     1       4.268   0.578   0.746  0.00  0.00    +0.010 C 
ATOM     21  C   UNL     1       5.446   0.594   1.722  0.00  0.00    -0.036 C 
ATOM     22  C   UNL     1       6.389   1.745   1.365  0.00  0.00    +0.010 C 
ATOM     23  C   UNL     1       4.924   0.786   3.148  0.00  0.00    +0.010 C 
ENDBRANCH  19  21
ENDBRANCH  16  19
ENDBRANCH  12  16
ENDBRANCH   1  13
BRANCH   1  24
ATOM     24  N   UNL     1       6.797   0.632  -4.302  0.00  0.00    -0.277 N 
ATOM     25  C   UNL     1       8.024   1.182  -4.214  0.00  0.00    +0.248 C 
ATOM     26  O   UNL     1       8.531   1.367  -3.125  0.00  0.00    -0.270 OA
BRANCH  25  27
ATOM     27  C   UNL     1       8.754   1.560  -5.443  0.00  0.00    +0.037 A 
ATOM     28  C   UNL     1       8.457   0.935  -6.655  0.00  0.00    +0.015 A 
ATOM     29  C   UNL     1       9.142   1.292  -7.798  0.00  0.00    +0.033 A 
ATOM     30  C   UNL     1      10.120   2.269  -7.745  0.00  0.00    +0.126 A 
ATOM     31  C   UNL     1      10.420   2.893  -6.547  0.00  0.00    +0.033 A 
ATOM     32  C   UNL     1       9.739   2.549  -5.398  0.00  0.00    +0.015 A 
BRANCH  30  33
ATOM     33  N   UNL     1      10.851   2.647  -8.976  0.00  0.00    +0.056 N 
ATOM     34  O   UNL     1      10.592   2.104 -10.024  0.00  0.00    -0.126 OA
ATOM     35  O   UNL     1      11.707   3.500  -8.933  0.00  0.00    -0.126 OA
ENDBRANCH  30  33
ENDBRANCH  25  27
BRANCH  24  36
ATOM     36  C   UNL     1       6.298   0.155  -5.594  0.00  0.00    +0.030 C 
ATOM     37  C   UNL     1       4.830  -0.251  -5.455  0.00  0.00    +0.031 C 
ATOM     38  C   UNL     1       6.424   1.271  -6.633  0.00  0.00    +0.031 C 
ATOM     39  C   UNL     1       7.121  -1.055  -6.042  0.00  0.00    +0.031 C 
ENDBRANCH  24  36
ENDBRANCH   1  24
TORSDOF 11
