REMARK  Name = ZINC15225761
REMARK  8 active torsions:
REMARK  status: ('A' for Active; 'I' for Inactive)
REMARK    1  A    between atoms: C_1  and  C_2
REMARK    2  A    between atoms: C_3  and  C_19
REMARK    3  A    between atoms: N_5  and  C_11
REMARK    4  A    between atoms: C_6  and  C_7
REMARK    5  A    between atoms: C_8  and  C_9
REMARK    6  A    between atoms: C_11  and  C_12
REMARK    7  A    between atoms: N_26  and  C_29
REMARK    8  A    between atoms: C_32  and  N_35
REMARK                            x       y       z     vdW  Elec       q    Type
REMARK                         _______ _______ _______ _____ _____    ______ ____
ROOT
ATOM      1  C   UNL     1       3.312  -1.666  -5.124  0.00  0.00    +0.028 C 
ATOM      2  C   UNL     1       3.795  -2.935  -4.877  0.00  0.00    +0.102 C 
ATOM      3  C   UNL     1       4.388  -3.759  -5.952  0.00  0.00    +0.276 C 
ATOM      4  O   UNL     1       4.468  -3.338  -7.090  0.00  0.00    -0.268 OA
ATOM      5  N   UNL     1       4.845  -4.988  -5.633  0.00  0.00    -0.123 NA
ATOM      6  C   UNL     1       4.757  -5.466  -4.384  0.00  0.00    +0.340 C 
ATOM      7  O   UNL     1       5.182  -6.583  -4.166  0.00  0.00    -0.250 OA
ATOM      8  N   UNL     1       4.227  -4.779  -3.362  0.00  0.00    -0.188 N 
ATOM      9  C   UNL     1       3.736  -3.534  -3.527  0.00  0.00    +0.264 C 
ATOM     10  O   UNL     1       3.258  -2.922  -2.592  0.00  0.00    -0.269 OA
ENDROOT
BRANCH   1  13
ATOM     11  C   UNL     1       3.779   1.325  -4.199  0.00  0.00    +0.046 C 
ATOM     12  C   UNL     1       2.748   0.356  -3.680  0.00  0.00    -0.018 A 
ATOM     13  C   UNL     1       2.549  -0.959  -4.094  0.00  0.00    -0.003 A 
ATOM     14  C   UNL     1       1.478  -1.488  -3.338  0.00  0.00    +0.094 A 
ATOM     15  N   UNL     1       1.017  -0.565  -2.489  0.00  0.00    -0.342 N 
ATOM     16  C   UNL     1       1.743   0.607  -2.639  0.00  0.00    +0.046 A 
BRANCH  16  17
ATOM     17  C   UNL     1       1.558   1.784  -1.941  0.00  0.00    +0.026 C 
ATOM     18  C   UNL     1       1.276   2.983  -2.637  0.00  0.00    +0.001 C 
BRANCH  18  19
ATOM     19  C   UNL     1       1.062   2.955  -4.012  0.00  0.00    -0.008 C 
ATOM     20  C   UNL     1       0.790   4.111  -4.683  0.00  0.00    +0.008 C 
ENDBRANCH  18  19
ENDBRANCH  16  17
BRANCH  15  21
ATOM     21  C   UNL     1      -0.089  -0.759  -1.549  0.00  0.00    +0.159 C 
BRANCH  21  22
ATOM     22  C   UNL     1      -1.369  -0.262  -2.170  0.00  0.00    +0.007 A 
ATOM     23  C   UNL     1      -1.810   1.022  -1.912  0.00  0.00    +0.008 A 
ATOM     24  C   UNL     1      -2.984   1.479  -2.482  0.00  0.00    +0.000 A 
ATOM     25  C   UNL     1      -3.718   0.651  -3.311  0.00  0.00    +0.003 A 
ATOM     26  C   UNL     1      -3.277  -0.632  -3.574  0.00  0.00    +0.039 A 
ATOM     27  C   UNL     1      -2.104  -1.092  -2.999  0.00  0.00    +0.128 A 
ATOM     28  F   UNL     1      -1.674  -2.347  -3.253  0.00  0.00    -0.205 F 
ENDBRANCH  21  22
ENDBRANCH  15  21
ENDBRANCH   1  13
BRANCH   8  29
ATOM     29  C   UNL     1       4.183  -5.369  -2.092  0.00  0.00    +0.046 A 
ATOM     30  C   UNL     1       4.976  -4.873  -1.066  0.00  0.00    +0.026 A 
ATOM     31  C   UNL     1       4.926  -5.452   0.187  0.00  0.00    +0.034 A 
ATOM     32  C   UNL     1       4.095  -6.534   0.417  0.00  0.00    +0.126 A 
ATOM     33  C   UNL     1       3.309  -7.034  -0.604  0.00  0.00    +0.034 A 
ATOM     34  C   UNL     1       3.350  -6.455  -1.858  0.00  0.00    +0.026 A 
BRANCH  32  35
ATOM     35  N   UNL     1       4.048  -7.156   1.759  0.00  0.00    +0.056 N 
ATOM     36  O   UNL     1       3.257  -8.186   1.979  0.00  0.00    -0.126 OA
ATOM     37  O   UNL     1       4.797  -6.680   2.732  0.00  0.00    -0.126 OA
ENDBRANCH  32  35
ENDBRANCH   8  29
TORSDOF 7
