REMARK  Name = ZINC15841446
REMARK  5 active torsions:
REMARK  status: ('A' for Active; 'I' for Inactive)
REMARK    1  A    between atoms: C_1  and  C_2
REMARK    2  A    between atoms: C_2  and  C_25
REMARK    3  A    between atoms: C_10  and  N_14
REMARK    4  A    between atoms: C_11  and  C_12
REMARK    5  A    between atoms: N_17  and  C_18
REMARK                            x       y       z     vdW  Elec       q    Type
REMARK                         _______ _______ _______ _____ _____    ______ ____
ROOT
ATOM      1  C   UNL     1       4.290   4.150   0.401  0.00  0.00    +0.017 C 
ATOM      2  C   UNL     1       3.093   3.287   0.804  0.00  0.00    +0.006 C 
ATOM      3  C   UNL     1       1.819   3.883   0.211  0.00  0.00    +0.047 C 
ATOM      4  C   UNL     1       0.664   2.939   0.412  0.00  0.00    -0.038 A 
ATOM      5  C   UNL     1      -0.604   3.423   0.652  0.00  0.00    +0.004 A 
ATOM      6  C   UNL     1      -1.659   2.545   0.831  0.00  0.00    +0.000 A 
ATOM      7  C   UNL     1      -1.451   1.178   0.765  0.00  0.00    +0.001 A 
ATOM      8  C   UNL     1      -0.185   0.679   0.531  0.00  0.00    +0.010 A 
ATOM      9  C   UNL     1       0.880   1.560   0.351  0.00  0.00    +0.000 A 
ATOM     10  C   UNL     1       2.245   1.056   0.097  0.00  0.00    +0.056 C 
ATOM     11  C   UNL     1       3.305   1.883   0.306  0.00  0.00    +0.057 C 
ATOM     12  C   UNL     1       2.977   3.267   2.330  0.00  0.00    +0.017 C 
ENDROOT
BRANCH  10  13
ATOM     13  N   UNL     1       2.443  -0.240  -0.349  0.00  0.00    -0.268 N 
ATOM     14  C   UNL     1       1.876  -0.650  -1.500  0.00  0.00    +0.308 C 
ATOM     15  O   UNL     1       1.264   0.140  -2.193  0.00  0.00    -0.252 OA
ATOM     16  N   UNL     1       1.987  -1.938  -1.885  0.00  0.00    -0.269 N 
ATOM     17  H   UNL     1       2.990  -0.852   0.168  0.00  0.00    +0.156 HD
ATOM     18  H   UNL     1       2.413  -2.583  -1.300  0.00  0.00    +0.156 HD
BRANCH  16  19
ATOM     19  C   UNL     1       1.488  -2.342  -3.128  0.00  0.00    +0.036 A 
ATOM     20  C   UNL     1       0.998  -3.631  -3.295  0.00  0.00    +0.023 A 
ATOM     21  C   UNL     1       0.502  -4.026  -4.522  0.00  0.00    +0.003 A 
ATOM     22  C   UNL     1       0.501  -3.143  -5.586  0.00  0.00    +0.015 A 
ATOM     23  C   UNL     1       0.994  -1.861  -5.425  0.00  0.00    +0.020 A 
ATOM     24  C   UNL     1       1.487  -1.458  -4.198  0.00  0.00    +0.038 A 
ATOM     25 BR   UNL     1       0.992  -0.657  -6.884  0.00  0.00    -0.050 Br
ENDBRANCH  16  19
ENDBRANCH  10  13
BRANCH  11  26
ATOM     26  C   UNL     1       4.633   1.413   0.051  0.00  0.00    +0.097 C 
ATOM     27  N   UNL     1       5.687   1.041  -0.152  0.00  0.00    -0.191 NA
ENDBRANCH  11  26
TORSDOF 3
