REMARK  Name = ZINC64188224
REMARK  8 active torsions:
REMARK  status: ('A' for Active; 'I' for Inactive)
REMARK    1  A    between atoms: C_1  and  C_2
REMARK    2  A    between atoms: N_5  and  S_11
REMARK    3  A    between atoms: C_7  and  C_10
REMARK    4  A    between atoms: S_11  and  N_14
REMARK    5  A    between atoms: N_14  and  C_15
REMARK    6  A    between atoms: C_15  and  C_16
REMARK    7  A    between atoms: C_16  and  C_18
REMARK    8  A    between atoms: C_16  and  C_25
REMARK                            x       y       z     vdW  Elec       q    Type
REMARK                         _______ _______ _______ _____ _____    ______ ____
ROOT
ATOM      1  C   UNL     1       0.550  -4.684  -3.155  0.00  0.00    +0.064 C 
ENDROOT
BRANCH   1   2
ATOM      2  C   UNL     1       1.735  -5.578  -2.891  0.00  0.00    -0.033 C 
ATOM      3  C   UNL     1       1.859  -6.882  -3.225  0.00  0.00    -0.000 A 
ATOM      4  C   UNL     1       0.963  -7.824  -3.906  0.00  0.00    +0.010 A 
ATOM      5  C   UNL     1       1.375  -9.098  -4.101  0.00  0.00    +0.001 A 
ATOM      6  C   UNL     1       2.633  -9.539  -3.669  0.00  0.00    +0.002 A 
ATOM      7  C   UNL     1       3.511  -8.733  -3.037  0.00  0.00    +0.026 A 
ATOM      8  C   UNL     1       3.183  -7.373  -2.780  0.00  0.00    +0.043 A 
ATOM      9  N   UNL     1       3.851  -6.410  -2.193  0.00  0.00    -0.380 N 
ATOM     10  C   UNL     1       3.027  -5.195  -2.206  0.00  0.00    +0.145 C 
ATOM     11  H   UNL     1       4.742  -6.486  -1.818  0.00  0.00    +0.160 HD
ENDBRANCH   1   2
BRANCH   1  12
ATOM     12  C   UNL     1       0.977  -3.526  -4.020  0.00  0.00    -0.021 A 
ATOM     13  C   UNL     1       1.962  -2.661  -3.580  0.00  0.00    +0.006 A 
ATOM     14  C   UNL     1       2.354  -1.599  -4.373  0.00  0.00    +0.000 A 
ATOM     15  C   UNL     1       1.761  -1.401  -5.606  0.00  0.00    +0.001 A 
ATOM     16  C   UNL     1       0.776  -2.264  -6.047  0.00  0.00    +0.020 A 
ATOM     17  C   UNL     1       0.387  -3.331  -5.256  0.00  0.00    +0.045 A 
ATOM     18 CL   UNL     1      -0.845  -4.420  -5.811  0.00  0.00    -0.083 Cl
ENDBRANCH   1  12
BRANCH   1  19
ATOM     19  C   UNL     1       0.005  -4.155  -1.827  0.00  0.00    +0.119 C 
BRANCH  19  20
ATOM     20  N   UNL     1      -1.216  -3.384  -2.073  0.00  0.00    -0.179 NA
ATOM     21  H   UNL     1      -1.434  -3.095  -2.973  0.00  0.00    +0.149 HD
BRANCH  20  22
ATOM     22  S   UNL     1      -2.225  -3.006  -0.815  0.00  0.00    +0.097 S 
ATOM     23  O   UNL     1      -2.443  -4.211  -0.094  0.00  0.00    -0.141 OA
ATOM     24  O   UNL     1      -3.290  -2.243  -1.363  0.00  0.00    -0.141 OA
BRANCH  22  28
ATOM     25  C   UNL     1      -0.019   1.526   0.010  0.00  0.00    +0.039 C 
ATOM     26  C   UNL     1       0.002  -0.004   0.002  0.00  0.00    +0.131 C 
ATOM     27  C   UNL     1      -1.436  -0.536   0.015  0.00  0.00    +0.142 C 
ATOM     28  N   UNL     1      -1.389  -1.995   0.196  0.00  0.00    -0.162 NA
ATOM     29  C   UNL     1      -0.578  -2.530   1.302  0.00  0.00    +0.142 C 
ATOM     30  C   UNL     1       0.818  -1.901   1.226  0.00  0.00    +0.131 C 
ATOM     31  O   UNL     1       0.691  -0.479   1.161  0.00  0.00    -0.371 OA
ATOM     32  C   UNL     1       1.621  -2.288   2.469  0.00  0.00    +0.039 C 
ENDBRANCH  22  28
ENDBRANCH  20  22
ENDBRANCH  19  20
ENDBRANCH   1  19
TORSDOF 6
