REMARK  Name = ZINC39691312
REMARK  10 active torsions:
REMARK  status: ('A' for Active; 'I' for Inactive)
REMARK    1  A    between atoms: C_1  and  C_2
REMARK    2  A    between atoms: C_2  and  C_3
REMARK    3  A    between atoms: C_3  and  C_4
REMARK    4  A    between atoms: C_4  and  C_5
REMARK    5  A    between atoms: C_9  and  C_18
REMARK    6  A    between atoms: N_20  and  C_21
REMARK    7  A    between atoms: C_21  and  C_22
REMARK    8  A    between atoms: C_22  and  N_23
REMARK    9  A    between atoms: C_24  and  C_26
REMARK   10  A    between atoms: C_26  and  C_27
REMARK                            x       y       z     vdW  Elec       q    Type
REMARK                         _______ _______ _______ _____ _____    ______ ____
ROOT
ATOM      1  C   UNL     1       0.931  -7.401  -2.389  0.00  0.00    +0.218 C 
ATOM      2  O   UNL     1       1.964  -7.599  -1.785  0.00  0.00    -0.275 OA
ATOM      3  N   UNL     1       0.081  -8.420  -2.622  0.00  0.00    -0.314 N 
ATOM      4  H   UNL     1      -0.745  -8.261  -3.106  0.00  0.00    +0.149 HD
ENDROOT
BRANCH   1   9
ATOM      5  C   UNL     1       1.554  -2.530  -2.627  0.00  0.00    +0.216 C 
ATOM      6  O   UNL     1       1.958  -1.756  -3.469  0.00  0.00    -0.276 OA
ATOM      7  N   UNL     1       1.645  -3.859  -2.835  0.00  0.00    -0.300 N 
ATOM      8  C   UNL     1       1.204  -4.951  -1.935  0.00  0.00    +0.121 C 
ATOM      9  C   UNL     1       0.600  -6.015  -2.880  0.00  0.00    +0.100 C 
ATOM     10  C   UNL     1       1.264  -5.753  -4.242  0.00  0.00    -0.004 C 
ATOM     11  C   UNL     1       2.202  -4.558  -4.017  0.00  0.00    +0.115 C 
ATOM     12  C   UNL     1       0.209  -5.399  -5.285  0.00  0.00    -0.010 C 
ATOM     13  C   UNL     1       0.888  -5.199  -6.643  0.00  0.00    -0.082 C 
ATOM     14  N   UNL     1       1.590  -6.429  -7.027  0.00  0.00    +0.379 N 
ATOM     15  C   UNL     1       2.665  -6.712  -6.067  0.00  0.00    -0.082 C 
ATOM     16  C   UNL     1       2.061  -6.976  -4.685  0.00  0.00    -0.010 C 
ATOM     17  H   UNL     1       0.938  -7.199  -7.035  0.00  0.00    -0.086 HD
ATOM     18  H   UNL     1       1.985  -6.316  -7.948  0.00  0.00    -0.086 HD
BRANCH   5  19
ATOM     19  C   UNL     1       0.950  -2.007  -1.350  0.00  0.00    +0.096 C 
BRANCH  19  20
ATOM     20  C   UNL     1       0.967  -0.477  -1.367  0.00  0.00    +0.009 C 
BRANCH  20  22
ATOM     21  C   UNL     1       0.371   1.584  -0.087  0.00  0.00    +0.004 C 
ATOM     22  C   UNL     1       0.354   0.054  -0.070  0.00  0.00    -0.003 C 
ENDBRANCH  20  22
ENDBRANCH  19  20
ENDBRANCH   5  19
ENDBRANCH   1   9
BRANCH   3  23
ATOM     23  C   UNL     1       0.403  -9.767  -2.146  0.00  0.00    +0.123 C 
BRANCH  23  24
ATOM     24  C   UNL     1      -0.719 -10.729  -2.539  0.00  0.00    +0.123 C 
BRANCH  24  25
ATOM     25  N   UNL     1      -0.397 -12.076  -2.062  0.00  0.00    -0.314 N 
ATOM     26  C   UNL     1      -1.247 -13.095  -2.295  0.00  0.00    +0.217 C 
ATOM     27  O   UNL     1      -2.280 -12.897  -2.900  0.00  0.00    -0.275 OA
ATOM     28  H   UNL     1       0.429 -12.235  -1.578  0.00  0.00    +0.149 HD
BRANCH  26  29
ATOM     29  C   UNL     1      -0.916 -14.481  -1.805  0.00  0.00    +0.131 C 
BRANCH  29  30
ATOM     30  C   UNL     1      -2.021 -15.429  -2.192  0.00  0.00    -0.031 A 
ATOM     31  C   UNL     1      -3.024 -15.706  -1.314  0.00  0.00    +0.005 A 
ATOM     32  C   UNL     1      -4.055 -16.580  -1.654  0.00  0.00    +0.001 A 
ATOM     33  C   UNL     1      -4.088 -17.183  -2.874  0.00  0.00    +0.008 A 
ATOM     34  C   UNL     1      -3.070 -16.921  -3.807  0.00  0.00    -0.018 A 
ATOM     35  C   UNL     1      -2.025 -16.028  -3.463  0.00  0.00    -0.014 A 
ATOM     36  C   UNL     1      -1.010 -15.762  -4.398  0.00  0.00    +0.009 A 
ATOM     37  C   UNL     1      -1.047 -16.360  -5.620  0.00  0.00    +0.001 A 
ATOM     38  C   UNL     1      -2.079 -17.234  -5.961  0.00  0.00    +0.001 A 
ATOM     39  C   UNL     1      -3.071 -17.525  -5.076  0.00  0.00    +0.008 A 
ENDBRANCH  29  30
ENDBRANCH  26  29
ENDBRANCH  24  25
ENDBRANCH  23  24
ENDBRANCH   3  23
TORSDOF 9
