REMARK  Name = ZINC60041042
REMARK  11 active torsions:
REMARK  status: ('A' for Active; 'I' for Inactive)
REMARK    1  A    between atoms: C_1  and  C_2
REMARK    2  A    between atoms: C_2  and  C_3
REMARK    3  A    between atoms: C_3  and  C_4
REMARK    4  A    between atoms: C_4  and  N_5
REMARK    5  A    between atoms: C_6  and  C_8
REMARK    6  A    between atoms: C_12  and  C_33
REMARK    7  A    between atoms: N_14  and  C_16
REMARK    8  A    between atoms: C_16  and  C_17
REMARK    9  A    between atoms: N_19  and  C_20
REMARK   10  A    between atoms: C_20  and  C_21
REMARK   11  A    between atoms: C_21  and  N_27
REMARK                            x       y       z     vdW  Elec       q    Type
REMARK                         _______ _______ _______ _____ _____    ______ ____
ROOT
ATOM      1  C   UNL     1      -3.153  -8.236  -1.851  0.00  0.00    +0.019 C 
ENDROOT
BRANCH   1   6
ATOM      2  C   UNL     1      -3.519  -4.525  -1.424  0.00  0.00    +0.058 C 
ATOM      3  C   UNL     1      -4.105  -4.192  -2.799  0.00  0.00    +0.009 C 
ATOM      4  C   UNL     1      -3.436  -5.076  -3.856  0.00  0.00    -0.015 C 
ATOM      5  C   UNL     1      -3.634  -6.546  -3.482  0.00  0.00    -0.071 C 
ATOM      6  N   UNL     1      -3.029  -6.807  -2.171  0.00  0.00    +0.388 N 
ATOM      7  C   UNL     1      -3.713  -6.016  -1.140  0.00  0.00    -0.065 C 
ATOM      8  C   UNL     1      -2.967  -7.434  -4.535  0.00  0.00    -0.013 C 
ATOM      9  H   UNL     1      -2.053  -6.553  -2.195  0.00  0.00    -0.081 HD
BRANCH   2  11
ATOM     10  N   UNL     1      -1.636  -2.936  -1.641  0.00  0.00    -0.315 N 
ATOM     11  C   UNL     1      -2.048  -4.198  -1.411  0.00  0.00    +0.214 C 
ATOM     12  O   UNL     1      -1.234  -5.071  -1.194  0.00  0.00    -0.276 OA
ATOM     13  H   UNL     1      -2.286  -2.237  -1.815  0.00  0.00    +0.149 HD
BRANCH  10  14
ATOM     14  C   UNL     1      -0.206  -2.618  -1.629  0.00  0.00    +0.104 C 
BRANCH  14  15
ATOM     15  C   UNL     1      -0.012  -1.127  -1.916  0.00  0.00    +0.018 C 
BRANCH  15  17
ATOM     16  C   UNL     1       1.675   0.695  -2.190  0.00  0.00    +0.004 C 
ATOM     17  C   UNL     1       1.482  -0.796  -1.903  0.00  0.00    -0.002 C 
ENDBRANCH  15  17
ENDBRANCH  14  15
ENDBRANCH  10  14
ENDBRANCH   2  11
ENDBRANCH   1   6
BRANCH   1  18
ATOM     18  C   UNL     1      -2.426  -8.527  -0.564  0.00  0.00    +0.197 C 
ATOM     19  O   UNL     1      -1.860  -7.633   0.029  0.00  0.00    -0.278 OA
ATOM     20  N   UNL     1      -2.404  -9.782  -0.072  0.00  0.00    -0.315 N 
ATOM     21  H   UNL     1      -2.856 -10.497  -0.546  0.00  0.00    +0.149 HD
BRANCH  20  22
ATOM     22  C   UNL     1      -1.697 -10.066   1.180  0.00  0.00    +0.126 C 
BRANCH  22  23
ATOM     23  C   UNL     1      -1.718 -11.572   1.447  0.00  0.00    +0.038 C 
ATOM     24  C   UNL     1      -1.098 -11.855   2.817  0.00  0.00    +0.024 C 
ATOM     25  C   UNL     1       0.347 -11.354   2.837  0.00  0.00    +0.002 C 
ATOM     26  C   UNL     1       1.152 -12.075   1.754  0.00  0.00    +0.000 C 
ATOM     27  C   UNL     1       0.532 -11.792   0.384  0.00  0.00    +0.002 C 
ATOM     28  C   UNL     1      -0.913 -12.293   0.364  0.00  0.00    +0.024 C 
BRANCH  23  29
ATOM     29  N   UNL     1      -3.106 -12.053   1.428  0.00  0.00    -0.291 NA
ATOM     30  C   UNL     1      -3.923 -11.342   2.422  0.00  0.00    +0.113 C 
ATOM     31  C   UNL     1      -5.371 -11.832   2.328  0.00  0.00    +0.175 C 
ATOM     32  O   UNL     1      -5.403 -13.249   2.514  0.00  0.00    -0.377 OA
ATOM     33  C   UNL     1      -4.618 -13.973   1.563  0.00  0.00    +0.175 C 
ATOM     34  C   UNL     1      -3.163 -13.506   1.650  0.00  0.00    +0.113 C 
ENDBRANCH  23  29
ENDBRANCH  22  23
ENDBRANCH  20  22
ENDBRANCH   1  18
TORSDOF 9
