REMARK  Name = ZINC35966637
REMARK  15 active torsions:
REMARK  status: ('A' for Active; 'I' for Inactive)
REMARK    1  A    between atoms: C_1  and  C_2
REMARK    2  A    between atoms: C_2  and  N_3
REMARK    3  A    between atoms: C_6  and  C_11
REMARK    4  A    between atoms: C_16  and  C_17
REMARK    5  A    between atoms: N_23  and  C_25
REMARK    6  A    between atoms: C_25  and  C_27
REMARK    7  A    between atoms: C_25  and  C_31
REMARK    8  A    between atoms: C_27  and  C_28
REMARK    9  A    between atoms: C_28  and  C_29
REMARK   10  A    between atoms: C_28  and  C_30
REMARK   11  A    between atoms: N_33  and  C_34
REMARK   12  A    between atoms: C_34  and  C_35
REMARK   13  A    between atoms: C_35  and  N_36
REMARK   14  A    between atoms: N_36  and  C_37
REMARK   15  A    between atoms: N_36  and  C_38
REMARK                            x       y       z     vdW  Elec       q    Type
REMARK                         _______ _______ _______ _____ _____    ______ ____
ROOT
ATOM      1  N   UNL     1      -1.582  -0.681   1.343  0.00  0.00    -0.257 N 
ATOM      2  C   UNL     1      -2.501  -1.158   2.233  0.00  0.00    +0.042 C 
ATOM      3  C   UNL     1      -3.714  -1.583   1.825  0.00  0.00    +0.058 C 
ATOM      4  C   UNL     1      -4.023  -1.512   0.343  0.00  0.00    +0.142 C 
ATOM      5  N   UNL     1      -2.966  -0.983  -0.534  0.00  0.00    -0.288 N 
ATOM      6  C   UNL     1      -1.803  -0.592   0.025  0.00  0.00    +0.307 C 
ATOM      7  O   UNL     1      -0.926  -0.149  -0.691  0.00  0.00    -0.252 OA
ATOM      8  C   UNL     1      -4.475  -2.025   2.926  0.00  0.00    +0.247 C 
ATOM      9  O   UNL     1      -5.609  -2.462   2.848  0.00  0.00    -0.270 OA
ATOM     10  N   UNL     1      -3.785  -1.902   4.074  0.00  0.00    -0.281 N 
ATOM     11  C   UNL     1      -2.470  -1.340   3.734  0.00  0.00    +0.160 C 
ATOM     12  H   UNL     1      -3.104  -0.913  -1.492  0.00  0.00    +0.151 HD
ENDROOT
BRANCH   4  13
ATOM     13  C   UNL     1      -5.248  -0.653   0.164  0.00  0.00    -0.011 A 
ATOM     14  C   UNL     1      -5.167   0.714   0.352  0.00  0.00    +0.006 A 
ATOM     15  C   UNL     1      -6.291   1.502   0.188  0.00  0.00    +0.000 A 
ATOM     16  C   UNL     1      -7.496   0.923  -0.165  0.00  0.00    +0.001 A 
ATOM     17  C   UNL     1      -7.577  -0.444  -0.354  0.00  0.00    +0.013 A 
ATOM     18  C   UNL     1      -6.452  -1.231  -0.194  0.00  0.00    +0.060 A 
BRANCH  18  19
ATOM     19  C   UNL     1      -6.539  -2.721  -0.405  0.00  0.00    +0.418 C 
ATOM     20  F   UNL     1      -7.861  -3.075  -0.693  0.00  0.00    -0.166 F 
ATOM     21  F   UNL     1      -5.715  -3.089  -1.474  0.00  0.00    -0.166 F 
ATOM     22  F   UNL     1      -6.121  -3.382   0.755  0.00  0.00    -0.166 F 
ENDBRANCH  18  19
ENDBRANCH   4  13
BRANCH   1  24
ATOM     23  C   UNL     1      -0.360   1.249   2.216  0.00  0.00    +0.025 C 
ATOM     24  C   UNL     1      -0.285  -0.236   1.859  0.00  0.00    +0.111 C 
ENDBRANCH   1  24
BRANCH  10  25
ATOM     25  C   UNL     1      -4.256  -2.261   5.414  0.00  0.00    +0.163 C 
BRANCH  25  26
ATOM     26  C   UNL     1      -4.591  -3.730   5.452  0.00  0.00    +0.234 C 
ATOM     27  O   UNL     1      -4.450  -4.410   4.458  0.00  0.00    -0.274 OA
ATOM     28  N   UNL     1      -5.048  -4.288   6.591  0.00  0.00    -0.316 N 
ATOM     29  H   UNL     1      -5.160  -3.744   7.386  0.00  0.00    +0.149 HD
BRANCH  28  30
ATOM     30  C   UNL     1      -5.373  -5.716   6.628  0.00  0.00    +0.085 C 
BRANCH  30  31
ATOM     31  C   UNL     1      -5.865  -6.090   8.027  0.00  0.00    -0.061 C 
BRANCH  31  32
ATOM     32  N   UNL     1      -6.192  -7.522   8.065  0.00  0.00    +0.377 N 
ATOM     33  C   UNL     1      -4.968  -8.309   7.859  0.00  0.00    -0.097 C 
ATOM     34  C   UNL     1      -6.777  -7.857   9.370  0.00  0.00    -0.097 C 
ATOM     35  H   UNL     1      -6.855  -7.735   7.334  0.00  0.00    -0.083 HD
ENDBRANCH  31  32
ENDBRANCH  30  31
ENDBRANCH  28  30
ENDBRANCH  25  26
BRANCH  25  36
ATOM     36  C   UNL     1      -5.505  -1.444   5.751  0.00  0.00    +0.035 C 
BRANCH  36  37
ATOM     37  C   UNL     1      -5.138   0.039   5.835  0.00  0.00    -0.015 C 
ATOM     38  C   UNL     1      -6.406   0.867   6.048  0.00  0.00    +0.007 C 
ATOM     39  C   UNL     1      -4.180   0.261   7.008  0.00  0.00    +0.007 C 
ENDBRANCH  36  37
ENDBRANCH  25  36
ENDBRANCH  10  25
TORSDOF 10
