REMARK  Name = ZINC34896776
REMARK  17 active torsions:
REMARK  status: ('A' for Active; 'I' for Inactive)
REMARK    1  A    between atoms: C_1  and  C_2
REMARK    2  A    between atoms: C_2  and  C_4
REMARK    3  A    between atoms: C_2  and  N_19
REMARK    4  A    between atoms: N_14  and  C_15
REMARK    5  A    between atoms: C_15  and  C_16
REMARK    6  A    between atoms: C_16  and  O_17
REMARK    7  A    between atoms: O_17  and  C_18
REMARK    8  A    between atoms: N_19  and  C_20
REMARK    9  A    between atoms: C_20  and  C_21
REMARK   10  A    between atoms: C_21  and  C_22
REMARK   11  A    between atoms: C_22  and  C_23
REMARK   12  A    between atoms: C_23  and  C_24
REMARK   13  A    between atoms: C_24  and  C_25
REMARK   14  A    between atoms: C_25  and  N_26
REMARK   15  A    between atoms: C_27  and  C_29
REMARK   16  A    between atoms: C_29  and  O_30
REMARK   17  A    between atoms: O_30  and  C_31
REMARK                            x       y       z     vdW  Elec       q    Type
REMARK                         _______ _______ _______ _____ _____    ______ ____
ROOT
ATOM      1  N   UNL     1      -0.971  -0.553   0.198  0.00  0.00    -0.289 N 
ATOM      2  C   UNL     1      -1.932  -0.225   1.084  0.00  0.00    +0.254 C 
ATOM      3  O   UNL     1      -2.971  -0.850   1.110  0.00  0.00    -0.272 OA
ENDROOT
BRANCH   1   5
ATOM      4  C   UNL     1       0.129   1.630   0.127  0.00  0.00    +0.036 C 
ATOM      5  C   UNL     1       0.331   0.118   0.248  0.00  0.00    +0.139 C 
BRANCH   5   6
ATOM      6  C   UNL     1       1.009  -0.195   1.556  0.00  0.00    +0.133 A 
ATOM      7  N   UNL     1       0.414  -1.005   2.380  0.00  0.00    -0.232 NA
ATOM      8  C   UNL     1       0.964  -1.333   3.575  0.00  0.00    +0.078 A 
ATOM      9  C   UNL     1       0.326  -2.204   4.461  0.00  0.00    +0.028 A 
ATOM     10  C   UNL     1       0.920  -2.510   5.664  0.00  0.00    +0.002 A 
ATOM     11  C   UNL     1       2.150  -1.963   6.010  0.00  0.00    +0.001 A 
ATOM     12  C   UNL     1       2.799  -1.102   5.153  0.00  0.00    +0.015 A 
ATOM     13  C   UNL     1       2.214  -0.779   3.930  0.00  0.00    +0.065 A 
ATOM     14  C   UNL     1       2.860   0.134   2.975  0.00  0.00    +0.262 A 
ATOM     15  O   UNL     1       3.938   0.645   3.219  0.00  0.00    -0.267 OA
ATOM     16  N   UNL     1       2.213   0.379   1.812  0.00  0.00    -0.292 N 
BRANCH  16  17
ATOM     17  C   UNL     1       2.814   1.276   0.822  0.00  0.00    +0.154 C 
BRANCH  17  18
ATOM     18  C   UNL     1       2.520   2.728   1.204  0.00  0.00    +0.181 C 
BRANCH  18  19
ATOM     19  O   UNL     1       3.203   3.049   2.417  0.00  0.00    -0.381 OA
ATOM     20  C   UNL     1       2.994   4.390   2.864  0.00  0.00    +0.194 C 
ENDBRANCH  18  19
ENDBRANCH  17  18
ENDBRANCH  16  17
ENDBRANCH   5   6
ENDBRANCH   1   5
BRANCH   1  21
ATOM     21  C   UNL     1      -1.227  -1.581  -0.814  0.00  0.00    +0.108 C 
BRANCH  21  22
ATOM     22  C   UNL     1      -0.828  -2.951  -0.262  0.00  0.00    +0.019 C 
BRANCH  22  23
ATOM     23  C   UNL     1      -1.095  -4.024  -1.319  0.00  0.00    +0.001 C 
BRANCH  23  24
ATOM     24  C   UNL     1      -0.696  -5.394  -0.767  0.00  0.00    -0.002 C 
BRANCH  24  25
ATOM     25  C   UNL     1      -0.964  -6.468  -1.824  0.00  0.00    -0.020 C 
BRANCH  25  26
ATOM     26  C   UNL     1      -0.565  -7.838  -1.272  0.00  0.00    -0.086 C 
BRANCH  26  27
ATOM     27  N   UNL     1      -0.821  -8.868  -2.287  0.00  0.00    +0.378 N 
ATOM     28  H   UNL     1      -1.803  -8.873  -2.521  0.00  0.00    -0.090 HD
ATOM     29  H   UNL     1      -0.280  -8.668  -3.114  0.00  0.00    -0.090 HD
ATOM     30  H   UNL     1      -0.558  -9.772  -1.923  0.00  0.00    -0.090 HD
ENDBRANCH  26  27
ENDBRANCH  25  26
ENDBRANCH  24  25
ENDBRANCH  23  24
ENDBRANCH  22  23
ENDBRANCH  21  22
ENDBRANCH   1  21
BRANCH   2  31
ATOM     31  C   UNL     1      -1.716   0.917   2.043  0.00  0.00    +0.324 C 
BRANCH  31  32
ATOM     32  O   UNL     1      -2.799   0.971   2.973  0.00  0.00    -0.483 OA
BRANCH  32  33
ATOM     33  C   UNL     1      -2.758   1.952   3.912  0.00  0.00    +0.121 A 
ATOM     34  C   UNL     1      -1.699   2.848   3.935  0.00  0.00    +0.047 A 
ATOM     35  C   UNL     1      -1.659   3.845   4.891  0.00  0.00    +0.023 A 
ATOM     36  C   UNL     1      -2.674   3.949   5.826  0.00  0.00    +0.041 A 
ATOM     37  C   UNL     1      -3.730   3.056   5.805  0.00  0.00    +0.023 A 
ATOM     38  C   UNL     1      -3.777   2.062   4.847  0.00  0.00    +0.047 A 
ATOM     39 CL   UNL     1      -2.621   5.202   7.026  0.00  0.00    -0.084 Cl
ENDBRANCH  32  33
ENDBRANCH  31  32
ENDBRANCH   2  31
TORSDOF 15
