REMARK  Name = ZINC09102648
REMARK  11 active torsions:
REMARK  status: ('A' for Active; 'I' for Inactive)
REMARK    1  A    between atoms: C_1  and  C_2
REMARK    2  A    between atoms: C_2  and  C_4
REMARK    3  A    between atoms: C_2  and  N_65
REMARK    4  A    between atoms: C_7  and  S_16
REMARK    5  A    between atoms: N_8  and  C_9
REMARK    6  A    between atoms: S_16  and  C_17
REMARK    7  A    between atoms: C_17  and  C_19
REMARK    8  A    between atoms: C_17  and  C_20
REMARK    9  A    between atoms: C_20  and  C_22
REMARK   10  A    between atoms: C_32  and  N_65
REMARK   11  A    between atoms: C_33  and  N_65
REMARK                            x       y       z     vdW  Elec       q    Type
REMARK                         _______ _______ _______ _____ _____    ______ ____
ROOT
ATOM      1  C   UNL     1      -0.933   2.030   8.533  0.00  0.00    +0.125 A 
ATOM      2  N   UNL     1       0.121   1.942   7.771  0.00  0.00    -0.135 NA
ATOM      3  N   UNL     1      -0.162   2.326   6.578  0.00  0.00    -0.122 NA
ATOM      4  C   UNL     1      -1.423   2.684   6.511  0.00  0.00    +0.197 A 
ATOM      5  N   UNL     1      -1.956   2.511   7.759  0.00  0.00    -0.275 N 
ENDROOT
BRANCH   5   6
ATOM      6  C   UNL     1      -3.274   2.770   8.162  0.00  0.00    +0.050 A 
ATOM      7  C   UNL     1      -3.533   3.763   9.098  0.00  0.00    +0.028 A 
ATOM      8  C   UNL     1      -4.832   4.019   9.489  0.00  0.00    +0.022 A 
ATOM      9  C   UNL     1      -5.875   3.280   8.958  0.00  0.00    +0.041 A 
ATOM     10  C   UNL     1      -5.619   2.287   8.029  0.00  0.00    +0.022 A 
ATOM     11  C   UNL     1      -4.321   2.030   7.630  0.00  0.00    +0.028 A 
ATOM     12 CL   UNL     1      -7.506   3.600   9.456  0.00  0.00    -0.084 Cl
ENDBRANCH   5   6
BRANCH   1  14
ATOM     13  C   UNL     1      -0.323   2.761  10.822  0.00  0.00    -0.005 C 
ATOM     14  C   UNL     1      -1.011   1.673   9.995  0.00  0.00    -0.003 C 
BRANCH  14  17
ATOM     15  C   UNL     1      -0.394   0.007  11.640  0.00  0.00    -0.096 C 
ATOM     16  C   UNL     1      -0.911  -0.664   9.372  0.00  0.00    -0.096 C 
ATOM     17  N   UNL     1      -0.310   0.390  10.215  0.00  0.00    +0.382 N 
ATOM     18  H   UNL     1       0.677   0.501   9.957  0.00  0.00    -0.082 HD
ENDBRANCH  14  17
ENDBRANCH   1  14
BRANCH   4  19
ATOM     19  S   UNL     1      -2.269   3.282   5.085  0.00  0.00    -0.075 S 
BRANCH  19  20
ATOM     20  C   UNL     1      -0.922   3.231   3.877  0.00  0.00    +0.118 C 
ATOM     21  C   UNL     1       0.165   4.228   4.282  0.00  0.00    +0.027 C 
BRANCH  20  22
ATOM     22  C   UNL     1      -1.455   3.595   2.515  0.00  0.00    +0.152 C 
ATOM     23  O   UNL     1      -2.447   4.277   2.417  0.00  0.00    -0.296 OA
BRANCH  22  24
ATOM     24  C   UNL     1      -0.750   3.109   1.275  0.00  0.00    +0.031 C 
ATOM     25  C   UNL     1      -0.729   1.579   1.267  0.00  0.00    +0.018 C 
ATOM     26  C   UNL     1      -0.013   1.086   0.008  0.00  0.00    -0.010 C 
ATOM     27  C   UNL     1      -0.753   1.593  -1.232  0.00  0.00    +0.007 C 
ATOM     28  C   UNL     1      -0.773   3.123  -1.223  0.00  0.00    -0.010 C 
ATOM     29  C   UNL     1      -1.490   3.616   0.036  0.00  0.00    +0.018 C 
ATOM     30  C   UNL     1       0.662   3.652  -1.234  0.00  0.00    +0.007 C 
ATOM     31  C   UNL     1       1.402   3.145   0.006  0.00  0.00    -0.010 C 
ATOM     32  C   UNL     1       1.423   1.615  -0.003  0.00  0.00    +0.007 C 
ATOM     33  C   UNL     1       0.686   3.639   1.264  0.00  0.00    +0.018 C 
ENDBRANCH  22  24
ENDBRANCH  20  22
ENDBRANCH  19  20
ENDBRANCH   4  19
TORSDOF 7
