REMARK  Name = ZINC06859999
REMARK  7 active torsions:
REMARK  status: ('A' for Active; 'I' for Inactive)
REMARK    1  A    between atoms: C_1  and  C_2
REMARK    2  A    between atoms: C_7  and  N_12
REMARK    3  A    between atoms: C_9  and  C_11
REMARK    4  A    between atoms: N_12  and  C_13
REMARK    5  A    between atoms: C_13  and  C_14
REMARK    6  A    between atoms: N_21  and  C_22
REMARK    7  A    between atoms: C_22  and  C_23
REMARK                            x       y       z     vdW  Elec       q    Type
REMARK                         _______ _______ _______ _____ _____    ______ ____
ROOT
ATOM      1  N   UNL     1       2.003   8.176  -2.872  0.00  0.00    -0.275 N 
ATOM      2  C   UNL     1       1.729   7.824  -1.600  0.00  0.00    +0.303 C 
ATOM      3  O   UNL     1       2.244   8.426  -0.678  0.00  0.00    -0.253 OA
ATOM      4  N   UNL     1       0.883   6.804  -1.351  0.00  0.00    -0.294 N 
ATOM      5  H   UNL     1       0.472   6.324  -2.087  0.00  0.00    +0.151 HD
ENDROOT
BRANCH   1  11
ATOM      6  C   UNL     1       3.470  11.916  -4.309  0.00  0.00    +0.008 C 
ATOM      7  C   UNL     1       3.334  11.724  -2.797  0.00  0.00    -0.009 C 
ATOM      8  C   UNL     1       4.705  11.408  -2.197  0.00  0.00    +0.003 C 
ATOM      9  C   UNL     1       5.253  10.125  -2.826  0.00  0.00    +0.002 C 
ATOM     10  C   UNL     1       4.293   8.968  -2.543  0.00  0.00    +0.023 C 
ATOM     11  C   UNL     1       2.922   9.284  -3.143  0.00  0.00    +0.081 C 
ATOM     12  C   UNL     1       2.374  10.567  -2.514  0.00  0.00    +0.009 C 
ATOM     13  C   UNL     1       1.003  10.883  -3.114  0.00  0.00    +0.009 C 
ENDBRANCH   1  11
BRANCH   1  14
ATOM     14  C   UNL     1       1.382   7.451  -3.983  0.00  0.00    +0.183 C 
BRANCH  14  15
ATOM     15  C   UNL     1       0.077   8.112  -4.348  0.00  0.00    +0.122 A 
ATOM     16  C   UNL     1      -0.079   9.102  -5.245  0.00  0.00    +0.046 A 
ATOM     17  C   UNL     1      -1.458   9.415  -5.273  0.00  0.00    +0.041 A 
ATOM     18  C   UNL     1      -2.060   8.603  -4.385  0.00  0.00    +0.195 A 
ATOM     19  O   UNL     1      -1.125   7.816  -3.827  0.00  0.00    -0.466 OA
ENDBRANCH  14  15
ENDBRANCH   1  14
BRANCH   4  20
ATOM     20  C   UNL     1       0.585   6.421   0.031  0.00  0.00    +0.165 C 
BRANCH  20  21
ATOM     21  C   UNL     1      -0.380   5.263   0.035  0.00  0.00    +0.108 A 
ATOM     22  C   UNL     1      -0.027   3.841   0.023  0.00  0.00    +0.046 A 
ATOM     23  C   UNL     1       1.184   3.146   0.008  0.00  0.00    +0.013 A 
ATOM     24  C   UNL     1       1.183   1.780   0.000  0.00  0.00    +0.001 A 
ATOM     25  C   UNL     1      -0.013   1.076   0.008  0.00  0.00    +0.004 A 
ATOM     26  C   UNL     1      -1.219   1.742   0.017  0.00  0.00    +0.049 A 
ATOM     27  C   UNL     1      -1.240   3.132   0.031  0.00  0.00    +0.168 A 
ATOM     28  O   UNL     1      -2.232   4.044   0.046  0.00  0.00    -0.354 OA
ATOM     29  N   UNL     1      -1.675   5.343   0.048  0.00  0.00    -0.080 NA
ENDBRANCH  20  21
ENDBRANCH   4  20
TORSDOF 5
