REMARK  Name = ZINC01429885
REMARK  5 active torsions:
REMARK  status: ('A' for Active; 'I' for Inactive)
REMARK    1  A    between atoms: C_3  and  O_29
REMARK    2  A    between atoms: C_6  and  C_7
REMARK    3  A    between atoms: C_9  and  C_27
REMARK    4  A    between atoms: C_10  and  N_26
REMARK    5  A    between atoms: N_11  and  C_19
REMARK                            x       y       z     vdW  Elec       q    Type
REMARK                         _______ _______ _______ _____ _____    ______ ____
ROOT
ATOM      1  C   UNL     1      -1.413  -0.813   0.336  0.00  0.00    +0.112 C 
ATOM      2  C   UNL     1      -2.040  -1.883   1.193  0.00  0.00    +0.078 C 
ATOM      3  C   UNL     1      -1.791  -3.200   0.980  0.00  0.00    +0.107 C 
ATOM      4  N   UNL     1      -0.966  -3.645  -0.024  0.00  0.00    -0.259 N 
ATOM      5  C   UNL     1      -0.605  -2.750  -1.055  0.00  0.00    +0.040 C 
ATOM      6  C   UNL     1      -0.806  -1.447  -0.880  0.00  0.00    +0.096 C 
ATOM      7  S   UNL     1      -0.209  -0.623  -2.334  0.00  0.00    -0.004 S 
ATOM      8  O   UNL     1      -1.362  -0.297  -3.098  0.00  0.00    -0.170 OA
ATOM      9  O   UNL     1       0.685   0.381  -1.874  0.00  0.00    -0.170 OA
ATOM     10  C   UNL     1       0.707  -2.034  -3.086  0.00  0.00    +0.177 C 
ATOM     11  C   UNL     1      -0.017  -3.202  -2.362  0.00  0.00    +0.076 C 
ENDROOT
BRANCH   4  12
ATOM     12  C   UNL     1      -0.492  -4.962  -0.026  0.00  0.00    +0.040 A 
ATOM     13  C   UNL     1       0.666  -5.285   0.670  0.00  0.00    +0.026 A 
ATOM     14  C   UNL     1       1.132  -6.585   0.668  0.00  0.00    +0.040 A 
ATOM     15  C   UNL     1       0.446  -7.566  -0.028  0.00  0.00    +0.124 A 
ATOM     16  C   UNL     1      -0.708  -7.247  -0.723  0.00  0.00    +0.040 A 
ATOM     17  C   UNL     1      -1.181  -5.949  -0.718  0.00  0.00    +0.026 A 
ATOM     18  F   UNL     1       0.904  -8.838  -0.029  0.00  0.00    -0.205 F 
ENDBRANCH   4  12
BRANCH   1  24
ATOM     19  C   UNL     1      -0.439   1.258   1.347  0.00  0.00    +0.008 A 
ATOM     20  C   UNL     1       0.542   1.912   2.067  0.00  0.00    +0.046 A 
ATOM     21  C   UNL     1       1.625   1.203   2.564  0.00  0.00    +0.117 A 
ATOM     22  C   UNL     1       1.721  -0.163   2.337  0.00  0.00    +0.046 A 
ATOM     23  C   UNL     1       0.737  -0.812   1.616  0.00  0.00    +0.008 A 
ATOM     24  C   UNL     1      -0.342  -0.102   1.121  0.00  0.00    -0.033 A 
BRANCH  21  25
ATOM     25  O   UNL     1       2.592   1.844   3.273  0.00  0.00    -0.507 OA
ATOM     26  H   UNL     1       2.426   1.874   4.225  0.00  0.00    +0.292 HD
ENDBRANCH  21  25
ENDBRANCH   1  24
BRANCH   3  27
ATOM     27  N   UNL     1      -2.388  -4.126   1.802  0.00  0.00    -0.345 N 
ATOM     28  H   UNL     1      -2.898  -3.832   2.573  0.00  0.00    +0.144 HD
ATOM     29  H   UNL     1      -2.300  -5.073   1.611  0.00  0.00    +0.144 HD
ENDBRANCH   3  27
BRANCH   2  30
ATOM     30  C   UNL     1      -2.918  -1.501   2.257  0.00  0.00    +0.099 C 
ATOM     31  N   UNL     1      -3.615  -1.198   3.102  0.00  0.00    -0.191 NA
ENDBRANCH   2  30
TORSDOF 5
