REMARK  Name = ZINC08763393
REMARK  10 active torsions:
REMARK  status: ('A' for Active; 'I' for Inactive)
REMARK    1  A    between atoms: C_1  and  C_2
REMARK    2  A    between atoms: C_3  and  C_33
REMARK    3  A    between atoms: C_5  and  N_25
REMARK    4  A    between atoms: C_6  and  C_7
REMARK    5  A    between atoms: C_7  and  C_9
REMARK    6  A    between atoms: C_7  and  N_19
REMARK    7  A    between atoms: C_12  and  O_15
REMARK    8  A    between atoms: O_15  and  C_16
REMARK    9  A    between atoms: N_19  and  C_20
REMARK   10  A    between atoms: C_26  and  C_28
REMARK                            x       y       z     vdW  Elec       q    Type
REMARK                         _______ _______ _______ _____ _____    ______ ____
ROOT
ATOM      1  C   UNL     1      -2.486  -0.479   0.163  0.00  0.00    +0.135 C 
ENDROOT
BRANCH   1   7
ATOM      2  C   UNL     1      -3.744  -2.679  -1.275  0.00  0.00    +0.045 C 
ATOM      3  C   UNL     1      -2.449  -2.084  -1.768  0.00  0.00    -0.033 A 
ATOM      4  C   UNL     1      -1.854  -2.566  -2.885  0.00  0.00    -0.008 A 
ATOM      5  S   UNL     1      -0.401  -1.536  -3.007  0.00  0.00    -0.078 S 
ATOM      6  C   UNL     1      -0.685  -0.526  -1.562  0.00  0.00    +0.078 A 
ATOM      7  C   UNL     1      -1.853  -1.041  -1.084  0.00  0.00    +0.009 A 
ATOM      8  C   UNL     1      -2.302  -3.683  -3.791  0.00  0.00    +0.052 C 
BRANCH   6   9
ATOM      9  N   UNL     1       0.089   0.518  -1.053  0.00  0.00    -0.273 N 
ATOM     10  C   UNL     1       1.191   0.925  -1.715  0.00  0.00    +0.284 C 
ATOM     11  O   UNL     1       1.462   0.443  -2.799  0.00  0.00    -0.266 OA
ATOM     12  H   UNL     1      -0.166   0.951  -0.223  0.00  0.00    +0.156 HD
BRANCH  10  13
ATOM     13  C   UNL     1       2.062   1.949  -1.129  0.00  0.00    +0.189 A 
ATOM     14  C   UNL     1       3.147   2.519  -1.730  0.00  0.00    +0.054 A 
ATOM     15  C   UNL     1       3.679   3.440  -0.814  0.00  0.00    +0.042 A 
ATOM     16  C   UNL     1       2.905   3.392   0.293  0.00  0.00    +0.196 A 
ATOM     17  O   UNL     1       1.928   2.497   0.097  0.00  0.00    -0.458 OA
ENDBRANCH  10  13
ENDBRANCH   6   9
ENDBRANCH   1   7
BRANCH   1  18
ATOM     18  C   UNL     1      -1.760  -1.003   1.375  0.00  0.00    -0.023 A 
ATOM     19  C   UNL     1      -0.652  -0.333   1.859  0.00  0.00    +0.009 A 
ATOM     20  C   UNL     1       0.012  -0.809   2.974  0.00  0.00    +0.046 A 
ATOM     21  C   UNL     1      -0.428  -1.967   3.599  0.00  0.00    +0.127 A 
ATOM     22  C   UNL     1      -1.536  -2.640   3.108  0.00  0.00    +0.046 A 
ATOM     23  C   UNL     1      -2.200  -2.157   1.997  0.00  0.00    +0.009 A 
BRANCH  21  24
ATOM     24  O   UNL     1       0.227  -2.440   4.692  0.00  0.00    -0.434 OA
BRANCH  24  25
ATOM     25  C   UNL     1       1.360  -1.696   5.143  0.00  0.00    +0.541 C 
ATOM     26  F   UNL     1       2.318  -1.642   4.124  0.00  0.00    -0.166 F 
ATOM     27  F   UNL     1       0.962  -0.397   5.477  0.00  0.00    -0.166 F 
ENDBRANCH  24  25
ENDBRANCH  21  24
ENDBRANCH   1  18
BRANCH   1  28
ATOM     28  N   UNL     1      -2.400   0.984   0.137  0.00  0.00    -0.320 N 
ATOM     29  H   UNL     1      -1.668   1.434   0.586  0.00  0.00    +0.148 HD
BRANCH  28  30
ATOM     30  C   UNL     1      -3.368   1.725  -0.531  0.00  0.00    +0.097 A 
ATOM     31  C   UNL     1      -4.341   1.072  -1.281  0.00  0.00    +0.041 A 
ATOM     32  C   UNL     1      -5.301   1.822  -1.935  0.00  0.00    +0.005 A 
ATOM     33  C   UNL     1      -5.253   3.205  -1.822  0.00  0.00    +0.018 A 
ATOM     34  C   UNL     1      -4.256   3.787  -1.065  0.00  0.00    +0.084 A 
ATOM     35  N   UNL     1      -3.296   3.082  -0.409  0.00  0.00    -0.350 N 
ATOM     36  H   UNL     1      -2.563   3.542   0.143  0.00  0.00    +0.166 HD
ENDBRANCH  28  30
ENDBRANCH   1  28
TORSDOF 8
