REMARK  Name = ZINC08644886
REMARK  8 active torsions:
REMARK  status: ('A' for Active; 'I' for Inactive)
REMARK    1  A    between atoms: C_1  and  C_2
REMARK    2  A    between atoms: C_2  and  C_4
REMARK    3  A    between atoms: C_2  and  S_16
REMARK    4  A    between atoms: N_6  and  C_7
REMARK    5  A    between atoms: C_10  and  N_13
REMARK    6  A    between atoms: S_16  and  C_17
REMARK    7  A    between atoms: C_20  and  C_23
REMARK    8  A    between atoms: N_21  and  N_22
REMARK                            x       y       z     vdW  Elec       q    Type
REMARK                         _______ _______ _______ _____ _____    ______ ____
ROOT
ATOM      1  S   UNL     1      -1.030   1.588   1.499  0.00  0.00    -0.072 S 
ENDROOT
BRANCH   1   2
ATOM      2  C   UNL     1      -0.201   0.667   2.752  0.00  0.00    +0.209 A 
ATOM      3  N   UNL     1       0.823  -0.139   2.579  0.00  0.00    -0.121 NA
ATOM      4  N   UNL     1       1.179  -0.647   3.704  0.00  0.00    -0.127 NA
ATOM      5  C   UNL     1       0.406  -0.197   4.664  0.00  0.00    +0.183 A 
ATOM      6  N   UNL     1      -0.499   0.663   4.085  0.00  0.00    -0.224 N 
BRANCH   5   7
ATOM      7  C   UNL     1       0.494  -0.545   6.098  0.00  0.00    +0.039 A 
ATOM      8  C   UNL     1      -0.659  -0.885   6.809  0.00  0.00    +0.014 A 
ATOM      9  C   UNL     1      -0.570  -1.214   8.146  0.00  0.00    +0.021 A 
ATOM     10  C   UNL     1       0.658  -1.195   8.786  0.00  0.00    +0.042 A 
ATOM     11  C   UNL     1       1.804  -0.854   8.089  0.00  0.00    +0.040 A 
ATOM     12  C   UNL     1       1.729  -0.528   6.750  0.00  0.00    +0.053 A 
ATOM     13 CL   UNL     1       3.167  -0.099   5.877  0.00  0.00    -0.083 Cl
ATOM     14 CL   UNL     1       0.760  -1.603  10.471  0.00  0.00    -0.083 Cl
ENDBRANCH   5   7
BRANCH   6  15
ATOM     15  N   UNL     1      -1.489   1.364   4.712  0.00  0.00    -0.295 N 
ATOM     16  H   UNL     1      -2.319   0.800   4.819  0.00  0.00    +0.163 HD
ATOM     17  H   UNL     1      -1.174   1.716   5.604  0.00  0.00    +0.163 HD
ENDBRANCH   6  15
ENDBRANCH   1   2
BRANCH   1  19
ATOM     18  C   UNL     1       1.367   1.583   0.188  0.00  0.00    +0.029 C 
ATOM     19  C   UNL     1      -0.072   1.080   0.050  0.00  0.00    +0.137 C 
BRANCH  19  20
ATOM     20  C   UNL     1      -0.692   1.666  -1.192  0.00  0.00    +0.230 C 
ATOM     21  O   UNL     1      -1.359   2.676  -1.119  0.00  0.00    -0.274 OA
ATOM     22  N   UNL     1      -0.505   1.067  -2.385  0.00  0.00    -0.285 N 
ATOM     23  H   UNL     1      -0.035   0.220  -2.434  0.00  0.00    +0.155 HD
BRANCH  22  24
ATOM     24  C   UNL     1      -0.989   1.667  -3.553  0.00  0.00    +0.034 A 
ATOM     25  C   UNL     1      -1.431   0.880  -4.608  0.00  0.00    +0.025 A 
ATOM     26  C   UNL     1      -1.913   1.475  -5.758  0.00  0.00    +0.034 A 
ATOM     27  C   UNL     1      -1.946   2.854  -5.862  0.00  0.00    +0.126 A 
ATOM     28  C   UNL     1      -1.503   3.640  -4.815  0.00  0.00    +0.034 A 
ATOM     29  C   UNL     1      -1.024   3.051  -3.661  0.00  0.00    +0.025 A 
BRANCH  27  30
ATOM     30  N   UNL     1      -2.459   3.488  -7.097  0.00  0.00    +0.056 N 
ATOM     31  O   UNL     1      -2.489   4.702  -7.191  0.00  0.00    -0.126 OA
ATOM     32  O   UNL     1      -2.850   2.797  -8.020  0.00  0.00    -0.126 OA
ENDBRANCH  27  30
ENDBRANCH  22  24
ENDBRANCH  19  20
ENDBRANCH   1  19
TORSDOF 7
