REMARK  Name = ZINC45870110
REMARK  13 active torsions:
REMARK  status: ('A' for Active; 'I' for Inactive)
REMARK    1  A    between atoms: C_1  and  C_2
REMARK    2  A    between atoms: C_5  and  C_8
REMARK    3  A    between atoms: C_8  and  N_9
REMARK    4  A    between atoms: N_12  and  C_13
REMARK    5  A    between atoms: C_13  and  C_15
REMARK    6  A    between atoms: C_13  and  C_19
REMARK    7  A    between atoms: C_15  and  C_16
REMARK    8  A    between atoms: C_16  and  C_17
REMARK    9  A    between atoms: C_16  and  C_18
REMARK   10  A    between atoms: N_21  and  N_22
REMARK   11  A    between atoms: C_23  and  C_25
REMARK   12  A    between atoms: C_27  and  C_31
REMARK   13  A    between atoms: C_29  and  C_30
REMARK                            x       y       z     vdW  Elec       q    Type
REMARK                         _______ _______ _______ _____ _____    ______ ____
ROOT
ATOM      1  C   UNL     1       3.099  -7.720   0.132  0.00  0.00    +0.162 C 
ENDROOT
BRANCH   1   5
ATOM      2  N   UNL     1       0.905  -4.772   0.110  0.00  0.00    -0.295 N 
ATOM      3  C   UNL     1       1.351  -6.033  -0.054  0.00  0.00    +0.300 C 
ATOM      4  O   UNL     1       0.591  -6.902  -0.434  0.00  0.00    -0.253 OA
ATOM      5  N   UNL     1       2.640  -6.331   0.204  0.00  0.00    -0.288 N 
ATOM      6  H   UNL     1       1.512  -4.079   0.414  0.00  0.00    +0.151 HD
ATOM      7  H   UNL     1       3.264  -5.625   0.437  0.00  0.00    +0.151 HD
BRANCH   2   8
ATOM      8  C   UNL     1      -0.496  -4.448  -0.170  0.00  0.00    +0.141 C 
BRANCH   8  13
ATOM      9  C   UNL     1      -1.415   1.169   0.828  0.00  0.00    +0.044 C 
ATOM     10  C   UNL     1      -1.175  -0.296   0.568  0.00  0.00    -0.050 A 
ATOM     11  C   UNL     1      -0.780  -0.719  -0.688  0.00  0.00    +0.003 A 
ATOM     12  C   UNL     1      -0.560  -2.063  -0.926  0.00  0.00    +0.005 A 
ATOM     13  C   UNL     1      -0.735  -2.983   0.091  0.00  0.00    -0.030 A 
ATOM     14  C   UNL     1      -1.129  -2.560   1.346  0.00  0.00    +0.005 A 
ATOM     15  C   UNL     1      -1.345  -1.215   1.586  0.00  0.00    +0.003 A 
ENDBRANCH   8  13
ENDBRANCH   2   8
ENDBRANCH   1   5
BRANCH   1  16
ATOM     16  C   UNL     1       4.256  -7.916   1.078  0.00  0.00    +0.249 C 
ATOM     17  O   UNL     1       4.880  -6.957   1.480  0.00  0.00    -0.272 OA
ATOM     18  N   UNL     1       4.597  -9.158   1.478  0.00  0.00    -0.233 N 
ATOM     19  H   UNL     1       4.145  -9.929   1.102  0.00  0.00    +0.173 HD
BRANCH  18  20
ATOM     20  N   UNL     1       5.605  -9.333   2.435  0.00  0.00    -0.230 N 
ATOM     21  C   UNL     1       5.946 -10.575   2.834  0.00  0.00    +0.263 C 
ATOM     22  O   UNL     1       5.379 -11.542   2.364  0.00  0.00    -0.269 OA
ATOM     23  H   UNL     1       6.057  -8.562   2.810  0.00  0.00    +0.173 HD
BRANCH  21  24
ATOM     24  C   UNL     1       7.006 -10.760   3.841  0.00  0.00    +0.079 A 
ATOM     25  C   UNL     1       7.785  -9.710   4.514  0.00  0.00    +0.057 A 
ATOM     26  C   UNL     1       8.627 -10.349   5.341  0.00  0.00    +0.103 A 
ATOM     27  O   UNL     1       8.431 -11.672   5.232  0.00  0.00    -0.464 OA
ATOM     28  C   UNL     1       7.465 -11.940   4.347  0.00  0.00    +0.114 A 
ATOM     29  C   UNL     1       6.970 -13.313   3.971  0.00  0.00    +0.087 C 
ATOM     30  C   UNL     1       9.632  -9.686   6.247  0.00  0.00    +0.086 C 
ENDBRANCH  21  24
ENDBRANCH  18  20
ENDBRANCH   1  16
BRANCH   1  31
ATOM     31  C   UNL     1       3.549  -8.036  -1.296  0.00  0.00    +0.035 C 
BRANCH  31  32
ATOM     32  C   UNL     1       3.904  -9.520  -1.402  0.00  0.00    -0.015 C 
ATOM     33  C   UNL     1       2.639 -10.361  -1.222  0.00  0.00    +0.007 C 
ATOM     34  C   UNL     1       4.512  -9.802  -2.778  0.00  0.00    +0.007 C 
ENDBRANCH  31  32
ENDBRANCH   1  31
TORSDOF 8
