REMARK  Name = ZINC02474909
REMARK  5 active torsions:
REMARK  status: ('A' for Active; 'I' for Inactive)
REMARK    1  A    between atoms: C_1  and  O_2
REMARK    2  A    between atoms: O_2  and  C_3
REMARK    3  A    between atoms: C_6  and  N_13
REMARK    4  A    between atoms: C_14  and  C_16
REMARK    5  A    between atoms: C_20  and  N_25
REMARK                            x       y       z     vdW  Elec       q    Type
REMARK                         _______ _______ _______ _____ _____    ______ ____
ROOT
ATOM      1  N   UNL     1      -2.396  -0.460   0.022  0.00  0.00    -0.281 N 
ATOM      2  C   UNL     1      -1.238  -0.813  -0.571  0.00  0.00    +0.255 C 
ATOM      3  O   UNL     1      -1.137  -1.900  -1.109  0.00  0.00    -0.269 OA
ATOM      4  H   UNL     1      -2.456   0.378   0.507  0.00  0.00    +0.155 HD
ENDROOT
BRANCH   1   8
ATOM      5  C   UNL     1      -5.722  -3.013  -0.229  0.00  0.00    +0.128 A 
ATOM      6  C   UNL     1      -4.445  -3.517  -0.148  0.00  0.00    +0.048 A 
ATOM      7  C   UNL     1      -3.346  -2.668  -0.065  0.00  0.00    +0.027 A 
ATOM      8  C   UNL     1      -3.509  -1.300  -0.062  0.00  0.00    +0.042 A 
ATOM      9  C   UNL     1      -4.807  -0.752  -0.139  0.00  0.00    +0.007 A 
ATOM     10  C   UNL     1      -5.924  -1.618  -0.229  0.00  0.00    +0.026 A 
ATOM     11  C   UNL     1      -7.215  -1.070  -0.312  0.00  0.00    +0.012 A 
ATOM     12  C   UNL     1      -7.375   0.282  -0.309  0.00  0.00    +0.001 A 
ATOM     13  C   UNL     1      -6.275   1.133  -0.226  0.00  0.00    +0.001 A 
ATOM     14  C   UNL     1      -5.010   0.637  -0.145  0.00  0.00    +0.010 A 
BRANCH   5  16
ATOM     15  C   UNL     1      -6.504  -5.257  -0.303  0.00  0.00    +0.277 C 
ATOM     16  O   UNL     1      -6.785  -3.856  -0.309  0.00  0.00    -0.495 OA
ENDBRANCH   5  16
ENDBRANCH   1   8
BRANCH   2  17
ATOM     17  C   UNL     1      -0.098   0.114  -0.568  0.00  0.00    +0.075 A 
ATOM     18  C   UNL     1       1.138  -0.061  -1.109  0.00  0.00    +0.029 A 
ATOM     19  C   UNL     1       2.102   0.957  -0.999  0.00  0.00    -0.008 A 
ATOM     20  C   UNL     1       3.433   0.963  -1.492  0.00  0.00    +0.041 A 
ATOM     21  C   UNL     1       4.240   2.037  -1.297  0.00  0.00    +0.127 A 
ATOM     22  C   UNL     1       3.801   3.165  -0.614  0.00  0.00    +0.034 A 
ATOM     23  C   UNL     1       2.514   3.201  -0.118  0.00  0.00    +0.018 A 
ATOM     24  C   UNL     1       1.682   2.118  -0.307  0.00  0.00    +0.020 A 
ATOM     25  S   UNL     1       0.006   1.746   0.145  0.00  0.00    -0.084 S 
BRANCH  21  26
ATOM     26  N   UNL     1       5.622   2.006  -1.826  0.00  0.00    +0.056 N 
ATOM     27  O   UNL     1       6.359   2.962  -1.661  0.00  0.00    -0.126 OA
ATOM     28  O   UNL     1       6.022   1.025  -2.427  0.00  0.00    -0.126 OA
ENDBRANCH  21  26
ENDBRANCH   2  17
TORSDOF 4
