REMARK  Name = ZINC09468244
REMARK  11 active torsions:
REMARK  status: ('A' for Active; 'I' for Inactive)
REMARK    1  A    between atoms: C_1  and  C_2
REMARK    2  A    between atoms: C_5  and  S_8
REMARK    3  A    between atoms: S_8  and  N_11
REMARK    4  A    between atoms: N_11  and  C_12
REMARK    5  A    between atoms: N_11  and  C_13
REMARK    6  A    between atoms: C_16  and  C_19
REMARK    7  A    between atoms: N_21  and  C_22
REMARK    8  A    between atoms: C_22  and  C_23
REMARK    9  A    between atoms: C_23  and  C_24
REMARK   10  A    between atoms: C_23  and  C_25
REMARK   11  A    between atoms: C_23  and  N_62
REMARK                            x       y       z     vdW  Elec       q    Type
REMARK                         _______ _______ _______ _____ _____    ______ ____
ROOT
ATOM      1  C   UNL     1       1.054  -0.278  -0.994  0.00  0.00    +0.051 A 
ATOM      2  C   UNL     1      -0.131   0.421  -0.782  0.00  0.00    +0.025 A 
ATOM      3  C   UNL     1      -0.096   1.770  -0.511  0.00  0.00    +0.015 A 
ATOM      4  C   UNL     1       1.130   2.438  -0.450  0.00  0.00    +0.037 A 
ATOM      5  C   UNL     1       2.318   1.733  -0.663  0.00  0.00    +0.015 A 
ATOM      6  C   UNL     1       2.277   0.385  -0.933  0.00  0.00    +0.025 A 
ENDROOT
BRANCH   4   7
ATOM      7  C   UNL     1       1.170   3.884  -0.160  0.00  0.00    +0.244 C 
ATOM      8  O   UNL     1       0.136   4.496   0.025  0.00  0.00    -0.270 OA
ATOM      9  N   UNL     1       2.353   4.527  -0.101  0.00  0.00    -0.313 N 
ATOM     10  H   UNL     1       3.179   4.039  -0.249  0.00  0.00    +0.149 HD
BRANCH   9  11
ATOM     11  C   UNL     1       2.393   5.963   0.186  0.00  0.00    +0.092 C 
BRANCH  11  12
ATOM     12  C   UNL     1       3.849   6.416   0.318  0.00  0.00    -0.055 C 
ATOM     13  C   UNL     1       4.566   6.224  -1.020  0.00  0.00    -0.008 C 
ATOM     14  C   UNL     1       3.889   7.895   0.709  0.00  0.00    -0.008 C 
BRANCH  12  20
ATOM     15  C   UNL     1       3.756   5.636   2.608  0.00  0.00    -0.049 C 
ATOM     16  C   UNL     1       4.457   4.745   3.638  0.00  0.00    +0.141 C 
ATOM     17  O   UNL     1       5.803   5.197   3.814  0.00  0.00    -0.383 OA
ATOM     18  C   UNL     1       6.574   5.192   2.611  0.00  0.00    +0.141 C 
ATOM     19  C   UNL     1       5.895   6.087   1.571  0.00  0.00    -0.049 C 
ATOM     20  N   UNL     1       4.521   5.591   1.345  0.00  0.00    +0.387 N 
ATOM     21  H   UNL     1       4.566   4.620   1.015  0.00  0.00    -0.081 HD
ENDBRANCH  12  20
ENDBRANCH  11  12
ENDBRANCH   9  11
ENDBRANCH   4   7
BRANCH   1  22
ATOM     22  N   UNL     1       1.016  -1.641  -1.268  0.00  0.00    -0.206 N 
ATOM     23  C   UNL     1      -0.113  -2.450  -0.803  0.00  0.00    +0.157 C 
BRANCH  22  24
ATOM     24  S   UNL     1       2.248  -2.349  -2.119  0.00  0.00    +0.074 S 
ATOM     25  O   UNL     1       1.676  -3.440  -2.828  0.00  0.00    -0.150 OA
ATOM     26  O   UNL     1       2.946  -1.298  -2.773  0.00  0.00    -0.150 OA
BRANCH  24  31
ATOM     27  C   UNL     1       6.069  -4.719   1.904  0.00  0.00    +0.044 C 
ATOM     28  C   UNL     1       5.114  -4.127   0.899  0.00  0.00    -0.050 A 
ATOM     29  C   UNL     1       4.098  -4.901   0.372  0.00  0.00    +0.005 A 
ATOM     30  C   UNL     1       3.223  -4.358  -0.550  0.00  0.00    +0.029 A 
ATOM     31  C   UNL     1       3.363  -3.041  -0.944  0.00  0.00    +0.109 A 
ATOM     32  C   UNL     1       4.383  -2.268  -0.420  0.00  0.00    +0.029 A 
ATOM     33  C   UNL     1       5.255  -2.809   0.505  0.00  0.00    +0.005 A 
ENDBRANCH  24  31
ENDBRANCH  22  24
ENDBRANCH   1  22
TORSDOF 7
