REMARK  Name = ZINC02296201
REMARK  11 active torsions:
REMARK  status: ('A' for Active; 'I' for Inactive)
REMARK    1  A    between atoms: C_1  and  C_2
REMARK    2  A    between atoms: C_2  and  C_37
REMARK    3  A    between atoms: C_7  and  C_36
REMARK    4  A    between atoms: N_10  and  C_11
REMARK    5  A    between atoms: C_11  and  N_12
REMARK    6  A    between atoms: N_20  and  N_21
REMARK    7  A    between atoms: C_22  and  C_24
REMARK    8  A    between atoms: C_27  and  O_32
REMARK    9  A    between atoms: C_28  and  O_30
REMARK   10  A    between atoms: O_30  and  C_31
REMARK   11  A    between atoms: O_32  and  C_33
REMARK                            x       y       z     vdW  Elec       q    Type
REMARK                         _______ _______ _______ _____ _____    ______ ____
ROOT
ATOM      1  N   UNL     1       3.981   1.675  -2.100  0.00  0.00    -0.282 N 
ATOM      2  C   UNL     1       4.402   2.502  -1.065  0.00  0.00    +0.044 A 
ATOM      3  C   UNL     1       3.800   2.858   0.137  0.00  0.00    +0.024 A 
ATOM      4  C   UNL     1       4.443   3.715   1.007  0.00  0.00    +0.002 A 
ATOM      5  C   UNL     1       5.691   4.229   0.697  0.00  0.00    +0.001 A 
ATOM      6  C   UNL     1       6.304   3.887  -0.492  0.00  0.00    +0.012 A 
ATOM      7  C   UNL     1       5.665   3.025  -1.375  0.00  0.00    +0.028 A 
ATOM      8  C   UNL     1       6.034   2.470  -2.698  0.00  0.00    +0.153 C 
ATOM      9  N   UNL     1       7.134   2.690  -3.377  0.00  0.00    -0.174 NA
ATOM     10  C   UNL     1       4.896   1.612  -3.083  0.00  0.00    +0.270 C 
ATOM     11  O   UNL     1       4.801   0.965  -4.109  0.00  0.00    -0.268 OA
ENDROOT
BRANCH   9  12
ATOM     12  N   UNL     1       7.321   2.079  -4.624  0.00  0.00    -0.202 N 
ATOM     13  C   UNL     1       8.452   2.304  -5.322  0.00  0.00    +0.263 C 
ATOM     14  O   UNL     1       9.309   3.038  -4.870  0.00  0.00    -0.268 OA
ATOM     15  H   UNL     1       6.637   1.493  -4.985  0.00  0.00    +0.178 HD
BRANCH  13  16
ATOM     16  C   UNL     1       8.649   1.661  -6.635  0.00  0.00    +0.042 A 
ATOM     17  C   UNL     1       7.662   0.822  -7.159  0.00  0.00    +0.017 A 
ATOM     18  C   UNL     1       7.847   0.222  -8.385  0.00  0.00    +0.050 A 
ATOM     19  C   UNL     1       9.014   0.448  -9.102  0.00  0.00    +0.162 A 
ATOM     20  C   UNL     1      10.003   1.284  -8.586  0.00  0.00    +0.162 A 
ATOM     21  C   UNL     1       9.821   1.894  -7.360  0.00  0.00    +0.062 A 
BRANCH  20  22
ATOM     22  O   UNL     1      11.145   1.504  -9.291  0.00  0.00    -0.491 OA
ATOM     23  C   UNL     1      12.115   2.371  -8.701  0.00  0.00    +0.277 C 
ENDBRANCH  20  22
BRANCH  19  24
ATOM     24  O   UNL     1       9.193  -0.146 -10.310  0.00  0.00    -0.491 OA
ATOM     25  C   UNL     1       8.140  -0.991 -10.779  0.00  0.00    +0.277 C 
ENDBRANCH  19  24
ENDBRANCH  13  16
ENDBRANCH   9  12
BRANCH   1  26
ATOM     26  C   UNL     1       2.704   0.957  -2.115  0.00  0.00    +0.039 C 
BRANCH  26  35
ATOM     27  C   UNL     1       0.490   0.971   0.599  0.00  0.00    +0.011 C 
ATOM     28  C   UNL     1       0.438  -0.520   0.206  0.00  0.00    -0.036 C 
ATOM     29  C   UNL     1       0.490  -0.634  -1.301  0.00  0.00    -0.009 C 
ATOM     30  C   UNL     1       1.722  -1.281  -1.904  0.00  0.00    -0.065 C 
ATOM     31  C   UNL     1       2.069  -2.522  -1.032  0.00  0.00    -0.011 C 
ATOM     32  C   UNL     1       2.656  -1.801   0.211  0.00  0.00    -0.048 C 
ATOM     33  C   UNL     1       1.470  -1.273   1.018  0.00  0.00    +0.011 C 
ATOM     34  C   UNL     1       3.408  -0.588  -0.385  0.00  0.00    -0.070 C 
ATOM     35  N   UNL     1       2.928  -0.442  -1.772  0.00  0.00    +0.393 N 
ATOM     36  C   UNL     1       3.578  -2.711   1.036  0.00  0.00    +0.009 C 
ATOM     37  C   UNL     1      -0.956  -1.030   0.655  0.00  0.00    +0.011 C 
ATOM     38  H   UNL     1       3.649  -0.817  -2.393  0.00  0.00    -0.079 HD
ENDBRANCH  26  35
ENDBRANCH   1  26
TORSDOF 6
