REMARK  Name = ZINC01419948
REMARK  9 active torsions:
REMARK  status: ('A' for Active; 'I' for Inactive)
REMARK    1  A    between atoms: C_1  and  C_2
REMARK    2  A    between atoms: C_7  and  C_8
REMARK    3  A    between atoms: C_8  and  N_9
REMARK    4  A    between atoms: N_9  and  C_10
REMARK    5  A    between atoms: C_10  and  C_12
REMARK    6  A    between atoms: C_10  and  C_18
REMARK    7  A    between atoms: N_20  and  C_21
REMARK    8  A    between atoms: C_30  and  C_32
REMARK    9  A    between atoms: C_32  and  C_33
REMARK                            x       y       z     vdW  Elec       q    Type
REMARK                         _______ _______ _______ _____ _____    ______ ____
ROOT
ATOM      1  C   UNL     1      -1.635  -0.374   3.973  0.00  0.00    +0.193 C 
ENDROOT
BRANCH   1   2
ATOM      2  C   UNL     1      -1.799   0.502   5.188  0.00  0.00    -0.018 A 
ATOM      3  C   UNL     1      -2.234   1.807   5.045  0.00  0.00    +0.006 A 
ATOM      4  C   UNL     1      -2.385   2.611   6.159  0.00  0.00    +0.000 A 
ATOM      5  C   UNL     1      -2.101   2.111   7.416  0.00  0.00    +0.000 A 
ATOM      6  C   UNL     1      -1.667   0.806   7.559  0.00  0.00    +0.000 A 
ATOM      7  C   UNL     1      -1.520   0.001   6.445  0.00  0.00    +0.006 A 
ENDBRANCH   1   2
BRANCH   1   8
ATOM      8  C   UNL     1      -2.816  -1.303   3.860  0.00  0.00    +0.242 C 
ATOM      9  O   UNL     1      -3.523  -1.269   2.874  0.00  0.00    -0.273 OA
ATOM     10  N   UNL     1      -3.088  -2.171   4.854  0.00  0.00    -0.284 N 
ATOM     11  H   UNL     1      -2.562  -2.156   5.669  0.00  0.00    +0.155 HD
BRANCH  10  12
ATOM     12  C   UNL     1      -4.130  -3.097   4.710  0.00  0.00    +0.037 A 
ATOM     13  C   UNL     1      -4.861  -3.498   5.820  0.00  0.00    +0.027 A 
ATOM     14  C   UNL     1      -5.889  -4.410   5.680  0.00  0.00    +0.051 A 
ATOM     15  C   UNL     1      -6.193  -4.928   4.431  0.00  0.00    +0.166 A 
ATOM     16  C   UNL     1      -5.462  -4.528   3.316  0.00  0.00    +0.168 A 
ATOM     17  C   UNL     1      -4.435  -3.609   3.457  0.00  0.00    +0.072 A 
ATOM     18  O   UNL     1      -5.951  -5.176   2.218  0.00  0.00    -0.453 OA
ATOM     19  C   UNL     1      -6.717  -6.280   2.733  0.00  0.00    +0.466 C 
ATOM     20  O   UNL     1      -7.141  -5.827   4.032  0.00  0.00    -0.453 OA
ENDBRANCH  10  12
ENDBRANCH   1   8
BRANCH   1  21
ATOM     21  N   UNL     1      -1.555   0.463   2.773  0.00  0.00    -0.281 N 
ATOM     22  C   UNL     1      -2.662   1.072   2.302  0.00  0.00    +0.221 C 
ATOM     23  O   UNL     1      -3.709   0.978   2.906  0.00  0.00    -0.275 OA
BRANCH  21  24
ATOM     24  C   UNL     1      -0.274   0.638   2.086  0.00  0.00    +0.144 C 
BRANCH  24  31
ATOM     25  C   UNL     1      -1.371  -1.255   0.199  0.00  0.00    +0.044 C 
ATOM     26  C   UNL     1      -0.141  -1.610   0.995  0.00  0.00    -0.046 A 
ATOM     27  C   UNL     1       0.465  -2.840   0.818  0.00  0.00    +0.003 A 
ATOM     28  C   UNL     1       1.592  -3.166   1.548  0.00  0.00    +0.000 A 
ATOM     29  C   UNL     1       2.114  -2.263   2.455  0.00  0.00    +0.000 A 
ATOM     30  C   UNL     1       1.509  -1.032   2.631  0.00  0.00    +0.005 A 
ATOM     31  C   UNL     1       0.383  -0.705   1.898  0.00  0.00    -0.027 A 
ENDBRANCH  24  31
ENDBRANCH  21  24
BRANCH  22  32
ATOM     32  C   UNL     1      -2.597   1.870   1.025  0.00  0.00    +0.131 C 
BRANCH  32  33
ATOM     33  C   UNL     1      -3.925   2.538   0.782  0.00  0.00    -0.039 A 
ATOM     34  C   UNL     1      -4.906   1.884   0.059  0.00  0.00    +0.004 A 
ATOM     35  C   UNL     1      -6.125   2.497  -0.164  0.00  0.00    +0.000 A 
ATOM     36  C   UNL     1      -6.363   3.763   0.337  0.00  0.00    +0.000 A 
ATOM     37  C   UNL     1      -5.383   4.416   1.061  0.00  0.00    +0.000 A 
ATOM     38  C   UNL     1      -4.166   3.802   1.287  0.00  0.00    +0.004 A 
ENDBRANCH  32  33
ENDBRANCH  22  32
ENDBRANCH   1  21
TORSDOF 8
