REMARK  Name = ZINC38712878
REMARK  12 active torsions:
REMARK  status: ('A' for Active; 'I' for Inactive)
REMARK    1  A    between atoms: C_1  and  C_2
REMARK    2  A    between atoms: C_2  and  N_3
REMARK    3  A    between atoms: N_3  and  C_4
REMARK    4  A    between atoms: N_3  and  C_6
REMARK    5  A    between atoms: C_4  and  C_5
REMARK    6  A    between atoms: C_6  and  C_7
REMARK    7  A    between atoms: C_7  and  N_8
REMARK    8  A    between atoms: C_9  and  C_28
REMARK    9  A    between atoms: C_31  and  C_34
REMARK   10  A    between atoms: C_34  and  C_35
REMARK   11  A    between atoms: C_34  and  C_36
REMARK   12  A    between atoms: C_34  and  C_37
REMARK                            x       y       z     vdW  Elec       q    Type
REMARK                         _______ _______ _______ _____ _____    ______ ____
ROOT
ATOM      1  N   UNL     1      -1.382  -3.582  -1.821  0.00  0.00    -0.285 N 
ATOM      2  C   UNL     1      -1.457  -4.253  -3.130  0.00  0.00    +0.144 C 
ATOM      3  C   UNL     1      -1.703  -5.695  -2.834  0.00  0.00    +0.072 A 
ATOM      4  C   UNL     1      -1.881  -6.849  -3.720  0.00  0.00    +0.199 A 
ATOM      5  O   UNL     1      -1.669  -6.807  -4.920  0.00  0.00    -0.287 OA
ATOM      6  C   UNL     1      -2.342  -8.072  -3.019  0.00  0.00    +0.065 A 
ATOM      7  C   UNL     1      -2.754  -9.194  -3.761  0.00  0.00    +0.016 A 
ATOM      8  C   UNL     1      -3.185 -10.316  -3.137  0.00  0.00    +0.009 A 
ATOM      9  C   UNL     1      -3.225 -10.372  -1.728  0.00  0.00    -0.014 A 
ATOM     10  C   UNL     1      -3.675 -11.527  -1.067  0.00  0.00    +0.008 A 
ATOM     11  C   UNL     1      -3.702 -11.558   0.295  0.00  0.00    +0.001 A 
ATOM     12  C   UNL     1      -3.291 -10.460   1.045  0.00  0.00    +0.001 A 
ATOM     13  C   UNL     1      -2.850  -9.323   0.436  0.00  0.00    +0.012 A 
ATOM     14  C   UNL     1      -2.810  -9.257  -0.964  0.00  0.00    +0.025 A 
ATOM     15  C   UNL     1      -2.360  -8.085  -1.622  0.00  0.00    +0.147 A 
ATOM     16  O   UNL     1      -1.963  -7.030  -0.882  0.00  0.00    -0.449 OA
ATOM     17  C   UNL     1      -1.758  -5.838  -1.476  0.00  0.00    +0.199 A 
ATOM     18  C   UNL     1      -1.553  -4.515  -0.863  0.00  0.00    +0.283 C 
ATOM     19  O   UNL     1      -1.543  -4.295   0.332  0.00  0.00    -0.267 OA
ENDROOT
BRANCH   2  20
ATOM     20  C   UNL     1      -0.157  -4.088  -3.874  0.00  0.00    -0.022 A 
ATOM     21  C   UNL     1       1.044  -4.184  -3.196  0.00  0.00    +0.006 A 
ATOM     22  C   UNL     1       2.237  -4.033  -3.879  0.00  0.00    +0.004 A 
ATOM     23  C   UNL     1       2.228  -3.785  -5.239  0.00  0.00    -0.042 A 
ATOM     24  C   UNL     1       1.027  -3.689  -5.917  0.00  0.00    +0.004 A 
ATOM     25  C   UNL     1      -0.165  -3.845  -5.235  0.00  0.00    +0.006 A 
BRANCH  23  26
ATOM     26  C   UNL     1       3.528  -3.619  -5.983  0.00  0.00    -0.013 C 
ATOM     27  C   UNL     1       4.362  -4.895  -5.845  0.00  0.00    +0.015 C 
ATOM     28  C   UNL     1       3.240  -3.357  -7.462  0.00  0.00    +0.015 C 
ATOM     29  C   UNL     1       4.304  -2.438  -5.397  0.00  0.00    +0.015 C 
ENDBRANCH  23  26
ENDBRANCH   2  20
BRANCH   1  30
ATOM     30  C   UNL     1      -1.154  -2.152  -1.599  0.00  0.00    +0.090 C 
BRANCH  30  31
ATOM     31  C   UNL     1       0.348  -1.885  -1.492  0.00  0.00    -0.060 C 
BRANCH  31  32
ATOM     32  N   UNL     1       0.576  -0.451  -1.269  0.00  0.00    +0.380 N 
ATOM     33  H   UNL     1       0.125   0.079  -2.000  0.00  0.00    -0.082 HD
BRANCH  32  35
ATOM     34  C   UNL     1       0.129   1.454   0.204  0.00  0.00    -0.017 C 
ATOM     35  C   UNL     1       0.018  -0.063   0.033  0.00  0.00    -0.082 C 
ENDBRANCH  32  35
BRANCH  32  36
ATOM     36  C   UNL     1       2.019  -0.176  -1.285  0.00  0.00    -0.082 C 
ATOM     37  C   UNL     1       2.573  -0.440  -2.687  0.00  0.00    -0.017 C 
ENDBRANCH  32  36
ENDBRANCH  31  32
ENDBRANCH  30  31
ENDBRANCH   1  30
TORSDOF 7
