REMARK  Name = ZINC39504011
REMARK  5 active torsions:
REMARK  status: ('A' for Active; 'I' for Inactive)
REMARK    1  A    between atoms: C_1  and  O_2
REMARK    2  A    between atoms: O_2  and  N_3
REMARK    3  A    between atoms: C_5  and  O_21
REMARK    4  A    between atoms: C_11  and  C_14
REMARK    5  A    between atoms: C_19  and  O_20
REMARK                            x       y       z     vdW  Elec       q    Type
REMARK                         _______ _______ _______ _____ _____    ______ ____
ROOT
ATOM      1  N   UNL     1       0.667  -0.584  -1.165  0.00  0.00    -0.180 NA
ATOM      2  C   UNL     1       1.829  -1.407  -0.759  0.00  0.00    +0.146 C 
ATOM      3  C   UNL     1       1.876  -2.561  -1.792  0.00  0.00    +0.133 C 
ATOM      4  C   UNL     1       0.366  -2.835  -2.028  0.00  0.00    +0.057 C 
ATOM      5  C   UNL     1      -0.256  -1.433  -1.929  0.00  0.00    +0.050 C 
ATOM      6  C   UNL     1      -1.626  -1.504  -1.244  0.00  0.00    +0.025 C 
ATOM      7  C   UNL     1      -2.652  -0.966  -2.264  0.00  0.00    +0.010 C 
ATOM      8  C   UNL     1      -1.814  -0.071  -3.212  0.00  0.00    +0.024 C 
ATOM      9  C   UNL     1      -0.482  -0.855  -3.336  0.00  0.00    +0.033 C 
ENDROOT
BRANCH   8  10
ATOM     10  C   UNL     1      -2.486   0.062  -4.553  0.00  0.00    -0.003 A 
ATOM     11  C   UNL     1      -2.765  -1.065  -5.303  0.00  0.00    +0.007 A 
ATOM     12  C   UNL     1      -3.381  -0.942  -6.534  0.00  0.00    +0.001 A 
ATOM     13  C   UNL     1      -3.721   0.307  -7.019  0.00  0.00    +0.004 A 
ATOM     14  C   UNL     1      -3.446   1.437  -6.273  0.00  0.00    +0.046 A 
ATOM     15  C   UNL     1      -2.832   1.317  -5.035  0.00  0.00    +0.120 A 
BRANCH  15  16
ATOM     16  O   UNL     1      -2.565   2.426  -4.297  0.00  0.00    -0.506 OA
ATOM     17  H   UNL     1      -1.697   2.816  -4.472  0.00  0.00    +0.292 HD
ENDBRANCH  15  16
ENDBRANCH   8  10
BRANCH   1  19
ATOM     18  C   UNL     1      -0.017   1.425   0.010  0.00  0.00    +0.221 C 
ATOM     19  O   UNL     1       0.002  -0.004   0.002  0.00  0.00    -0.300 OA
ENDBRANCH   1  19
BRANCH   3  20
ATOM     20  O   UNL     1       2.526  -3.710  -1.245  0.00  0.00    -0.390 OA
ATOM     21  H   UNL     1       3.447  -3.558  -0.992  0.00  0.00    +0.210 HD
ENDBRANCH   3  20
TORSDOF 4
