REMARK  Name = ZINC64343566
REMARK  9 active torsions:
REMARK  status: ('A' for Active; 'I' for Inactive)
REMARK    1  A    between atoms: C_1  and  C_2
REMARK    2  A    between atoms: C_5  and  C_8
REMARK    3  A    between atoms: C_8  and  N_9
REMARK    4  A    between atoms: C_10  and  C_12
REMARK    5  A    between atoms: C_12  and  C_14
REMARK    6  A    between atoms: C_12  and  S_15
REMARK    7  A    between atoms: S_15  and  C_16
REMARK    8  A    between atoms: C_21  and  C_28
REMARK    9  A    between atoms: C_22  and  C_27
REMARK                            x       y       z     vdW  Elec       q    Type
REMARK                         _______ _______ _______ _____ _____    ______ ____
ROOT
ATOM      1  C   UNL     1       4.931  -8.569  -0.860  0.00  0.00    +0.182 C 
ATOM      2  N   UNL     1       5.784  -7.664  -0.411  0.00  0.00    -0.151 NA
ATOM      3  C   UNL     1       7.104  -7.850  -0.430  0.00  0.00    +0.272 C 
ATOM      4  O   UNL     1       7.865  -6.994  -0.007  0.00  0.00    -0.268 OA
ATOM      5  C   UNL     1       7.626  -9.136  -0.981  0.00  0.00    +0.075 C 
ATOM      6  C   UNL     1       8.930  -9.543  -1.099  0.00  0.00    -0.012 C 
ATOM      7  C   UNL     1       9.175 -10.908  -1.699  0.00  0.00    +0.081 C 
ATOM      8  S   UNL     1       7.464 -11.484  -2.042  0.00  0.00    -0.097 S 
ATOM      9  C   UNL     1       6.583 -10.063  -1.449  0.00  0.00    +0.113 C 
ATOM     10  N   UNL     1       5.314  -9.741  -1.361  0.00  0.00    -0.217 NA
ATOM     11  C   UNL     1       9.986 -10.800  -2.991  0.00  0.00    +0.024 C 
ENDROOT
BRANCH   6  12
ATOM     12  C   UNL     1      10.037  -8.692  -0.662  0.00  0.00    -0.020 A 
ATOM     13  C   UNL     1      10.951  -8.188  -1.600  0.00  0.00    +0.011 A 
ATOM     14  C   UNL     1      11.990  -7.388  -1.181  0.00  0.00    +0.039 A 
ATOM     15  C   UNL     1      12.135  -7.080   0.164  0.00  0.00    +0.123 A 
ATOM     16  C   UNL     1      11.235  -7.575   1.098  0.00  0.00    +0.039 A 
ATOM     17  C   UNL     1      10.187  -8.370   0.695  0.00  0.00    +0.011 A 
ATOM     18  F   UNL     1      13.157  -6.294   0.567  0.00  0.00    -0.205 F 
ENDBRANCH   6  12
BRANCH   1  19
ATOM     19  S   UNL     1       3.208  -8.210  -0.783  0.00  0.00    -0.076 S 
BRANCH  19  20
ATOM     20  C   UNL     1       3.137  -6.551  -0.051  0.00  0.00    +0.137 C 
ATOM     21  C   UNL     1       3.669  -6.604   1.383  0.00  0.00    +0.029 C 
BRANCH  20  23
ATOM     22  N   UNL     1       1.447  -4.746  -0.032  0.00  0.00    -0.310 N 
ATOM     23  C   UNL     1       1.710  -6.067  -0.040  0.00  0.00    +0.226 C 
ATOM     24  O   UNL     1       0.799  -6.867  -0.040  0.00  0.00    -0.275 OA
ATOM     25  H   UNL     1       2.176  -4.106  -0.032  0.00  0.00    +0.149 HD
BRANCH  22  26
ATOM     26  C   UNL     1       0.059  -4.275  -0.021  0.00  0.00    +0.139 C 
BRANCH  26  31
ATOM     27  C   UNL     1      -0.018   1.503   0.010  0.00  0.00    +0.044 C 
ATOM     28  C   UNL     1       0.002  -0.004   0.002  0.00  0.00    -0.050 A 
ATOM     29  C   UNL     1       0.006  -0.689  -1.199  0.00  0.00    +0.003 A 
ATOM     30  C   UNL     1       0.025  -2.071  -1.206  0.00  0.00    +0.005 A 
ATOM     31  C   UNL     1       0.040  -2.768  -0.013  0.00  0.00    -0.030 A 
ATOM     32  C   UNL     1       0.037  -2.084   1.188  0.00  0.00    +0.005 A 
ATOM     33  C   UNL     1       0.023  -0.702   1.195  0.00  0.00    +0.003 A 
ENDBRANCH  26  31
ENDBRANCH  22  26
ENDBRANCH  20  23
ENDBRANCH  19  20
ENDBRANCH   1  19
TORSDOF 6
