REMARK  Name = ZINC12919865
REMARK  8 active torsions:
REMARK  status: ('A' for Active; 'I' for Inactive)
REMARK    1  A    between atoms: C_1  and  C_2
REMARK    2  A    between atoms: C_2  and  C_3
REMARK    3  A    between atoms: C_3  and  C_5
REMARK    4  A    between atoms: C_3  and  C_6
REMARK    5  A    between atoms: C_11  and  N_12
REMARK    6  A    between atoms: C_13  and  C_15
REMARK    7  A    between atoms: N_18  and  S_21
REMARK    8  A    between atoms: S_21  and  C_24
REMARK                            x       y       z     vdW  Elec       q    Type
REMARK                         _______ _______ _______ _____ _____    ______ ____
ROOT
ATOM      1  C   UNL     1      -2.934   0.704   4.425  0.00  0.00    +0.078 C 
ATOM      2  C   UNL     1      -3.275   1.963   3.626  0.00  0.00    +0.030 C 
ATOM      3  C   UNL     1      -4.004   1.565   2.339  0.00  0.00    +0.110 C 
ATOM      4  N   UNL     1      -3.178   0.593   1.609  0.00  0.00    -0.177 NA
ATOM      5  C   UNL     1      -2.723  -0.615   2.311  0.00  0.00    +0.110 C 
ATOM      6  C   UNL     1      -2.004  -0.189   3.600  0.00  0.00    +0.030 C 
ENDROOT
BRANCH   1   8
ATOM      7  N   UNL     1      -1.851   0.143   6.578  0.00  0.00    -0.285 N 
ATOM      8  C   UNL     1      -2.247   1.094   5.708  0.00  0.00    +0.220 C 
ATOM      9  O   UNL     1      -2.050   2.265   5.959  0.00  0.00    -0.275 OA
ATOM     10  H   UNL     1      -2.067  -0.787   6.409  0.00  0.00    +0.155 HD
BRANCH   7  16
ATOM     11  C   UNL     1      -0.139  -0.344   8.210  0.00  0.00    -0.023 A 
ATOM     12  C   UNL     1       0.571   0.009   9.341  0.00  0.00    +0.006 A 
ATOM     13  C   UNL     1       0.298   1.201   9.986  0.00  0.00    +0.000 A 
ATOM     14  C   UNL     1      -0.688   2.042   9.504  0.00  0.00    +0.002 A 
ATOM     15  C   UNL     1      -1.398   1.697   8.371  0.00  0.00    +0.023 A 
ATOM     16  C   UNL     1      -1.129   0.498   7.723  0.00  0.00    +0.037 A 
BRANCH  11  17
ATOM     17  C   UNL     1       0.160  -1.643   7.506  0.00  0.00    +0.017 C 
ATOM     18  C   UNL     1      -0.191  -2.814   8.425  0.00  0.00    +0.012 C 
BRANCH  17  20
ATOM     19  C   UNL     1       1.928  -2.959   6.330  0.00  0.00    +0.004 C 
ATOM     20  C   UNL     1       1.648  -1.700   7.153  0.00  0.00    +0.004 C 
ENDBRANCH  17  20
ENDBRANCH  11  17
ENDBRANCH   7  16
ENDBRANCH   1   8
BRANCH   4  21
ATOM     21  S   UNL     1      -2.774   0.851   0.024  0.00  0.00    +0.061 S 
ATOM     22  O   UNL     1      -3.763   1.719  -0.511  0.00  0.00    -0.153 OA
ATOM     23  O   UNL     1      -2.496  -0.425  -0.536  0.00  0.00    -0.153 OA
BRANCH  21  24
ATOM     24  C   UNL     1      -1.257   1.747   0.013  0.00  0.00    +0.106 A 
ATOM     25  C   UNL     1      -0.052   1.069  -0.004  0.00  0.00    +0.029 A 
ATOM     26  C   UNL     1       1.135   1.774  -0.019  0.00  0.00    +0.006 A 
ATOM     27  C   UNL     1       1.124   3.159  -0.012  0.00  0.00    -0.044 A 
ATOM     28  C   UNL     1      -0.081   3.837   0.010  0.00  0.00    -0.042 A 
ATOM     29  C   UNL     1      -1.270   3.128   0.026  0.00  0.00    +0.032 A 
ATOM     30  C   UNL     1       0.172   5.329   0.014  0.00  0.00    +0.036 C 
ATOM     31  C   UNL     1       1.636   5.492  -0.449  0.00  0.00    +0.009 C 
ATOM     32  C   UNL     1       2.268   4.149  -0.026  0.00  0.00    +0.036 C 
ENDBRANCH  21  24
ENDBRANCH   4  21
TORSDOF 6
