REMARK  Name = ZINC09787081
REMARK  6 active torsions:
REMARK  status: ('A' for Active; 'I' for Inactive)
REMARK    1  A    between atoms: C_1  and  C_2
REMARK    2  A    between atoms: C_2  and  S_3
REMARK    3  A    between atoms: S_3  and  C_6
REMARK    4  A    between atoms: C_9  and  C_12
REMARK    5  A    between atoms: C_15  and  N_18
REMARK    6  A    between atoms: C_19  and  C_21
REMARK                            x       y       z     vdW  Elec       q    Type
REMARK                         _______ _______ _______ _____ _____    ______ ____
ROOT
ATOM      1  C   UNL     1       0.930   6.305  -0.249  0.00  0.00    +0.002 A 
ATOM      2  C   UNL     1       2.169   5.666  -0.272  0.00  0.00    +0.012 A 
ATOM      3  C   UNL     1       2.236   4.292  -0.189  0.00  0.00    +0.024 A 
ATOM      4  C   UNL     1       1.070   3.543  -0.082  0.00  0.00    +0.034 A 
ATOM      5  C   UNL     1      -0.167   4.178  -0.064  0.00  0.00    +0.024 A 
ATOM      6  C   UNL     1      -0.239   5.552  -0.141  0.00  0.00    +0.012 A 
ENDROOT
BRANCH   1  10
ATOM      7  C   UNL     1       0.816  10.470  -0.507  0.00  0.00    +0.198 A 
ATOM      8  C   UNL     1      -0.400   9.810  -0.403  0.00  0.00    +0.051 A 
ATOM      9  C   UNL     1      -0.386   8.426  -0.316  0.00  0.00    +0.033 A 
ATOM     10  C   UNL     1       0.855   7.783  -0.339  0.00  0.00    +0.093 A 
ATOM     11  N   UNL     1       1.966   8.503  -0.436  0.00  0.00    -0.147 NA
ATOM     12  N   UNL     1       1.942   9.783  -0.522  0.00  0.00    -0.130 NA
BRANCH   7  13
ATOM     13  S   UNL     1       0.856  12.228  -0.621  0.00  0.00    +0.015 S 
ATOM     14  O   UNL     1       2.066  12.520  -1.306  0.00  0.00    -0.168 OA
ATOM     15  O   UNL     1      -0.400  12.584  -1.183  0.00  0.00    -0.168 OA
BRANCH  13  17
ATOM     16  C   UNL     1       0.997  14.333   1.121  0.00  0.00    +0.028 C 
ATOM     17  C   UNL     1       0.956  12.803   1.097  0.00  0.00    +0.170 C 
ENDBRANCH  13  17
ENDBRANCH   7  13
ENDBRANCH   1  10
BRANCH   4  18
ATOM     18  N   UNL     1       1.140   2.151   0.003  0.00  0.00    -0.279 N 
ATOM     19  C   UNL     1       0.236   1.473   0.738  0.00  0.00    +0.284 C 
ATOM     20  O   UNL     1      -0.585   2.079   1.402  0.00  0.00    -0.266 OA
ATOM     21  H   UNL     1       1.840   1.671  -0.468  0.00  0.00    +0.155 HD
BRANCH  19  22
ATOM     22  C   UNL     1       0.237   0.008   0.732  0.00  0.00    +0.191 A 
ATOM     23  C   UNL     1      -0.616  -0.798   1.432  0.00  0.00    +0.056 A 
ATOM     24  C   UNL     1      -0.260  -2.121   1.131  0.00  0.00    +0.058 A 
ATOM     25  C   UNL     1       0.789  -2.066   0.277  0.00  0.00    +0.171 A 
ATOM     26  O   UNL     1       1.084  -0.782   0.040  0.00  0.00    -0.444 OA
ATOM     27 BR   UNL     1       1.688  -3.558  -0.460  0.00  0.00    -0.008 Br
ENDBRANCH  19  22
ENDBRANCH   4  18
TORSDOF 5
