REMARK  Name = ZINC19940202
REMARK  11 active torsions:
REMARK  status: ('A' for Active; 'I' for Inactive)
REMARK    1  A    between atoms: C_1  and  C_2
REMARK    2  A    between atoms: C_5  and  N_9
REMARK    3  A    between atoms: C_6  and  C_8
REMARK    4  A    between atoms: C_10  and  C_12
REMARK    5  A    between atoms: C_12  and  S_13
REMARK    6  A    between atoms: S_13  and  C_14
REMARK    7  A    between atoms: C_15  and  C_36
REMARK    8  A    between atoms: C_16  and  C_31
REMARK    9  A    between atoms: C_18  and  C_22
REMARK   10  A    between atoms: C_19  and  C_21
REMARK   11  A    between atoms: N_24  and  C_25
REMARK                            x       y       z     vdW  Elec       q    Type
REMARK                         _______ _______ _______ _____ _____    ______ ____
ROOT
ATOM      1  C   UNL     1       0.613   0.646   2.565  0.00  0.00    +0.080 C 
ATOM      2  C   UNL     1       0.689   0.807   3.913  0.00  0.00    +0.069 C 
ATOM      3  C   UNL     1       1.783   0.162   4.715  0.00  0.00    +0.105 C 
ATOM      4  C   UNL     1       2.467  -0.913   3.920  0.00  0.00    +0.044 C 
ATOM      5  C   UNL     1       2.329  -1.002   2.588  0.00  0.00    +0.014 C 
ATOM      6  N   UNL     1       1.546  -0.116   1.899  0.00  0.00    -0.312 N 
ATOM      7  C   UNL     1       3.046  -2.096   1.839  0.00  0.00    +0.061 C 
ATOM      8  H   UNL     1       1.664  -0.013   0.810  0.00  0.00    +0.152 HD
ENDROOT
BRANCH   3   9
ATOM      9  C   UNL     1       2.793   1.212   5.100  0.00  0.00    +0.002 A 
ATOM     10  C   UNL     1       3.167   1.623   6.336  0.00  0.00    +0.012 A 
ATOM     11  C   UNL     1       4.125   2.613   6.452  0.00  0.00    +0.008 A 
ATOM     12  C   UNL     1       4.662   3.143   5.325  0.00  0.00    +0.045 A 
ATOM     13  S   UNL     1       3.812   2.232   4.047  0.00  0.00    -0.101 S 
ENDBRANCH   3   9
BRANCH   4  14
ATOM     14  C   UNL     1       3.279  -1.857   4.594  0.00  0.00    +0.247 C 
ATOM     15  O   UNL     1       3.841  -2.735   3.965  0.00  0.00    -0.270 OA
ATOM     16  N   UNL     1       3.430  -1.784   5.931  0.00  0.00    -0.282 N 
ATOM     17  H   UNL     1       2.856  -1.045   6.510  0.00  0.00    +0.155 HD
BRANCH  16  18
ATOM     18  C   UNL     1       4.316  -2.647   6.583  0.00  0.00    +0.034 A 
ATOM     19  C   UNL     1       4.034  -3.095   7.867  0.00  0.00    +0.023 A 
ATOM     20  C   UNL     1       4.909  -3.951   8.506  0.00  0.00    +0.002 A 
ATOM     21  C   UNL     1       6.070  -4.354   7.873  0.00  0.00    +0.000 A 
ATOM     22  C   UNL     1       6.357  -3.906   6.597  0.00  0.00    +0.002 A 
ATOM     23  C   UNL     1       5.484  -3.053   5.950  0.00  0.00    +0.023 A 
ENDBRANCH  16  18
ENDBRANCH   4  14
BRANCH   2  24
ATOM     24  C   UNL     1      -0.297   1.602   4.582  0.00  0.00    +0.098 C 
ATOM     25  N   UNL     1      -1.079   2.232   5.113  0.00  0.00    -0.191 NA
ENDBRANCH   2  24
BRANCH   1  26
ATOM     26  S   UNL     1      -0.686   1.425   1.663  0.00  0.00    -0.100 S 
BRANCH  26  27
ATOM     27  C   UNL     1      -0.276   0.877  -0.013  0.00  0.00    +0.171 C 
BRANCH  27  29
ATOM     28  N   UNL     1      -1.176   1.161  -2.299  0.00  0.00    -0.285 N 
ATOM     29  C   UNL     1      -1.282   1.438  -0.985  0.00  0.00    +0.227 C 
ATOM     30  O   UNL     1      -2.187   2.139  -0.583  0.00  0.00    -0.275 OA
ATOM     31  H   UNL     1      -0.308   0.601  -2.675  0.00  0.00    +0.155 HD
BRANCH  28  36
ATOM     32  C   UNL     1      -5.210   2.888  -5.895  0.00  0.00    +0.044 C 
ATOM     33  C   UNL     1      -4.138   2.429  -4.940  0.00  0.00    -0.050 A 
ATOM     34  C   UNL     1      -4.426   2.293  -3.594  0.00  0.00    +0.005 A 
ATOM     35  C   UNL     1      -3.448   1.867  -2.717  0.00  0.00    +0.024 A 
ATOM     36  C   UNL     1      -2.171   1.587  -3.186  0.00  0.00    +0.036 A 
ATOM     37  C   UNL     1      -1.885   1.725  -4.538  0.00  0.00    -0.029 A 
ATOM     38  C   UNL     1      -2.870   2.145  -5.411  0.00  0.00    +0.008 A 
ATOM     39  C   UNL     1      -0.503   1.416  -5.052  0.00  0.00    +0.045 C 
ENDBRANCH  28  36
ENDBRANCH  27  29
ENDBRANCH  26  27
ENDBRANCH   1  26
TORSDOF 8
