REMARK  Name = ZINC06144612
REMARK  14 active torsions:
REMARK  status: ('A' for Active; 'I' for Inactive)
REMARK    1  A    between atoms: C_1  and  C_2
REMARK    2  A    between atoms: C_2  and  O_3
REMARK    3  A    between atoms: O_3  and  C_4
REMARK    4  A    between atoms: C_4  and  C_6
REMARK    5  A    between atoms: C_7  and  C_34
REMARK    6  A    between atoms: N_8  and  C_27
REMARK    7  A    between atoms: C_12  and  O_15
REMARK    8  A    between atoms: O_15  and  C_16
REMARK    9  A    between atoms: C_16  and  C_17
REMARK   10  A    between atoms: C_17  and  C_19
REMARK   11  A    between atoms: C_17  and  O_26
REMARK   12  A    between atoms: C_19  and  N_70
REMARK   13  A    between atoms: C_22  and  C_25
REMARK   14  A    between atoms: C_30  and  C_33
REMARK                            x       y       z     vdW  Elec       q    Type
REMARK                         _______ _______ _______ _____ _____    ______ ____
ROOT
ATOM      1  C   UNL     1       2.408  -6.249  -3.038  0.00  0.00    +0.088 A 
ATOM      2  C   UNL     1       2.937  -6.350  -4.292  0.00  0.00    +0.036 A 
ATOM      3  N   UNL     1       3.007  -5.120  -4.860  0.00  0.00    -0.312 N 
ATOM      4  C   UNL     1       2.522  -4.160  -3.991  0.00  0.00    +0.055 A 
ATOM      5  C   UNL     1       2.126  -4.818  -2.816  0.00  0.00    +0.018 A 
ATOM      6  C   UNL     1       1.592  -4.093  -1.754  0.00  0.00    +0.056 A 
ATOM      7  C   UNL     1       1.455  -2.722  -1.864  0.00  0.00    +0.121 A 
ATOM      8  C   UNL     1       1.843  -2.071  -3.031  0.00  0.00    +0.048 A 
ATOM      9  C   UNL     1       2.377  -2.780  -4.084  0.00  0.00    +0.030 A 
ATOM     10  C   UNL     1       3.378  -7.633  -4.947  0.00  0.00    +0.065 C 
ENDROOT
BRANCH   3  11
ATOM     11  C   UNL     1       3.502  -4.860  -6.144  0.00  0.00    +0.047 A 
ATOM     12  C   UNL     1       4.652  -4.098  -6.306  0.00  0.00    +0.026 A 
ATOM     13  C   UNL     1       5.140  -3.847  -7.573  0.00  0.00    +0.005 A 
ATOM     14  C   UNL     1       4.479  -4.345  -8.681  0.00  0.00    -0.050 A 
ATOM     15  C   UNL     1       3.331  -5.099  -8.524  0.00  0.00    +0.005 A 
ATOM     16  C   UNL     1       2.841  -5.359  -7.259  0.00  0.00    +0.026 A 
ATOM     17  C   UNL     1       5.011  -4.064 -10.063  0.00  0.00    +0.044 C 
ENDBRANCH   3  11
BRANCH   1  18
ATOM     18  C   UNL     1       2.167  -7.348  -2.097  0.00  0.00    +0.342 C 
ATOM     19  O   UNL     1       1.101  -7.933  -2.104  0.00  0.00    -0.245 OA
BRANCH  18  20
ATOM     20  O   UNL     1       3.128  -7.710  -1.223  0.00  0.00    -0.461 OA
BRANCH  20  22
ATOM     21  C   UNL     1       4.022  -9.070   0.589  0.00  0.00    +0.048 C 
ATOM     22  C   UNL     1       2.820  -8.805  -0.321  0.00  0.00    +0.229 C 
ENDBRANCH  20  22
ENDBRANCH  18  20
ENDBRANCH   1  18
BRANCH   7  23
ATOM     23  O   UNL     1       0.935  -2.008  -0.830  0.00  0.00    -0.489 OA
BRANCH  23  24
ATOM     24  C   UNL     1       0.821  -0.595  -1.010  0.00  0.00    +0.258 C 
BRANCH  24  25
ATOM     25  C   UNL     1       0.219   0.033   0.248  0.00  0.00    +0.135 C 
BRANCH  25  26
ATOM     26  O   UNL     1       1.121  -0.137   1.343  0.00  0.00    -0.390 OA
ATOM     27  H   UNL     1       1.987   0.272   1.207  0.00  0.00    +0.210 HD
ENDBRANCH  25  26
BRANCH  25  28
ATOM     28  C   UNL     1      -0.019   1.526   0.010  0.00  0.00    -0.044 C 
BRANCH  28  35
ATOM     29  C   UNL     1      -0.596   3.597   1.123  0.00  0.00    -0.078 C 
ATOM     30  C   UNL     1      -1.050   4.197   2.456  0.00  0.00    -0.016 C 
ATOM     31  C   UNL     1      -2.450   3.676   2.793  0.00  0.00    -0.018 C 
ATOM     32  C   UNL     1      -2.418   2.146   2.845  0.00  0.00    -0.016 C 
ATOM     33  C   UNL     1      -1.924   1.606   1.501  0.00  0.00    -0.078 C 
ATOM     34  C   UNL     1      -2.885   4.225   4.154  0.00  0.00    +0.007 C 
ATOM     35  N   UNL     1      -0.563   2.124   1.247  0.00  0.00    +0.381 N 
ATOM     36  H   UNL     1       0.043   1.869   2.035  0.00  0.00    -0.082 HD
ENDBRANCH  28  35
ENDBRANCH  25  28
ENDBRANCH  24  25
ENDBRANCH  23  24
ENDBRANCH   7  23
TORSDOF 10
