REMARK  Name = ZINC21936193
REMARK  12 active torsions:
REMARK  status: ('A' for Active; 'I' for Inactive)
REMARK    1  A    between atoms: C_1  and  C_2
REMARK    2  A    between atoms: C_2  and  C_3
REMARK    3  A    between atoms: C_3  and  C_4
REMARK    4  A    between atoms: C_18  and  S_19
REMARK    5  A    between atoms: S_19  and  C_20
REMARK    6  A    between atoms: C_20  and  C_22
REMARK    7  A    between atoms: C_20  and  C_24
REMARK    8  A    between atoms: C_22  and  C_23
REMARK    9  A    between atoms: N_26  and  C_27
REMARK   10  A    between atoms: C_30  and  C_33
REMARK   11  A    between atoms: C_33  and  C_34
REMARK   12  A    between atoms: C_33  and  C_35
REMARK                            x       y       z     vdW  Elec       q    Type
REMARK                         _______ _______ _______ _____ _____    ______ ____
ROOT
ATOM      1  C   UNL     1       2.331   6.619  -3.076  0.00  0.00    +0.194 C 
ATOM      2  C   UNL     1       3.235   6.159  -1.952  0.00  0.00    +0.251 C 
ATOM      3  O   UNL     1       3.422   5.021  -1.580  0.00  0.00    -0.272 OA
ATOM      4  N   UNL     1       3.790   7.287  -1.451  0.00  0.00    -0.200 N 
ATOM      5  C   UNL     1       3.330   8.396  -2.139  0.00  0.00    +0.139 C 
ATOM      6  N   UNL     1       2.489   8.080  -3.084  0.00  0.00    -0.255 NA
ATOM      7  C   UNL     1       3.842   9.717  -1.715  0.00  0.00    +0.041 A 
ATOM      8  C   UNL     1       3.438  10.889  -2.346  0.00  0.00    +0.013 A 
ATOM      9  C   UNL     1       3.940  12.100  -1.917  0.00  0.00    +0.001 A 
ATOM     10  C   UNL     1       4.843  12.155  -0.865  0.00  0.00    +0.002 A 
ATOM     11  C   UNL     1       5.255  11.004  -0.229  0.00  0.00    +0.028 A 
ATOM     12  C   UNL     1       4.759   9.767  -0.645  0.00  0.00    +0.077 A 
ATOM     13  N   UNL     1       5.142   8.614  -0.042  0.00  0.00    -0.225 NA
ATOM     14  C   UNL     1       4.689   7.448  -0.417  0.00  0.00    +0.170 C 
ENDROOT
BRANCH   1  15
ATOM     15  C   UNL     1       0.878   6.239  -2.784  0.00  0.00    +0.036 C 
BRANCH  15  17
ATOM     16  C   UNL     1      -1.464   6.311  -3.654  0.00  0.00    +0.004 C 
ATOM     17  C   UNL     1      -0.011   6.691  -3.945  0.00  0.00    -0.001 C 
ENDBRANCH  15  17
ENDBRANCH   1  15
BRANCH  14  18
ATOM     18  S   UNL     1       5.253   6.014   0.437  0.00  0.00    -0.077 S 
BRANCH  18  19
ATOM     19  C   UNL     1       6.487   6.763   1.528  0.00  0.00    +0.140 C 
BRANCH  19  20
ATOM     20  C   UNL     1       7.650   7.257   0.707  0.00  0.00    +0.231 C 
ATOM     21  O   UNL     1       7.835   6.818  -0.409  0.00  0.00    -0.274 OA
ATOM     22  N   UNL     1       8.485   8.187   1.212  0.00  0.00    -0.285 N 
ATOM     23  H   UNL     1       8.365   8.528   2.251  0.00  0.00    +0.155 HD
BRANCH  22  24
ATOM     24  C   UNL     1       9.505   8.718   0.415  0.00  0.00    +0.033 A 
ATOM     25  C   UNL     1      10.158   7.912  -0.508  0.00  0.00    +0.023 A 
ATOM     26  C   UNL     1      11.162   8.440  -1.296  0.00  0.00    +0.006 A 
ATOM     27  C   UNL     1      11.524   9.768  -1.160  0.00  0.00    -0.045 A 
ATOM     28  C   UNL     1      10.879  10.572  -0.238  0.00  0.00    +0.006 A 
ATOM     29  C   UNL     1       9.871  10.051   0.550  0.00  0.00    +0.023 A 
BRANCH  27  30
ATOM     30  C   UNL     1      12.623  10.339  -2.017  0.00  0.00    +0.013 C 
ATOM     31  C   UNL     1      13.922   9.572  -1.759  0.00  0.00    +0.012 C 
ATOM     32  C   UNL     1      12.239  10.210  -3.493  0.00  0.00    +0.012 C 
ENDBRANCH  27  30
ENDBRANCH  22  24
ENDBRANCH  19  20
BRANCH  19  33
ATOM     33  C   UNL     1       6.980   5.720   2.533  0.00  0.00    +0.020 C 
ATOM     34  C   UNL     1       5.828   5.319   3.458  0.00  0.00    +0.005 C 
ENDBRANCH  19  33
ENDBRANCH  18  19
ENDBRANCH  14  18
TORSDOF 8
