REMARK  Name = ZINC51989053
REMARK  4 active torsions:
REMARK  status: ('A' for Active; 'I' for Inactive)
REMARK    1  A    between atoms: C_2  and  C_10
REMARK    2  A    between atoms: C_3  and  N_9
REMARK    3  A    between atoms: N_12  and  C_13
REMARK    4  A    between atoms: C_19  and  O_21
REMARK                            x       y       z     vdW  Elec       q    Type
REMARK                         _______ _______ _______ _____ _____    ______ ____
ROOT
ATOM      1  C   UNL     1       0.914   3.547  -0.030  0.00  0.00    +0.246 C 
ATOM      2  O   UNL     1       1.898   4.257   0.053  0.00  0.00    -0.270 OA
ATOM      3  N   UNL     1      -0.310   4.101  -0.134  0.00  0.00    -0.306 N 
ATOM      4  H   UNL     1      -1.095   3.535  -0.200  0.00  0.00    +0.149 HD
ENDROOT
BRANCH   1   6
ATOM      5  C   UNL     1      -0.073   1.262   0.013  0.00  0.00    +0.056 A 
ATOM      6  C   UNL     1       1.060   2.081  -0.017  0.00  0.00    +0.060 A 
ATOM      7  C   UNL     1       2.337   1.499  -0.036  0.00  0.00    +0.040 A 
ATOM      8  C   UNL     1       2.464   0.117  -0.024  0.00  0.00    +0.064 A 
ATOM      9  C   UNL     1       1.337  -0.682   0.005  0.00  0.00    +0.160 A 
ATOM     10  C   UNL     1       0.070  -0.109   0.024  0.00  0.00    +0.159 A 
ATOM     11  F   UNL     1      -1.026  -0.899   0.053  0.00  0.00    -0.202 F 
ATOM     12  F   UNL     1       1.466  -2.027   0.016  0.00  0.00    -0.202 F 
BRANCH   7  13
ATOM     13  N   UNL     1       3.470   2.304  -0.066  0.00  0.00    -0.357 N 
ATOM     14  H   UNL     1       3.383   3.267   0.006  0.00  0.00    +0.142 HD
ATOM     15  H   UNL     1       4.348   1.902  -0.159  0.00  0.00    +0.142 HD
ENDBRANCH   7  13
ENDBRANCH   1   6
BRANCH   3  16
ATOM     16  C   UNL     1      -0.456   5.559  -0.147  0.00  0.00    +0.102 C 
ATOM     17  C   UNL     1      -0.261   6.078  -1.572  0.00  0.00    +0.025 C 
ATOM     18  C   UNL     1      -0.413   7.601  -1.586  0.00  0.00    +0.002 C 
ATOM     19  C   UNL     1      -1.811   7.978  -1.092  0.00  0.00    +0.003 C 
ATOM     20  C   UNL     1      -2.006   7.458   0.334  0.00  0.00    +0.033 C 
ATOM     21  C   UNL     1      -1.854   5.936   0.347  0.00  0.00    +0.135 C 
BRANCH  21  22
ATOM     22  O   UNL     1      -2.836   5.352  -0.511  0.00  0.00    -0.390 OA
ATOM     23  H   UNL     1      -3.748   5.550  -0.258  0.00  0.00    +0.210 HD
ENDBRANCH  21  22
ENDBRANCH   3  16
TORSDOF 4
