REMARK  Name = ZINC12431928
REMARK  7 active torsions:
REMARK  status: ('A' for Active; 'I' for Inactive)
REMARK    1  A    between atoms: C_4  and  C_7
REMARK    2  A    between atoms: C_7  and  C_8
REMARK    3  A    between atoms: C_8  and  N_64
REMARK    4  A    between atoms: C_14  and  C_16
REMARK    5  A    between atoms: C_16  and  C_17
REMARK    6  A    between atoms: C_22  and  C_25
REMARK    7  A    between atoms: C_25  and  C_26
REMARK                            x       y       z     vdW  Elec       q    Type
REMARK                         _______ _______ _______ _____ _____    ______ ____
ROOT
ATOM      1  C   UNL     1       0.003   2.252  -2.168  0.00  0.00    -0.059 C 
ATOM      2  C   UNL     1      -0.508   3.146  -1.037  0.00  0.00    +0.085 C 
ATOM      3  N   UNL     1       0.288   2.932   0.168  0.00  0.00    -0.318 N 
ATOM      4  C   UNL     1       1.496   2.359   0.149  0.00  0.00    +0.200 C 
ATOM      5  O   UNL     1       2.103   2.248   1.193  0.00  0.00    -0.278 OA
ATOM      6  C   UNL     1       2.132   1.846  -1.112  0.00  0.00    +0.028 C 
ATOM      7  H   UNL     1      -0.075   3.218   1.021  0.00  0.00    +0.149 HD
ATOM      8  N   UNL     1       1.462   2.447  -2.281  0.00  0.00    +0.389 N 
ATOM      9  H   UNL     1       1.666   3.453  -2.304  0.00  0.00    -0.081 HD
ENDROOT
BRANCH   8  10
ATOM     10  C   UNL     1       1.964   1.825  -3.528  0.00  0.00    -0.073 C 
BRANCH  10  11
ATOM     11  C   UNL     1       1.613   2.732  -4.709  0.00  0.00    +0.016 C 
BRANCH  11  15
ATOM     12  C   UNL     1       3.076   0.993  -8.325  0.00  0.00    +0.000 A 
ATOM     13  C   UNL     1       1.803   0.691  -7.879  0.00  0.00    +0.000 A 
ATOM     14  C   UNL     1       1.329   1.254  -6.709  0.00  0.00    +0.003 A 
ATOM     15  C   UNL     1       2.129   2.118  -5.984  0.00  0.00    -0.049 A 
ATOM     16  C   UNL     1       3.400   2.424  -6.433  0.00  0.00    +0.003 A 
ATOM     17  C   UNL     1       3.876   1.856  -7.601  0.00  0.00    +0.000 A 
ENDBRANCH  11  15
ENDBRANCH  10  11
ENDBRANCH   8  10
BRANCH   6  18
ATOM     18  C   UNL     1       3.611   2.238  -1.131  0.00  0.00    +0.090 C 
BRANCH  18  19
ATOM     19  C   UNL     1       3.732   3.740  -1.165  0.00  0.00    +0.214 C 
ATOM     20  O   UNL     1       2.735   4.430  -1.127  0.00  0.00    -0.276 OA
ATOM     21  N   UNL     1       4.948   4.317  -1.238  0.00  0.00    -0.301 N 
ATOM     22  C   UNL     1       6.165   3.495  -1.279  0.00  0.00    +0.108 C 
ATOM     23  C   UNL     1       6.994   3.910  -2.504  0.00  0.00    +0.023 C 
ATOM     24  C   UNL     1       7.255   5.417  -2.449  0.00  0.00    -0.004 C 
ATOM     25  C   UNL     1       5.923   6.169  -2.492  0.00  0.00    +0.023 C 
ATOM     26  C   UNL     1       5.082   5.779  -1.272  0.00  0.00    +0.108 C 
BRANCH  24  27
ATOM     27  C   UNL     1       8.112   5.829  -3.647  0.00  0.00    +0.038 C 
BRANCH  27  28
ATOM     28  C   UNL     1       9.470   5.184  -3.540  0.00  0.00    -0.047 A 
ATOM     29  C   UNL     1      10.496   5.836  -2.883  0.00  0.00    +0.003 A 
ATOM     30  C   UNL     1      11.739   5.242  -2.780  0.00  0.00    +0.000 A 
ATOM     31  C   UNL     1      11.960   3.999  -3.344  0.00  0.00    +0.000 A 
ATOM     32  C   UNL     1      10.936   3.349  -4.006  0.00  0.00    +0.000 A 
ATOM     33  C   UNL     1       9.691   3.941  -4.104  0.00  0.00    +0.003 A 
ENDBRANCH  27  28
ENDBRANCH  24  27
ENDBRANCH  18  19
ENDBRANCH   6  18
TORSDOF 7
