REMARK  Name = ZINC37217056
REMARK  2 active torsions:
REMARK  status: ('A' for Active; 'I' for Inactive)
REMARK    1  A    between atoms: C_9  and  N_12
REMARK    2  A    between atoms: N_12  and  C_13
REMARK                            x       y       z     vdW  Elec       q    Type
REMARK                         _______ _______ _______ _____ _____    ______ ____
ROOT
ATOM      1  N   UNL     1       4.868  -2.832  -0.260  0.00  0.00    -0.341 N 
ATOM      2  H   UNL     1       5.021  -3.325   0.561  0.00  0.00    +0.146 HD
ENDROOT
BRANCH   1   3
ATOM      3  C   UNL     1       5.859  -2.790  -1.247  0.00  0.00    +0.029 A 
ATOM      4  C   UNL     1       5.640  -2.078  -2.421  0.00  0.00    +0.025 A 
ATOM      5  C   UNL     1       6.614  -2.033  -3.398  0.00  0.00    +0.029 A 
ATOM      6  C   UNL     1       7.815  -2.700  -3.209  0.00  0.00    +0.067 A 
ATOM      7  C   UNL     1       8.038  -3.416  -2.032  0.00  0.00    +0.069 A 
ATOM      8  C   UNL     1       7.060  -3.455  -1.050  0.00  0.00    +0.050 A 
ATOM      9  N   UNL     1       9.313  -3.969  -2.132  0.00  0.00    -0.306 N 
ATOM     10  H   UNL     1       9.746  -4.521  -1.462  0.00  0.00    +0.170 HD
ATOM     11  C   UNL     1       9.842  -3.606  -3.315  0.00  0.00    +0.325 A 
ATOM     12  O   UNL     1      10.947  -3.922  -3.715  0.00  0.00    -0.247 OA
ATOM     13  N   UNL     1       8.964  -2.840  -3.989  0.00  0.00    -0.306 N 
ATOM     14  H   UNL     1       9.105  -2.451  -4.867  0.00  0.00    +0.170 HD
ENDBRANCH   1   3
BRANCH   1  23
ATOM     15  C   UNL     1      -0.017   1.375   0.010  0.00  0.00    +0.000 A 
ATOM     16  C   UNL     1       1.174   2.078   0.002  0.00  0.00    +0.000 A 
ATOM     17  C   UNL     1       2.372   1.395  -0.010  0.00  0.00    +0.004 A 
ATOM     18  C   UNL     1       2.393   0.006  -0.017  0.00  0.00    -0.042 A 
ATOM     19  C   UNL     1       1.208  -0.694  -0.015  0.00  0.00    -0.044 A 
ATOM     20  C   UNL     1       0.002  -0.004   0.002  0.00  0.00    +0.004 A 
ATOM     21  C   UNL     1       1.155  -2.199  -0.038  0.00  0.00    +0.037 C 
ATOM     22  C   UNL     1       2.501  -2.790   0.375  0.00  0.00    +0.027 C 
ATOM     23  C   UNL     1       3.599  -2.130  -0.467  0.00  0.00    +0.075 C 
ATOM     24  C   UNL     1       3.737  -0.675  -0.023  0.00  0.00    +0.057 C 
ENDBRANCH   1  23
TORSDOF 2
