REMARK  Name = ZINC33707286
REMARK  6 active torsions:
REMARK  status: ('A' for Active; 'I' for Inactive)
REMARK    1  A    between atoms: C_1  and  C_2
REMARK    2  A    between atoms: C_5  and  C_8
REMARK    3  A    between atoms: C_22  and  C_24
REMARK    4  A    between atoms: C_24  and  N_25
REMARK    5  A    between atoms: N_25  and  C_26
REMARK    6  A    between atoms: N_31  and  C_32
REMARK                            x       y       z     vdW  Elec       q    Type
REMARK                         _______ _______ _______ _____ _____    ______ ____
ROOT
ATOM      1  C   UNL     1      -3.462   4.431   0.221  0.00  0.00    +0.159 C 
ATOM      2  C   UNL     1      -4.282   4.779  -0.998  0.00  0.00    +0.049 A 
ATOM      3  C   UNL     1      -4.046   5.686  -1.952  0.00  0.00    +0.025 A 
ATOM      4  C   UNL     1      -5.115   5.616  -2.873  0.00  0.00    +0.020 A 
ATOM      5  C   UNL     1      -5.968   4.662  -2.437  0.00  0.00    +0.092 A 
ATOM      6  N   UNL     1      -5.470   4.145  -1.288  0.00  0.00    -0.316 N 
ATOM      7  C   UNL     1      -5.984   3.144  -0.450  0.00  0.00    +0.068 A 
ATOM      8  C   UNL     1      -7.022   2.324  -0.846  0.00  0.00    +0.028 A 
ATOM      9  C   UNL     1      -7.489   1.344   0.012  0.00  0.00    +0.002 A 
ATOM     10  C   UNL     1      -6.916   1.185   1.261  0.00  0.00    +0.002 A 
ATOM     11  C   UNL     1      -5.879   2.005   1.665  0.00  0.00    +0.025 A 
ATOM     12  C   UNL     1      -5.407   2.993   0.815  0.00  0.00    +0.061 A 
ATOM     13  N   UNL     1      -4.372   3.846   1.221  0.00  0.00    -0.255 N 
ATOM     14  C   UNL     1      -4.208   4.132   2.528  0.00  0.00    +0.238 C 
ATOM     15  O   UNL     1      -5.016   3.736   3.341  0.00  0.00    -0.273 OA
ENDROOT
BRANCH   1  20
ATOM     16  C   UNL     1       0.619   0.594  -1.196  0.00  0.00    +0.044 C 
ATOM     17  C   UNL     1      -0.445   1.595  -0.826  0.00  0.00    -0.050 A 
ATOM     18  C   UNL     1      -1.743   1.173  -0.606  0.00  0.00    +0.004 A 
ATOM     19  C   UNL     1      -2.721   2.092  -0.272  0.00  0.00    +0.006 A 
ATOM     20  C   UNL     1      -2.398   3.430  -0.148  0.00  0.00    -0.021 A 
ATOM     21  C   UNL     1      -1.100   3.852  -0.368  0.00  0.00    +0.006 A 
ATOM     22  C   UNL     1      -0.123   2.934  -0.707  0.00  0.00    +0.004 A 
ENDBRANCH   1  20
BRANCH  14  23
ATOM     23  C   UNL     1      -3.021   4.943   2.979  0.00  0.00    +0.205 C 
BRANCH  23  24
ATOM     24  N   UNL     1      -3.003   5.011   4.442  0.00  0.00    -0.274 N 
ATOM     25  C   UNL     1      -2.346   4.072   5.152  0.00  0.00    +0.307 C 
ATOM     26  O   UNL     1      -2.436   4.053   6.364  0.00  0.00    -0.252 OA
ATOM     27  N   UNL     1      -1.589   3.155   4.518  0.00  0.00    -0.267 N 
ATOM     28  H   UNL     1      -1.422   3.234   3.433  0.00  0.00    +0.156 HD
BRANCH  27  29
ATOM     29  C   UNL     1      -1.016   2.099   5.240  0.00  0.00    +0.070 A 
ATOM     30  C   UNL     1      -1.566   1.705   6.451  0.00  0.00    +0.029 A 
ATOM     31  C   UNL     1      -1.003   0.661   7.159  0.00  0.00    +0.040 A 
ATOM     32  C   UNL     1       0.117   0.013   6.666  0.00  0.00    +0.126 A 
ATOM     33  C   UNL     1       0.673   0.406   5.461  0.00  0.00    +0.078 A 
ATOM     34  C   UNL     1       0.109   1.448   4.746  0.00  0.00    +0.147 A 
ATOM     35  F   UNL     1       0.651   1.832   3.570  0.00  0.00    -0.203 F 
ATOM     36  F   UNL     1       0.669  -1.004   7.364  0.00  0.00    -0.205 F 
ENDBRANCH  27  29
BRANCH  24  37
ATOM     37  C   UNL     1      -3.700   6.098   5.134  0.00  0.00    +0.078 C 
ATOM     38  C   UNL     1      -3.348   6.340   6.603  0.00  0.00    +0.024 C 
ATOM     39  C   UNL     1      -4.694   5.714   6.231  0.00  0.00    +0.024 C 
ENDBRANCH  24  37
ENDBRANCH  23  24
ENDBRANCH  14  23
TORSDOF 5
