REMARK  Name = ZINC36703294
REMARK  13 active torsions:
REMARK  status: ('A' for Active; 'I' for Inactive)
REMARK    1  A    between atoms: C_1  and  C_2
REMARK    2  A    between atoms: C_2  and  N_3
REMARK    3  A    between atoms: N_3  and  C_4
REMARK    4  A    between atoms: N_3  and  C_6
REMARK    5  A    between atoms: C_4  and  C_5
REMARK    6  A    between atoms: C_6  and  C_8
REMARK    7  A    between atoms: C_6  and  C_27
REMARK    8  A    between atoms: C_8  and  N_9
REMARK    9  A    between atoms: C_10  and  C_12
REMARK   10  A    between atoms: C_13  and  C_26
REMARK   11  A    between atoms: N_15  and  C_18
REMARK   12  A    between atoms: C_18  and  C_19
REMARK   13  A    between atoms: C_22  and  C_25
REMARK                            x       y       z     vdW  Elec       q    Type
REMARK                         _______ _______ _______ _____ _____    ______ ____
ROOT
ATOM      1  N   UNL     1       1.434   0.945  -1.119  0.00  0.00    -0.312 N 
ATOM      2  C   UNL     1       2.388   1.897  -1.158  0.00  0.00    +0.249 C 
ATOM      3  O   UNL     1       3.190   1.916  -2.072  0.00  0.00    -0.270 OA
ATOM      4  H   UNL     1       0.794   0.929  -0.391  0.00  0.00    +0.149 HD
ENDROOT
BRANCH   2   5
ATOM      5  C   UNL     1       2.457   2.914  -0.095  0.00  0.00    +0.096 A 
ATOM      6  C   UNL     1       3.197   2.824   1.106  0.00  0.00    +0.074 A 
ATOM      7  N   UNL     1       3.002   3.920   1.784  0.00  0.00    -0.174 NA
ATOM      8  N   UNL     1       2.141   4.754   1.062  0.00  0.00    -0.248 N 
ATOM      9  C   UNL     1       1.815   4.138  -0.087  0.00  0.00    +0.140 A 
ATOM     10 CL   UNL     1       0.777   4.764  -1.329  0.00  0.00    -0.062 Cl
ATOM     11  C   UNL     1       4.060   1.663   1.529  0.00  0.00    +0.068 C 
BRANCH   8  12
ATOM     12  C   UNL     1       1.677   6.078   1.485  0.00  0.00    +0.180 C 
BRANCH  12  13
ATOM     13  C   UNL     1       2.635   7.129   0.986  0.00  0.00    -0.026 A 
ATOM     14  C   UNL     1       3.714   7.506   1.764  0.00  0.00    +0.006 A 
ATOM     15  C   UNL     1       4.593   8.470   1.306  0.00  0.00    +0.004 A 
ATOM     16  C   UNL     1       4.393   9.056   0.070  0.00  0.00    -0.050 A 
ATOM     17  C   UNL     1       3.316   8.677  -0.708  0.00  0.00    +0.004 A 
ATOM     18  C   UNL     1       2.439   7.710  -0.252  0.00  0.00    +0.006 A 
ATOM     19  C   UNL     1       5.351  10.107  -0.428  0.00  0.00    +0.044 C 
ENDBRANCH  12  13
ENDBRANCH   8  12
ENDBRANCH   2   5
BRANCH   1  20
ATOM     20  C   UNL     1       1.365  -0.067  -2.177  0.00  0.00    +0.094 C 
BRANCH  20  21
ATOM     21  C   UNL     1       0.127  -0.940  -1.967  0.00  0.00    -0.020 C 
BRANCH  21  22
ATOM     22  C   UNL     1       0.138  -2.075  -2.958  0.00  0.00    -0.059 A 
ATOM     23  C   UNL     1       1.336  -2.515  -3.491  0.00  0.00    +0.002 A 
ATOM     24  C   UNL     1       1.347  -3.556  -4.400  0.00  0.00    +0.000 A 
ATOM     25  C   UNL     1       0.160  -4.157  -4.777  0.00  0.00    +0.000 A 
ATOM     26  C   UNL     1      -1.037  -3.717  -4.244  0.00  0.00    +0.000 A 
ATOM     27  C   UNL     1      -1.048  -2.679  -3.332  0.00  0.00    +0.002 A 
ENDBRANCH  21  22
BRANCH  21  28
ATOM     28  N   UNL     1       0.136  -1.483  -0.602  0.00  0.00    +0.385 N 
ATOM     29  H   UNL     1       0.211  -0.725   0.061  0.00  0.00    -0.081 HD
BRANCH  28  31
ATOM     30  C   UNL     1      -2.293  -1.250  -0.389  0.00  0.00    -0.017 C 
ATOM     31  C   UNL     1      -1.111  -2.221  -0.360  0.00  0.00    -0.081 C 
ENDBRANCH  28  31
BRANCH  28  32
ATOM     32  C   UNL     1       1.281  -2.389  -0.442  0.00  0.00    -0.081 C 
ATOM     33  C   UNL     1       2.501  -1.592   0.022  0.00  0.00    -0.017 C 
ENDBRANCH  28  32
ENDBRANCH  21  28
ENDBRANCH  20  21
ENDBRANCH   1  20
TORSDOF 9
