REMARK  Name = ZINC03102611
REMARK  12 active torsions:
REMARK  status: ('A' for Active; 'I' for Inactive)
REMARK    1  A    between atoms: C_1  and  C_2
REMARK    2  A    between atoms: C_2  and  O_3
REMARK    3  A    between atoms: O_3  and  C_4
REMARK    4  A    between atoms: C_6  and  C_20
REMARK    5  A    between atoms: C_9  and  O_10
REMARK    6  A    between atoms: O_10  and  C_11
REMARK    7  A    between atoms: C_11  and  C_13
REMARK    8  A    between atoms: N_21  and  N_22
REMARK    9  A    between atoms: C_23  and  C_25
REMARK   10  A    between atoms: C_25  and  O_26
REMARK   11  A    between atoms: O_26  and  C_27
REMARK   12  A    between atoms: C_32  and  C_33
REMARK                            x       y       z     vdW  Elec       q    Type
REMARK                         _______ _______ _______ _____ _____    ______ ____
ROOT
ATOM      1  C   UNL     1      -1.318   3.605   2.337  0.00  0.00    +0.163 A 
ATOM      2  C   UNL     1      -1.874   2.832   3.338  0.00  0.00    +0.059 A 
ATOM      3  C   UNL     1      -2.520   3.446   4.414  0.00  0.00    -0.002 A 
ATOM      4  C   UNL     1      -2.602   4.840   4.471  0.00  0.00    +0.013 A 
ATOM      5  C   UNL     1      -2.045   5.605   3.469  0.00  0.00    +0.051 A 
ATOM      6  C   UNL     1      -1.398   4.995   2.404  0.00  0.00    +0.173 A 
ENDROOT
BRANCH   3   7
ATOM      7  C   UNL     1      -3.115   2.627   5.485  0.00  0.00    +0.138 C 
ATOM      8  N   UNL     1      -3.714   3.200   6.484  0.00  0.00    -0.188 NA
BRANCH   8   9
ATOM      9  N   UNL     1      -4.279   2.421   7.502  0.00  0.00    -0.204 N 
ATOM     10  C   UNL     1      -4.902   3.015   8.539  0.00  0.00    +0.270 C 
ATOM     11  O   UNL     1      -4.974   4.225   8.590  0.00  0.00    -0.270 OA
ATOM     12  H   UNL     1      -4.222   1.453   7.461  0.00  0.00    +0.177 HD
BRANCH  10  13
ATOM     13  C   UNL     1      -5.510   2.177   9.634  0.00  0.00    +0.326 C 
BRANCH  13  14
ATOM     14  O   UNL     1      -6.107   3.032  10.612  0.00  0.00    -0.482 OA
BRANCH  14  15
ATOM     15  C   UNL     1      -6.704   2.430  11.674  0.00  0.00    +0.124 A 
ATOM     16  C   UNL     1      -6.719   1.046  11.771  0.00  0.00    +0.046 A 
ATOM     17  C   UNL     1      -7.321   0.438  12.855  0.00  0.00    +0.004 A 
ATOM     18  C   UNL     1      -7.918   1.206  13.838  0.00  0.00    +0.000 A 
ATOM     19  C   UNL     1      -7.909   2.586  13.740  0.00  0.00    +0.007 A 
ATOM     20  C   UNL     1      -7.303   3.199  12.661  0.00  0.00    -0.009 A 
ATOM     21  C   UNL     1      -7.295   4.702  12.555  0.00  0.00    +0.047 C 
ENDBRANCH  14  15
ENDBRANCH  13  14
ENDBRANCH  10  13
ENDBRANCH   8   9
ENDBRANCH   3   7
BRANCH   1  22
ATOM     22  O   UNL     1      -0.689   3.010   1.288  0.00  0.00    -0.489 OA
BRANCH  22  24
ATOM     23  C   UNL     1       0.102   1.098   0.040  0.00  0.00    +0.048 C 
ATOM     24  C   UNL     1      -0.639   1.582   1.287  0.00  0.00    +0.226 C 
ENDBRANCH  22  24
ENDBRANCH   1  22
BRANCH   6  25
ATOM     25  O   UNL     1      -0.846   5.754   1.421  0.00  0.00    -0.419 OA
BRANCH  25  26
ATOM     26  C   UNL     1      -1.563   5.908   0.291  0.00  0.00    +0.345 C 
ATOM     27  O   UNL     1      -2.692   5.464   0.223  0.00  0.00    -0.245 OA
BRANCH  26  28
ATOM     28  C   UNL     1      -0.978   6.618  -0.864  0.00  0.00    +0.059 A 
ATOM     29  C   UNL     1       0.317   7.135  -0.787  0.00  0.00    +0.016 A 
ATOM     30  C   UNL     1       0.860   7.791  -1.871  0.00  0.00    +0.016 A 
ATOM     31  C   UNL     1       0.120   7.948  -3.031  0.00  0.00    +0.018 A 
ATOM     32  C   UNL     1      -1.167   7.443  -3.112  0.00  0.00    +0.016 A 
ATOM     33  C   UNL     1      -1.720   6.780  -2.037  0.00  0.00    +0.016 A 
ATOM     34 BR   UNL     1       0.870   8.856  -4.511  0.00  0.00    -0.050 Br
ENDBRANCH  26  28
ENDBRANCH  25  26
ENDBRANCH   6  25
TORSDOF 10
