REMARK  Name = ZINC40077970
REMARK  19 active torsions:
REMARK  status: ('A' for Active; 'I' for Inactive)
REMARK    1  A    between atoms: C_1  and  C_2
REMARK    2  A    between atoms: C_2  and  C_3
REMARK    3  A    between atoms: C_3  and  O_4
REMARK    4  A    between atoms: O_4  and  C_5
REMARK    5  A    between atoms: C_8  and  C_11
REMARK    6  A    between atoms: C_11  and  C_13
REMARK    7  A    between atoms: N_17  and  C_32
REMARK    8  A    between atoms: C_18  and  C_20
REMARK    9  A    between atoms: C_24  and  O_26
REMARK   10  A    between atoms: O_26  and  C_27
REMARK   11  A    between atoms: C_27  and  C_28
REMARK   12  A    between atoms: C_28  and  C_29
REMARK   13  A    between atoms: C_29  and  C_30
REMARK   14  A    between atoms: C_29  and  C_31
REMARK   15  A    between atoms: C_32  and  C_33
REMARK   16  A    between atoms: C_33  and  O_34
REMARK   17  A    between atoms: O_34  and  C_35
REMARK   18  A    between atoms: C_35  and  C_36
REMARK   19  A    between atoms: C_36  and  O_37
REMARK                            x       y       z     vdW  Elec       q    Type
REMARK                         _______ _______ _______ _____ _____    ______ ____
ROOT
ATOM      1  C   UNL     1      -6.543  -6.051  -0.003  0.00  0.00    +0.076 C 
ATOM      2  C   UNL     1      -7.695  -6.757  -0.083  0.00  0.00    +0.249 C 
ATOM      3  C   UNL     1      -7.378  -8.200  -0.134  0.00  0.00    +0.288 C 
ATOM      4  O   UNL     1      -8.199  -9.092  -0.208  0.00  0.00    -0.266 OA
ATOM      5  N   UNL     1      -6.045  -8.379  -0.087  0.00  0.00    -0.281 N 
ATOM      6  C   UNL     1      -5.415  -7.056  -0.008  0.00  0.00    +0.145 C 
ATOM      7  O   UNL     1      -8.940  -6.227  -0.110  0.00  0.00    -0.282 OA
ENDROOT
BRANCH   6   8
ATOM      8  C   UNL     1      -4.614  -6.942   1.263  0.00  0.00    -0.019 A 
ATOM      9  C   UNL     1      -5.049  -7.576   2.413  0.00  0.00    +0.006 A 
ATOM     10  C   UNL     1      -4.317  -7.473   3.581  0.00  0.00    +0.004 A 
ATOM     11  C   UNL     1      -3.148  -6.736   3.602  0.00  0.00    +0.045 A 
ATOM     12  C   UNL     1      -2.710  -6.099   2.451  0.00  0.00    +0.121 A 
ATOM     13  C   UNL     1      -3.444  -6.209   1.278  0.00  0.00    +0.051 A 
BRANCH  12  14
ATOM     14  O   UNL     1      -1.561  -5.373   2.469  0.00  0.00    -0.492 OA
BRANCH  14  15
ATOM     15  C   UNL     1      -0.855  -5.309   3.710  0.00  0.00    +0.229 C 
BRANCH  15  16
ATOM     16  C   UNL     1       0.403  -4.455   3.537  0.00  0.00    +0.044 C 
BRANCH  16  17
ATOM     17  C   UNL     1       1.159  -4.386   4.865  0.00  0.00    -0.014 C 
ATOM     18  C   UNL     1       1.666  -5.781   5.236  0.00  0.00    +0.007 C 
ATOM     19  C   UNL     1       2.348  -3.432   4.726  0.00  0.00    +0.007 C 
ENDBRANCH  16  17
ENDBRANCH  15  16
ENDBRANCH  14  15
ENDBRANCH  12  14
ENDBRANCH   6   8
BRANCH   1  20
ATOM     20  C   UNL     1      -6.415  -4.592   0.067  0.00  0.00    +0.195 C 
ATOM     21  O   UNL     1      -6.811  -3.993   1.050  0.00  0.00    -0.287 OA
BRANCH  20  25
ATOM     22  C   UNL     1      -4.659  -2.456  -3.157  0.00  0.00    +0.121 A 
ATOM     23  C   UNL     1      -5.185  -1.764  -2.071  0.00  0.00    +0.046 A 
ATOM     24  C   UNL     1      -5.755  -2.453  -1.024  0.00  0.00    +0.015 A 
ATOM     25  C   UNL     1      -5.805  -3.850  -1.054  0.00  0.00    +0.022 A 
ATOM     26  C   UNL     1      -5.276  -4.542  -2.147  0.00  0.00    +0.015 A 
ATOM     27  C   UNL     1      -4.712  -3.845  -3.192  0.00  0.00    +0.046 A 
BRANCH  22  28
ATOM     28  O   UNL     1      -4.098  -1.774  -4.187  0.00  0.00    -0.492 OA
BRANCH  28  29
ATOM     29  C   UNL     1      -4.077  -0.349  -4.085  0.00  0.00    +0.229 C 
BRANCH  29  31
ATOM     30  C   UNL     1      -3.388   1.767  -5.222  0.00  0.00    +0.007 C 
ATOM     31  C   UNL     1      -3.411   0.241  -5.330  0.00  0.00    +0.038 C 
ENDBRANCH  29  31
ENDBRANCH  28  29
ENDBRANCH  22  28
ENDBRANCH  20  25
ENDBRANCH   1  20
BRANCH   5  32
ATOM     32  C   UNL     1      -5.347  -9.666  -0.116  0.00  0.00    +0.137 C 
BRANCH  32  33
ATOM     33  C   UNL     1      -5.044 -10.050  -1.565  0.00  0.00    +0.179 C 
BRANCH  33  34
ATOM     34  O   UNL     1      -4.125  -9.109  -2.125  0.00  0.00    -0.376 OA
BRANCH  34  35
ATOM     35  C   UNL     1      -3.774  -9.377  -3.484  0.00  0.00    +0.187 C 
BRANCH  35  36
ATOM     36  C   UNL     1      -2.791  -8.313  -3.976  0.00  0.00    +0.184 C 
BRANCH  36  37
ATOM     37  O   UNL     1      -1.570  -8.416  -3.242  0.00  0.00    -0.393 OA
ATOM     38  H   UNL     1      -0.899  -7.770  -3.502  0.00  0.00    +0.209 HD
ENDBRANCH  36  37
ENDBRANCH  35  36
ENDBRANCH  34  35
ENDBRANCH  33  34
ENDBRANCH  32  33
ENDBRANCH   5  32
TORSDOF 16
