REMARK  Name = ZINC39851766
REMARK  15 active torsions:
REMARK  status: ('A' for Active; 'I' for Inactive)
REMARK    1  A    between atoms: C_1  and  C_2
REMARK    2  A    between atoms: C_2  and  C_3
REMARK    3  A    between atoms: C_3  and  C_4
REMARK    4  A    between atoms: C_4  and  N_5
REMARK    5  A    between atoms: C_6  and  N_26
REMARK    6  A    between atoms: C_7  and  C_15
REMARK    7  A    between atoms: C_8  and  C_14
REMARK    8  A    between atoms: C_9  and  C_12
REMARK    9  A    between atoms: N_19  and  C_23
REMARK   10  A    between atoms: C_23  and  C_24
REMARK   11  A    between atoms: C_24  and  C_25
REMARK   12  A    between atoms: N_26  and  C_27
REMARK   13  A    between atoms: C_27  and  C_28
REMARK   14  A    between atoms: C_31  and  O_34
REMARK   15  A    between atoms: O_34  and  C_35
REMARK                            x       y       z     vdW  Elec       q    Type
REMARK                         _______ _______ _______ _____ _____    ______ ____
ROOT
ATOM      1  N   UNL     1       1.328  -2.600  -2.406  0.00  0.00    -0.295 N 
ATOM      2  C   UNL     1       0.656  -2.678  -3.583  0.00  0.00    +0.109 A 
ATOM      3  C   UNL     1       1.181  -3.416  -4.657  0.00  0.00    +0.019 A 
ATOM      4  C   UNL     1       2.412  -4.075  -4.506  0.00  0.00    -0.017 A 
ATOM      5  C   UNL     1       3.082  -3.980  -3.290  0.00  0.00    +0.120 A 
ATOM      6  C   UNL     1       2.511  -3.219  -2.238  0.00  0.00    +0.270 A 
ATOM      7  O   UNL     1       3.095  -3.127  -1.173  0.00  0.00    -0.266 OA
ATOM      8  C   UNL     1       2.997  -4.874  -5.642  0.00  0.00    +0.046 C 
ENDROOT
BRANCH   3   9
ATOM      9  C   UNL     1       0.450  -3.496  -5.924  0.00  0.00    +0.032 C 
ATOM     10  C   UNL     1       0.967  -2.924  -7.045  0.00  0.00    +0.077 C 
ATOM     11  C   UNL     1       2.193  -2.212  -7.219  0.00  0.00    +0.258 C 
ATOM     12  O   UNL     1       2.956  -2.038  -6.286  0.00  0.00    -0.269 OA
ATOM     13  N   UNL     1       2.474  -1.746  -8.424  0.00  0.00    -0.255 N 
ATOM     14  C   UNL     1       1.627  -1.939  -9.459  0.00  0.00    +0.121 C 
ATOM     15  S   UNL     1       1.788  -1.429 -11.086  0.00  0.00    -0.027 S 
ATOM     16  S   UNL     1       0.301  -2.865  -8.703  0.00  0.00    -0.061 S 
BRANCH  13  17
ATOM     17  C   UNL     1       3.723  -1.011  -8.639  0.00  0.00    +0.115 C 
BRANCH  17  18
ATOM     18  C   UNL     1       4.830  -1.990  -9.035  0.00  0.00    +0.016 C 
ATOM     19  C   UNL     1       6.134  -1.222  -9.260  0.00  0.00    +0.005 C 
ENDBRANCH  17  18
ENDBRANCH  13  17
ENDBRANCH   3   9
BRANCH   5  20
ATOM     20  C   UNL     1       4.338  -4.641  -3.103  0.00  0.00    +0.105 C 
ATOM     21  N   UNL     1       5.335  -5.165  -2.955  0.00  0.00    -0.191 NA
ENDBRANCH   5  20
BRANCH   2  22
ATOM     22  N   UNL     1      -0.539  -2.035  -3.724  0.00  0.00    -0.326 N 
ATOM     23  H   UNL     1      -0.559  -1.095  -3.963  0.00  0.00    +0.148 HD
BRANCH  22  24
ATOM     24  C   UNL     1      -1.792  -2.764  -3.514  0.00  0.00    +0.138 C 
BRANCH  24  25
ATOM     25  C   UNL     1      -2.957  -1.868  -3.847  0.00  0.00    -0.030 A 
ATOM     26  C   UNL     1      -3.518  -1.072  -2.865  0.00  0.00    +0.009 A 
ATOM     27  C   UNL     1      -4.586  -0.249  -3.168  0.00  0.00    +0.046 A 
ATOM     28  C   UNL     1      -5.095  -0.222  -4.458  0.00  0.00    +0.120 A 
ATOM     29  C   UNL     1      -4.530  -1.021  -5.441  0.00  0.00    +0.046 A 
ATOM     30  C   UNL     1      -3.459  -1.838  -5.135  0.00  0.00    +0.009 A 
BRANCH  28  31
ATOM     31  O   UNL     1      -6.146   0.586  -4.758  0.00  0.00    -0.495 OA
ATOM     32  C   UNL     1      -6.618   0.562  -6.107  0.00  0.00    +0.277 C 
ENDBRANCH  28  31
ENDBRANCH  24  25
ENDBRANCH  22  24
ENDBRANCH   2  22
BRANCH   1  33
ATOM     33  C   UNL     1       0.758  -1.825  -1.302  0.00  0.00    +0.126 C 
BRANCH  33  34
ATOM     34  C   UNL     1       1.146  -0.353  -1.458  0.00  0.00    +0.021 C 
BRANCH  34  36
ATOM     35  C   UNL     1       0.839   1.947  -0.533  0.00  0.00    +0.004 C 
ATOM     36  C   UNL     1       0.451   0.476  -0.377  0.00  0.00    -0.002 C 
ENDBRANCH  34  36
ENDBRANCH  33  34
ENDBRANCH   1  33
TORSDOF 11
