REMARK  Name = ZINC44790491
REMARK  7 active torsions:
REMARK  status: ('A' for Active; 'I' for Inactive)
REMARK    1  A    between atoms: C_1  and  C_2
REMARK    2  A    between atoms: C_7  and  C_9
REMARK    3  A    between atoms: C_7  and  C_10
REMARK    4  A    between atoms: C_13  and  C_15
REMARK    5  A    between atoms: C_15  and  N_22
REMARK    6  A    between atoms: C_16  and  C_17
REMARK    7  A    between atoms: C_23  and  C_25
REMARK                            x       y       z     vdW  Elec       q    Type
REMARK                         _______ _______ _______ _____ _____    ______ ____
ROOT
ATOM      1  C   UNL     1      -3.702  -2.438  -0.412  0.00  0.00    +0.100 C 
ATOM      2  C   UNL     1      -4.660  -2.053  -1.296  0.00  0.00    +0.074 C 
ENDROOT
BRANCH   1  14
ATOM      3  C   UNL     1      -0.711   2.075  -0.512  0.00  0.00    +0.013 C 
ATOM      4  C   UNL     1      -0.441   0.573  -0.326  0.00  0.00    -0.014 C 
ATOM      5  C   UNL     1       0.241  -0.062  -1.569  0.00  0.00    +0.030 C 
ATOM      6  C   UNL     1      -0.070  -1.556  -1.298  0.00  0.00    +0.077 C 
ATOM      7  C   UNL     1       0.872  -2.020  -0.190  0.00  0.00    +0.029 C 
ATOM      8  C   UNL     1       0.789  -1.186   1.076  0.00  0.00    -0.033 C 
ATOM      9  C   UNL     1       0.447   0.279   0.881  0.00  0.00    +0.014 C 
ATOM     10  C   UNL     1      -0.196  -1.832   2.061  0.00  0.00    +0.011 C 
ATOM     11  C   UNL     1       2.182  -1.245   1.752  0.00  0.00    +0.011 C 
ATOM     12  N   UNL     1      -1.457  -1.568  -0.792  0.00  0.00    -0.293 N 
ATOM     13  C   UNL     1      -1.745  -0.248  -0.211  0.00  0.00    +0.115 C 
ATOM     14  C   UNL     1      -2.317  -2.605  -0.860  0.00  0.00    +0.261 C 
ATOM     15  O   UNL     1      -1.942  -3.679  -1.292  0.00  0.00    -0.269 OA
ENDBRANCH   1  14
BRANCH   2  16
ATOM     16  C   UNL     1      -4.302  -1.700  -2.620  0.00  0.00    +0.130 A 
ATOM     17  C   UNL     1      -5.150  -1.197  -3.584  0.00  0.00    +0.049 A 
ATOM     18  C   UNL     1      -4.370  -0.994  -4.735  0.00  0.00    +0.042 A 
ATOM     19  C   UNL     1      -3.109  -1.371  -4.434  0.00  0.00    +0.195 A 
ATOM     20  O   UNL     1      -3.069  -1.790  -3.160  0.00  0.00    -0.463 OA
ENDBRANCH   2  16
BRANCH   1  21
ATOM     21  N   UNL     1      -4.038  -2.676   0.926  0.00  0.00    -0.277 N 
ATOM     22  C   UNL     1      -3.797  -3.881   1.478  0.00  0.00    +0.248 C 
ATOM     23  O   UNL     1      -3.205  -4.733   0.843  0.00  0.00    -0.270 OA
ATOM     24  H   UNL     1      -4.445  -1.973   1.456  0.00  0.00    +0.155 HD
BRANCH  22  25
ATOM     25  C   UNL     1      -4.251  -4.168   2.855  0.00  0.00    +0.037 A 
ATOM     26  C   UNL     1      -4.936  -3.195   3.584  0.00  0.00    +0.013 A 
ATOM     27  C   UNL     1      -5.357  -3.469   4.869  0.00  0.00    +0.001 A 
ATOM     28  C   UNL     1      -5.103  -4.706   5.434  0.00  0.00    +0.000 A 
ATOM     29  C   UNL     1      -4.425  -5.675   4.717  0.00  0.00    +0.001 A 
ATOM     30  C   UNL     1      -4.003  -5.416   3.429  0.00  0.00    +0.013 A 
ENDBRANCH  22  25
ENDBRANCH   1  21
TORSDOF 4
