REMARK  Name = ZINC35911724
REMARK  12 active torsions:
REMARK  status: ('A' for Active; 'I' for Inactive)
REMARK    1  A    between atoms: C_1  and  C_2
REMARK    2  A    between atoms: C_2  and  C_3
REMARK    3  A    between atoms: C_3  and  C_5
REMARK    4  A    between atoms: C_3  and  N_6
REMARK    5  A    between atoms: C_7  and  C_9
REMARK    6  A    between atoms: C_9  and  C_10
REMARK    7  A    between atoms: C_17  and  C_21
REMARK    8  A    between atoms: C_18  and  C_20
REMARK    9  A    between atoms: C_23  and  C_34
REMARK   10  A    between atoms: N_24  and  C_26
REMARK   11  A    between atoms: C_29  and  C_33
REMARK   12  A    between atoms: C_31  and  C_32
REMARK                            x       y       z     vdW  Elec       q    Type
REMARK                         _______ _______ _______ _____ _____    ______ ____
ROOT
ATOM      1  C   UNL     1      -6.861   0.539  -4.167  0.00  0.00    +0.044 A 
ATOM      2  C   UNL     1      -7.581   1.659  -4.151  0.00  0.00    +0.071 A 
ATOM      3  S   UNL     1      -9.220   1.036  -3.810  0.00  0.00    -0.057 S 
ATOM      4  C   UNL     1      -8.796  -0.691  -3.717  0.00  0.00    +0.180 A 
ATOM      5  N   UNL     1      -7.448  -0.686  -3.954  0.00  0.00    -0.258 N 
ATOM      6  C   UNL     1      -6.821  -1.900  -3.951  0.00  0.00    +0.268 A 
ATOM      7  O   UNL     1      -5.620  -1.970  -4.151  0.00  0.00    -0.266 OA
ATOM      8  C   UNL     1      -7.565  -3.070  -3.716  0.00  0.00    +0.088 A 
ATOM      9  C   UNL     1      -8.934  -2.975  -3.489  0.00  0.00    +0.055 A 
ATOM     10  N   UNL     1      -9.500  -1.774  -3.492  0.00  0.00    -0.227 NA
ATOM     11  C   UNL     1      -9.758  -4.212  -3.235  0.00  0.00    +0.066 C 
ENDROOT
BRANCH   8  12
ATOM     12  C   UNL     1      -6.897  -4.393  -3.710  0.00  0.00    +0.100 A 
ATOM     13  C   UNL     1      -5.522  -4.626  -3.920  0.00  0.00    +0.053 A 
ATOM     14  C   UNL     1      -5.311  -5.958  -3.836  0.00  0.00    +0.042 A 
ATOM     15  N   UNL     1      -6.505  -6.555  -3.583  0.00  0.00    -0.236 N 
ATOM     16  N   UNL     1      -7.482  -5.554  -3.503  0.00  0.00    -0.166 NA
ATOM     17  C   UNL     1      -3.986  -6.657  -3.997  0.00  0.00    +0.066 C 
BRANCH  15  18
ATOM     18  C   UNL     1      -6.720  -7.930  -3.425  0.00  0.00    +0.069 A 
ATOM     19  C   UNL     1      -6.238  -8.823  -4.373  0.00  0.00    +0.028 A 
ATOM     20  C   UNL     1      -6.452 -10.178  -4.215  0.00  0.00    +0.005 A 
ATOM     21  C   UNL     1      -7.146 -10.646  -3.114  0.00  0.00    -0.050 A 
ATOM     22  C   UNL     1      -7.627  -9.759  -2.168  0.00  0.00    +0.008 A 
ATOM     23  C   UNL     1      -7.411  -8.403  -2.318  0.00  0.00    -0.025 A 
ATOM     24  C   UNL     1      -7.930  -7.438  -1.283  0.00  0.00    +0.046 C 
ATOM     25  C   UNL     1      -7.378 -12.126  -2.944  0.00  0.00    +0.044 C 
ENDBRANCH  15  18
ENDBRANCH   8  12
BRANCH   1  26
ATOM     26  C   UNL     1      -5.378   0.615  -4.429  0.00  0.00    +0.150 C 
BRANCH  26  28
ATOM     27  N   UNL     1      -3.292   0.711  -3.104  0.00  0.00    -0.312 N 
ATOM     28  C   UNL     1      -4.638   0.643  -3.117  0.00  0.00    +0.219 C 
ATOM     29  O   UNL     1      -5.253   0.606  -2.072  0.00  0.00    -0.275 OA
ATOM     30  H   UNL     1      -2.800   0.741  -3.940  0.00  0.00    +0.149 HD
BRANCH  27  31
ATOM     31  C   UNL     1      -2.571   0.739  -1.829  0.00  0.00    +0.070 C 
ATOM     32  C   UNL     1      -2.358  -0.693  -1.332  0.00  0.00    +0.028 C 
BRANCH  31  34
ATOM     33  C   UNL     1      -1.428   2.886  -2.401  0.00  0.00    +0.005 C 
ATOM     34  C   UNL     1      -1.214   1.418  -2.024  0.00  0.00    +0.018 C 
ENDBRANCH  31  34
ENDBRANCH  27  31
ENDBRANCH  26  28
ENDBRANCH   1  26
TORSDOF 6
