REMARK  Name = ZINC11847314
REMARK  12 active torsions:
REMARK  status: ('A' for Active; 'I' for Inactive)
REMARK    1  A    between atoms: C_1  and  C_2
REMARK    2  A    between atoms: C_6  and  C_38
REMARK    3  A    between atoms: C_8  and  O_11
REMARK    4  A    between atoms: O_11  and  C_12
REMARK    5  A    between atoms: C_12  and  C_13
REMARK    6  A    between atoms: C_13  and  C_15
REMARK    7  A    between atoms: C_13  and  O_37
REMARK    8  A    between atoms: C_15  and  N_79
REMARK    9  A    between atoms: C_18  and  C_21
REMARK   10  A    between atoms: C_21  and  N_22
REMARK   11  A    between atoms: C_38  and  C_39
REMARK   12  A    between atoms: C_38  and  C_40
REMARK                            x       y       z     vdW  Elec       q    Type
REMARK                         _______ _______ _______ _____ _____    ______ ____
ROOT
ATOM      1  C   UNL     1      -4.199  -5.050  -2.840  0.00  0.00    -0.078 C 
ATOM      2  C   UNL     1      -3.979  -6.557  -2.694  0.00  0.00    -0.014 C 
ATOM      3  C   UNL     1      -5.313  -7.284  -2.883  0.00  0.00    +0.003 C 
ATOM      4  C   UNL     1      -6.322  -6.759  -1.857  0.00  0.00    -0.014 C 
ATOM      5  C   UNL     1      -6.474  -5.245  -2.027  0.00  0.00    -0.078 C 
ATOM      6  N   UNL     1      -5.160  -4.603  -1.809  0.00  0.00    +0.381 N 
ATOM      7  H   UNL     1      -4.807  -4.875  -0.884  0.00  0.00    -0.082 HD
ENDROOT
BRANCH   6   8
ATOM      8  C   UNL     1      -5.303  -3.134  -1.855  0.00  0.00    -0.045 C 
BRANCH   8   9
ATOM      9  C   UNL     1      -3.986  -2.496  -1.408  0.00  0.00    +0.124 C 
BRANCH   9  10
ATOM     10  O   UNL     1      -3.673  -2.929  -0.083  0.00  0.00    -0.391 OA
ATOM     11  H   UNL     1      -4.341  -2.695   0.576  0.00  0.00    +0.210 HD
ENDBRANCH   9  10
BRANCH   9  12
ATOM     12  C   UNL     1      -4.124  -0.973  -1.427  0.00  0.00    +0.189 C 
BRANCH  12  13
ATOM     13  O   UNL     1      -2.862  -0.376  -1.123  0.00  0.00    -0.374 OA
BRANCH  13  19
ATOM     14  C   UNL     1      -2.143  -0.480   1.269  0.00  0.00    +0.007 C 
ATOM     15  C   UNL     1      -2.164   1.050   1.278  0.00  0.00    -0.012 C 
ATOM     16  C   UNL     1      -0.789   1.581   0.867  0.00  0.00    +0.004 C 
ATOM     17  C   UNL     1      -0.450   1.083  -0.540  0.00  0.00    +0.006 C 
ATOM     18  C   UNL     1      -1.507   1.584  -1.527  0.00  0.00    +0.020 C 
ATOM     19  C   UNL     1      -2.881   1.053  -1.116  0.00  0.00    +0.122 C 
ATOM     20  C   UNL     1      -3.221   1.551   0.291  0.00  0.00    +0.035 C 
BRANCH  18  21
ATOM     21  C   UNL     1      -1.168   1.086  -2.933  0.00  0.00    -0.012 C 
ATOM     22  C   UNL     1      -2.224   1.587  -3.920  0.00  0.00    +0.007 C 
ATOM     23  C   UNL     1       0.207   1.617  -3.345  0.00  0.00    +0.007 C 
ENDBRANCH  18  21
ENDBRANCH  13  19
ENDBRANCH  12  13
ENDBRANCH   9  12
ENDBRANCH   8   9
ENDBRANCH   6   8
BRANCH   3  24
ATOM     24  C   UNL     1      -5.111  -8.786  -2.679  0.00  0.00    +0.120 C 
BRANCH  24  25
ATOM     25  N   UNL     1      -4.239  -9.310  -3.734  0.00  0.00    -0.234 N 
ATOM     26  C   UNL     1      -4.800  -9.765  -4.870  0.00  0.00    +0.254 C 
ATOM     27  O   UNL     1      -6.008  -9.736  -5.003  0.00  0.00    -0.270 OA
ATOM     28  C   UNL     1      -3.958 -10.294  -5.954  0.00  0.00    +0.046 A 
ATOM     29  C   UNL     1      -4.492 -10.768  -7.143  0.00  0.00    +0.014 A 
ATOM     30  C   UNL     1      -3.654 -11.262  -8.136  0.00  0.00    +0.001 A 
ATOM     31  C   UNL     1      -2.299 -11.297  -7.978  0.00  0.00    +0.008 A 
ATOM     32  C   UNL     1      -1.717 -10.826  -6.788  0.00  0.00    -0.016 A 
ATOM     33  C   UNL     1      -2.556 -10.322  -5.772  0.00  0.00    +0.006 A 
ATOM     34  C   UNL     1      -2.002  -9.840  -4.564  0.00  0.00    +0.046 A 
ATOM     35  C   UNL     1      -0.626  -9.872  -4.395  0.00  0.00    +0.014 A 
ATOM     36  C   UNL     1       0.190 -10.371  -5.403  0.00  0.00    +0.001 A 
ATOM     37  C   UNL     1      -0.328 -10.840  -6.577  0.00  0.00    +0.008 A 
ATOM     38  C   UNL     1      -2.909  -9.322  -3.529  0.00  0.00    +0.254 C 
ATOM     39  O   UNL     1      -2.454  -8.903  -2.481  0.00  0.00    -0.270 OA
ENDBRANCH  24  25
ENDBRANCH   3  24
TORSDOF 9
