REMARK  Name = ZINC63374899
REMARK  8 active torsions:
REMARK  status: ('A' for Active; 'I' for Inactive)
REMARK    1  A    between atoms: C_1  and  C_2
REMARK    2  A    between atoms: C_2  and  C_3
REMARK    3  A    between atoms: C_6  and  C_9
REMARK    4  A    between atoms: N_15  and  C_30
REMARK    5  A    between atoms: C_18  and  C_29
REMARK    6  A    between atoms: C_33  and  C_36
REMARK    7  A    between atoms: C_36  and  C_37
REMARK    8  A    between atoms: C_36  and  C_38
REMARK                            x       y       z     vdW  Elec       q    Type
REMARK                         _______ _______ _______ _____ _____    ______ ____
ROOT
ATOM      1  C   UNL     1       2.682  -1.907  -4.439  0.00  0.00    +0.065 C 
ATOM      2  C   UNL     1       3.623  -0.835  -5.023  0.00  0.00    +0.123 C 
ATOM      3  N   UNL     1       4.951  -1.436  -5.176  0.00  0.00    -0.268 N 
ATOM      4  C   UNL     1       5.689  -1.539  -6.290  0.00  0.00    +0.317 C 
ATOM      5  O   UNL     1       5.411  -0.992  -7.340  0.00  0.00    -0.252 OA
ATOM      6  N   UNL     1       6.767  -2.314  -6.114  0.00  0.00    -0.192 N 
ATOM      7  C   UNL     1       6.878  -2.728  -4.834  0.00  0.00    +0.253 C 
ATOM      8  O   UNL     1       7.725  -3.462  -4.372  0.00  0.00    -0.272 OA
ATOM      9  C   UNL     1       5.726  -2.083  -4.096  0.00  0.00    +0.137 C 
ATOM     10  C   UNL     1       4.834  -3.143  -3.453  0.00  0.00    +0.139 C 
ATOM     11  C   UNL     1       3.512  -3.146  -4.213  0.00  0.00    -0.027 C 
ATOM     12  C   UNL     1       3.309  -4.402  -4.602  0.00  0.00    -0.000 A 
ATOM     13  C   UNL     1       2.176  -5.041  -5.289  0.00  0.00    +0.010 A 
ATOM     14  C   UNL     1       2.309  -6.367  -5.558  0.00  0.00    +0.001 A 
ATOM     15  C   UNL     1       3.442  -7.111  -5.215  0.00  0.00    +0.002 A 
ATOM     16  C   UNL     1       4.526  -6.607  -4.573  0.00  0.00    +0.026 A 
ATOM     17  C   UNL     1       4.501  -5.224  -4.231  0.00  0.00    +0.043 A 
ATOM     18  N   UNL     1       5.390  -4.489  -3.591  0.00  0.00    -0.375 N 
ATOM     19  C   UNL     1       6.223  -1.059  -3.075  0.00  0.00    +0.044 C 
ATOM     20  H   UNL     1       6.257  -4.781  -3.269  0.00  0.00    +0.160 HD
ENDROOT
BRANCH   1  24
ATOM     21  C   UNL     1       1.045  -0.547  -0.735  0.00  0.00    -0.048 A 
ATOM     22  C   UNL     1       2.404  -0.774  -0.849  0.00  0.00    +0.004 A 
ATOM     23  C   UNL     1       2.934  -1.214  -2.048  0.00  0.00    +0.004 A 
ATOM     24  C   UNL     1       2.104  -1.428  -3.132  0.00  0.00    -0.039 A 
ATOM     25  C   UNL     1       0.745  -1.203  -3.018  0.00  0.00    +0.004 A 
ATOM     26  C   UNL     1       0.215  -0.767  -1.819  0.00  0.00    +0.004 A 
BRANCH  21  28
ATOM     27  C   UNL     1       0.086  -1.272   1.433  0.00  0.00    +0.009 C 
ATOM     28  C   UNL     1       0.468  -0.067   0.571  0.00  0.00    +0.032 C 
ENDBRANCH  21  28
ENDBRANCH   1  24
BRANCH   6  29
ATOM     29  C   UNL     1       7.669  -2.654  -7.132  0.00  0.00    +0.045 A 
ATOM     30  C   UNL     1       7.541  -2.086  -8.392  0.00  0.00    +0.024 A 
ATOM     31  C   UNL     1       8.430  -2.422  -9.394  0.00  0.00    +0.006 A 
ATOM     32  C   UNL     1       9.448  -3.324  -9.143  0.00  0.00    -0.045 A 
ATOM     33  C   UNL     1       9.578  -3.892  -7.888  0.00  0.00    +0.006 A 
ATOM     34  C   UNL     1       8.695  -3.555  -6.881  0.00  0.00    +0.024 A 
BRANCH  32  35
ATOM     35  C   UNL     1      10.416  -3.690 -10.238  0.00  0.00    +0.013 C 
ATOM     36  C   UNL     1      11.836  -3.317  -9.808  0.00  0.00    +0.012 C 
ATOM     37  C   UNL     1      10.342  -5.195 -10.502  0.00  0.00    +0.012 C 
ENDBRANCH  32  35
ENDBRANCH   6  29
TORSDOF 4
