REMARK  Name = ZINC17043330
REMARK  9 active torsions:
REMARK  status: ('A' for Active; 'I' for Inactive)
REMARK    1  A    between atoms: C_1  and  C_2
REMARK    2  A    between atoms: N_9  and  CA_10
REMARK    3  A    between atoms: CA_10  and  CB_12
REMARK    4  A    between atoms: CA_10  and  C_19
REMARK    5  A    between atoms: CB_12  and  CG_13
REMARK    6  A    between atoms: C_23  and  C_25
REMARK    7  A    between atoms: C_28  and  O_33
REMARK    8  A    between atoms: C_29  and  O_31
REMARK    9  A    between atoms: O_31  and  C_32
REMARK                            x       y       z     vdW  Elec       q    Type
REMARK                         _______ _______ _______ _____ _____    ______ ____
ROOT
ATOM      1  C   UNK A   0      -0.116   1.498   0.009  0.00  0.00    +0.044 C 
ATOM      2  C   UNK A   0      -0.063  -0.008   0.001  0.00  0.00    -0.050 A 
ATOM      3  C   UNK A   0      -0.050  -0.692  -1.204  0.00  0.00    +0.007 A 
ATOM      4  C   UNK A   0      -0.001  -2.071  -1.229  0.00  0.00    +0.047 A 
ATOM      5  C   UNK A   0       0.035  -2.784  -0.038  0.00  0.00    +0.138 A 
ATOM      6  C   UNK A   0       0.022  -2.091   1.179  0.00  0.00    +0.041 A 
ATOM      7  C   UNK A   0      -0.022  -0.700   1.194  0.00  0.00    +0.017 A 
ATOM      8  C   UNK A   0       0.061  -2.873   2.437  0.00  0.00    +0.050 A 
ATOM      9  N   HIS A   1       0.051  -2.282   3.611  0.00  0.00    -0.371 N 
ATOM     10  C   UNK A   0       0.111  -4.291   2.321  0.00  0.00    +0.072 A 
ATOM     11  C   UNK A   0       0.119  -4.859   1.090  0.00  0.00    +0.138 A 
ATOM     12  O   UNK A   0       0.083  -4.135  -0.042  0.00  0.00    -0.455 OA
ATOM     13  H   HIS A   1       0.106  -1.315   3.668  0.00  0.00    +0.160 HD
ENDROOT
BRANCH  11  14
ATOM     14  C   UNK A   0       0.171  -6.330   0.988  0.00  0.00    +0.021 A 
ATOM     15  C   UNK A   0       0.203  -7.111   2.146  0.00  0.00    +0.015 A 
ATOM     16  C   UNK A   0       0.251  -8.485   2.049  0.00  0.00    +0.050 A 
ATOM     17  C   UNK A   0       0.267  -9.096   0.803  0.00  0.00    +0.158 A 
ATOM     18  C   UNK A   0       0.235  -8.323  -0.356  0.00  0.00    +0.162 A 
ATOM     19  C   UNK A   0       0.181  -6.946  -0.266  0.00  0.00    +0.061 A 
BRANCH  18  20
ATOM     20  O   UNK A   0       0.251  -8.925  -1.575  0.00  0.00    -0.491 OA
ATOM     21  C   UNK A   0       0.216  -8.072  -2.721  0.00  0.00    +0.277 C 
ENDBRANCH  18  20
BRANCH  17  22
ATOM     22  O   UNK A   0       0.314 -10.451   0.713  0.00  0.00    -0.503 OA
ATOM     23  H   UNK A   0      -0.555 -10.875   0.691  0.00  0.00    +0.292 HD
ENDBRANCH  17  22
ENDBRANCH  11  14
BRANCH   9  24
ATOM     24  CA  HIS A   1      -0.042  -3.083   4.834  0.00  0.00    +0.199 C 
BRANCH  24  25
ATOM     25  C   HIS A   1       1.115  -2.753   5.741  0.00  0.00    +0.378 C 
ATOM     26  O   HIS A   1       1.606  -1.637   5.721  0.00  0.00    -0.244 OA
ATOM     27  OXT HIS A   1       1.560  -3.601   6.495  0.00  0.00    -0.244 OA
ENDBRANCH  24  25
BRANCH  24  28
ATOM     28  CB  HIS A   1      -1.358  -2.770   5.550  0.00  0.00    +0.090 C 
BRANCH  28  29
ATOM     29  CG  HIS A   1      -2.515  -3.214   4.692  0.00  0.00    +0.036 A 
ATOM     30  CD2 HIS A   1      -3.082  -2.503   3.699  0.00  0.00    +0.105 A 
ATOM     31  NE2 HIS A   1      -4.091  -3.274   3.187  0.00  0.00    -0.352 N 
ATOM     32  HE2 HIS A   1      -4.685  -3.035   2.458  0.00  0.00    +0.166 HD
ATOM     33  CE1 HIS A   1      -4.104  -4.430   3.885  0.00  0.00    +0.171 A 
ATOM     34  ND1 HIS A   1      -3.156  -4.389   4.780  0.00  0.00    -0.350 N 
ATOM     35  HD1 HIS A   1      -2.948  -5.096   5.412  0.00  0.00    +0.166 HD
ENDBRANCH  28  29
ENDBRANCH  24  28
ENDBRANCH   9  24
TORSDOF 7
