REMARK  Name = ZINC28814087
REMARK  5 active torsions:
REMARK  status: ('A' for Active; 'I' for Inactive)
REMARK    1  A    between atoms: C_1  and  C_2
REMARK    2  A    between atoms: C_10  and  C_11
REMARK    3  A    between atoms: N_13  and  N_14
REMARK    4  A    between atoms: C_15  and  C_17
REMARK    5  A    between atoms: C_22  and  O_23
REMARK                            x       y       z     vdW  Elec       q    Type
REMARK                         _______ _______ _______ _____ _____    ______ ____
ROOT
ATOM      1  C   UNL     1      -0.075  -0.613  -6.038  0.00  0.00    +0.296 C 
ATOM      2  O   UNL     1      -0.059  -1.829  -6.038  0.00  0.00    -0.265 OA
ATOM      3  N   UNL     1      -0.068   0.062  -4.872  0.00  0.00    -0.228 N 
ATOM      4  H   UNL     1      -0.082   1.161  -4.872  0.00  0.00    +0.173 HD
ENDROOT
BRANCH   1  14
ATOM      5  C   UNL     1      -0.085  -1.923  -8.859  0.00  0.00    +0.048 C 
ATOM      6  C   UNL     1      -0.107  -0.450  -8.543  0.00  0.00    +0.008 A 
ATOM      7  C   UNL     1      -0.141   0.654  -9.502  0.00  0.00    +0.024 A 
ATOM      8  C   UNL     1      -0.163   0.733 -10.896  0.00  0.00    +0.012 A 
ATOM      9  C   UNL     1      -0.188   1.955 -11.506  0.00  0.00    +0.001 A 
ATOM     10  C   UNL     1      -0.192   3.119 -10.748  0.00  0.00    +0.004 A 
ATOM     11  C   UNL     1      -0.171   3.063  -9.371  0.00  0.00    +0.047 A 
ATOM     12  C   UNL     1      -0.145   1.830  -8.729  0.00  0.00    +0.136 A 
ATOM     13  O   UNL     1      -0.122   1.466  -7.432  0.00  0.00    -0.450 OA
ATOM     14  C   UNL     1      -0.103   0.122  -7.311  0.00  0.00    +0.195 A 
ENDBRANCH   1  14
BRANCH   3  15
ATOM     15  N   UNL     1      -0.041  -0.638  -3.658  0.00  0.00    -0.230 N 
ATOM     16  C   UNL     1      -0.034   0.036  -2.491  0.00  0.00    +0.264 C 
ATOM     17  O   UNL     1      -0.050   1.252  -2.491  0.00  0.00    -0.269 OA
ATOM     18  H   UNL     1      -0.026  -1.738  -3.658  0.00  0.00    +0.173 HD
BRANCH  16  19
ATOM     19  C   UNL     1      -0.006  -0.701  -1.214  0.00  0.00    +0.081 A 
ATOM     20  C   UNL     1       0.018  -2.098  -1.209  0.00  0.00    +0.032 A 
ATOM     21  C   UNL     1       0.039  -2.781  -0.011  0.00  0.00    +0.019 A 
ATOM     22  C   UNL     1       0.041  -2.087   1.189  0.00  0.00    +0.019 A 
ATOM     23  C   UNL     1       0.023  -0.707   1.198  0.00  0.00    +0.047 A 
ATOM     24  C   UNL     1       0.002  -0.004   0.002  0.00  0.00    +0.129 A 
ATOM     25 BR   UNL     1       0.065  -4.672  -0.006  0.00  0.00    -0.050 Br
BRANCH  24  26
ATOM     26  O   UNL     1      -0.016   1.353   0.009  0.00  0.00    -0.506 OA
ATOM     27  H   UNL     1      -0.010   1.897   0.965  0.00  0.00    +0.292 HD
ENDBRANCH  24  26
ENDBRANCH  16  19
ENDBRANCH   3  15
TORSDOF 4
