REMARK  Name = ZINC26283823
REMARK  7 active torsions:
REMARK  status: ('A' for Active; 'I' for Inactive)
REMARK    1  A    between atoms: C_1  and  C_2
REMARK    2  A    between atoms: C_2  and  C_4
REMARK    3  A    between atoms: C_2  and  N_12
REMARK    4  A    between atoms: N_15  and  C_16
REMARK    5  A    between atoms: N_19  and  C_22
REMARK    6  A    between atoms: C_22  and  C_23
REMARK    7  A    between atoms: N_25  and  C_26
REMARK                            x       y       z     vdW  Elec       q    Type
REMARK                         _______ _______ _______ _____ _____    ______ ____
ROOT
ATOM      1  C   UNL     1      -1.388   1.941  -0.115  0.00  0.00    +0.071 C 
ATOM      2  C   UNL     1      -1.709   2.320  -1.563  0.00  0.00    +0.004 C 
ATOM      3  C   UNL     1      -3.018   3.114  -1.600  0.00  0.00    -0.076 C 
ATOM      4  N   UNL     1      -2.881   4.322  -0.777  0.00  0.00    +0.386 N 
ATOM      5  C   UNL     1      -2.620   3.982   0.627  0.00  0.00    -0.076 C 
ATOM      6  C   UNL     1      -1.300   3.215   0.730  0.00  0.00    +0.004 C 
ATOM      7  H   UNL     1      -2.015   4.887  -1.152  0.00  0.00    -0.081 HD
ENDROOT
BRANCH   1  11
ATOM      8  N   UNL     1       1.114  -0.750  -0.243  0.00  0.00    -0.293 N 
ATOM      9  C   UNL     1      -0.065  -0.099  -0.281  0.00  0.00    +0.300 C 
ATOM     10  O   UNL     1      -1.091  -0.710  -0.510  0.00  0.00    -0.253 OA
ATOM     11  N   UNL     1      -0.107   1.231  -0.067  0.00  0.00    -0.297 N 
ATOM     12  H   UNL     1       2.042  -0.197  -0.037  0.00  0.00    +0.151 HD
ATOM     13  H   UNL     1       0.820   1.784   0.144  0.00  0.00    +0.151 HD
BRANCH   8  15
ATOM     14  C   UNL     1       1.225  -2.468  -1.980  0.00  0.00    +0.033 C 
ATOM     15  C   UNL     1       1.160  -2.196  -0.476  0.00  0.00    +0.102 C 
BRANCH  15  16
ATOM     16  C   UNL     1       2.380  -2.774   0.193  0.00  0.00    -0.025 A 
ATOM     17  C   UNL     1       2.299  -3.991   0.844  0.00  0.00    +0.008 A 
ATOM     18  C   UNL     1       3.417  -4.524   1.457  0.00  0.00    +0.041 A 
ATOM     19  C   UNL     1       4.619  -3.839   1.421  0.00  0.00    +0.158 A 
ATOM     20  C   UNL     1       4.700  -2.618   0.769  0.00  0.00    +0.159 A 
ATOM     21  C   UNL     1       3.580  -2.090   0.151  0.00  0.00    +0.046 A 
ATOM     22  F   UNL     1       5.872  -1.947   0.732  0.00  0.00    -0.202 F 
ATOM     23  F   UNL     1       5.713  -4.359   2.021  0.00  0.00    -0.202 F 
ENDBRANCH  15  16
ENDBRANCH   8  15
ENDBRANCH   1  11
BRANCH   4  24
ATOM     24  C   UNL     1      -4.069   5.178  -0.899  0.00  0.00    +0.019 C 
BRANCH  24  25
ATOM     25  C   UNL     1      -3.789   6.518  -0.267  0.00  0.00    +0.201 C 
ATOM     26  O   UNL     1      -2.674   6.780   0.131  0.00  0.00    -0.278 OA
ATOM     27  N   UNL     1      -4.779   7.424  -0.144  0.00  0.00    -0.287 N 
ATOM     28  H   UNL     1      -5.806   7.160  -0.435  0.00  0.00    +0.155 HD
BRANCH  27  29
ATOM     29  C   UNL     1      -4.500   8.702   0.354  0.00  0.00    +0.033 A 
ATOM     30  C   UNL     1      -3.544   8.867   1.348  0.00  0.00    +0.023 A 
ATOM     31  C   UNL     1      -3.266  10.130   1.833  0.00  0.00    +0.002 A 
ATOM     32  C   UNL     1      -3.947  11.228   1.339  0.00  0.00    +0.000 A 
ATOM     33  C   UNL     1      -4.903  11.065   0.353  0.00  0.00    +0.002 A 
ATOM     34  C   UNL     1      -5.181   9.806  -0.140  0.00  0.00    +0.023 A 
ENDBRANCH  27  29
ENDBRANCH  24  25
ENDBRANCH   4  24
TORSDOF 6
