REMARK  Name = ZINC54426865
REMARK  4 active torsions:
REMARK  status: ('A' for Active; 'I' for Inactive)
REMARK    1  A    between atoms: N_9  and  C_21
REMARK    2  A    between atoms: C_10  and  C_13
REMARK    3  A    between atoms: C_15  and  N_18
REMARK    4  A    between atoms: C_21  and  C_22
REMARK                            x       y       z     vdW  Elec       q    Type
REMARK                         _______ _______ _______ _____ _____    ______ ____
ROOT
ATOM      1  C   UNL     1      -0.017   1.375   0.010  0.00  0.00    +0.001 A 
ATOM      2  C   UNL     1       1.168   2.095   0.002  0.00  0.00    +0.002 A 
ATOM      3  C   UNL     1       2.386   1.444  -0.012  0.00  0.00    +0.024 A 
ATOM      4  C   UNL     1       2.422   0.060  -0.018  0.00  0.00    +0.041 A 
ATOM      5  C   UNL     1       1.223  -0.674  -0.014  0.00  0.00    +0.058 A 
ATOM      6  C   UNL     1       0.002  -0.004   0.002  0.00  0.00    +0.015 A 
ATOM      7  C   UNL     1       1.301  -2.146  -0.031  0.00  0.00    +0.250 C 
ATOM      8  O   UNL     1       0.313  -2.811  -0.278  0.00  0.00    -0.270 OA
ATOM      9  N   UNL     1       2.480  -2.747   0.230  0.00  0.00    -0.272 N 
ATOM     10  C   UNL     1       3.660  -1.968   0.607  0.00  0.00    +0.193 C 
ATOM     11  N   UNL     1       3.621  -0.645  -0.027  0.00  0.00    -0.321 N 
ATOM     12  H   UNL     1       4.413  -0.271  -0.443  0.00  0.00    +0.148 HD
ENDROOT
BRANCH  10  13
ATOM     13  C   UNL     1       3.689  -1.800   2.104  0.00  0.00    -0.000 A 
ATOM     14  C   UNL     1       4.257  -0.675   2.673  0.00  0.00    +0.047 A 
ATOM     15  C   UNL     1       4.267  -0.554   4.023  0.00  0.00    +0.164 A 
ATOM     16  S   UNL     1       3.455  -2.059   4.534  0.00  0.00    -0.073 S 
ATOM     17  C   UNL     1       3.153  -2.746   2.914  0.00  0.00    +0.054 A 
BRANCH  15  18
ATOM     18  N   UNL     1       4.809   0.542   4.857  0.00  0.00    +0.063 N 
ATOM     19  O   UNL     1       5.333   1.498   4.333  0.00  0.00    -0.126 OA
ATOM     20  O   UNL     1       4.729   0.482   6.061  0.00  0.00    -0.126 OA
ENDBRANCH  15  18
ENDBRANCH  10  13
BRANCH   9  21
ATOM     21  C   UNL     1       2.581  -4.205   0.135  0.00  0.00    +0.141 C 
BRANCH  21  22
ATOM     22  C   UNL     1       2.983  -4.596  -1.288  0.00  0.00    +0.136 C 
ATOM     23  C   UNL     1       2.974  -6.134  -1.431  0.00  0.00    +0.035 C 
ATOM     24  C   UNL     1       4.223  -6.389  -2.319  0.00  0.00    +0.031 C 
ATOM     25  C   UNL     1       5.170  -5.268  -1.824  0.00  0.00    +0.160 C 
ATOM     26  O   UNL     1       4.314  -4.142  -1.560  0.00  0.00    -0.375 OA
ENDBRANCH  21  22
ENDBRANCH   9  21
TORSDOF 4
