REMARK  Name = ZINC43867340
REMARK  6 active torsions:
REMARK  status: ('A' for Active; 'I' for Inactive)
REMARK    1  A    between atoms: C_1  and  C_2
REMARK    2  A    between atoms: C_5  and  O_38
REMARK    3  A    between atoms: C_18  and  C_37
REMARK    4  A    between atoms: C_23  and  C_24
REMARK    5  A    between atoms: C_28  and  O_30
REMARK    6  A    between atoms: O_30  and  C_31
REMARK                            x       y       z     vdW  Elec       q    Type
REMARK                         _______ _______ _______ _____ _____    ______ ____
ROOT
ATOM      1  C   UNL     1      -1.126   2.642   0.485  0.00  0.00    +0.012 C 
ATOM      2  C   UNL     1      -0.795   1.153   0.334  0.00  0.00    -0.026 C 
ATOM      3  C   UNL     1      -0.035   0.934  -0.972  0.00  0.00    +0.010 C 
ATOM      4  C   UNL     1       1.296   1.688  -0.943  0.00  0.00    +0.032 C 
ATOM      5  C   UNL     1       2.139   1.247   0.253  0.00  0.00    +0.115 C 
ATOM      6  C   UNL     1       1.369   1.476   1.556  0.00  0.00    +0.035 C 
ATOM      7  C   UNL     1       0.066   0.680   1.505  0.00  0.00    -0.002 C 
ATOM      8  C   UNL     1      -0.686   0.765   2.827  0.00  0.00    +0.004 C 
ATOM      9  C   UNL     1      -1.943  -0.119   2.775  0.00  0.00    +0.004 C 
ATOM     10  C   UNL     1      -2.026  -0.737   1.387  0.00  0.00    -0.003 C 
ATOM     11  C   UNL     1      -2.112   0.379   0.341  0.00  0.00    -0.001 C 
ATOM     12  C   UNL     1      -2.486  -0.203  -1.012  0.00  0.00    +0.005 C 
ATOM     13  C   UNL     1      -3.920  -0.758  -0.992  0.00  0.00    +0.015 C 
ATOM     14  C   UNL     1      -4.318  -1.171   0.400  0.00  0.00    +0.034 C 
ATOM     15  C   UNL     1      -3.114  -1.738   1.181  0.00  0.00    +0.010 C 
ATOM     16  C   UNL     1      -3.847  -2.294   2.411  0.00  0.00    +0.043 C 
ATOM     17  C   UNL     1      -5.058  -2.959   1.749  0.00  0.00    -0.004 C 
ATOM     18  C   UNL     1      -5.790  -3.969   2.279  0.00  0.00    +0.015 C 
ATOM     19  C   UNL     1      -5.283  -2.337   0.490  0.00  0.00    +0.165 C 
ATOM     20  O   UNL     1      -6.083  -2.660  -0.358  0.00  0.00    -0.292 OA
ATOM     21  C   UNL     1      -4.997  -0.009   1.131  0.00  0.00    +0.020 C 
ENDROOT
BRANCH  18  22
ATOM     22  C   UNL     1      -5.538  -4.415   3.655  0.00  0.00    -0.018 A 
ATOM     23  C   UNL     1      -4.942  -3.545   4.576  0.00  0.00    +0.057 A 
ATOM     24  C   UNL     1      -4.706  -3.966   5.870  0.00  0.00    +0.170 A 
ATOM     25  C   UNL     1      -5.061  -5.258   6.260  0.00  0.00    +0.208 A 
ATOM     26  C   UNL     1      -5.654  -6.125   5.345  0.00  0.00    +0.166 A 
ATOM     27  C   UNL     1      -5.898  -5.709   4.051  0.00  0.00    +0.057 A 
ATOM     28  O   UNL     1      -4.726  -5.424   7.572  0.00  0.00    -0.449 OA
ATOM     29  C   UNL     1      -3.794  -4.368   7.868  0.00  0.00    +0.467 C 
ATOM     30  O   UNL     1      -4.149  -3.326   6.941  0.00  0.00    -0.452 OA
BRANCH  26  31
ATOM     31  O   UNL     1      -5.998  -7.384   5.728  0.00  0.00    -0.491 OA
ATOM     32  C   UNL     1      -6.602  -8.221   4.740  0.00  0.00    +0.277 C 
ENDBRANCH  26  31
ENDBRANCH  18  22
BRANCH   5  33
ATOM     33  O   UNL     1       3.354   1.999   0.282  0.00  0.00    -0.392 OA
ATOM     34  H   UNL     1       3.901   1.893  -0.508  0.00  0.00    +0.210 HD
ENDBRANCH   5  33
TORSDOF 3
