REMARK  Name = ZINC13477399
REMARK  6 active torsions:
REMARK  status: ('A' for Active; 'I' for Inactive)
REMARK    1  A    between atoms: C_3  and  O_11
REMARK    2  A    between atoms: C_6  and  N_7
REMARK    3  A    between atoms: O_11  and  C_12
REMARK    4  A    between atoms: C_12  and  C_13
REMARK    5  A    between atoms: N_15  and  N_16
REMARK    6  A    between atoms: N_16  and  C_17
REMARK                            x       y       z     vdW  Elec       q    Type
REMARK                         _______ _______ _______ _____ _____    ______ ____
ROOT
ATOM      1  C   UNL     1       4.833   4.143   0.188  0.00  0.00    +0.267 C 
ATOM      2  O   UNL     1       5.769   3.407  -0.040  0.00  0.00    -0.271 OA
ATOM      3  N   UNL     1       5.015   5.478   0.212  0.00  0.00    -0.234 N 
ATOM      4  H   UNL     1       4.266   6.067   0.394  0.00  0.00    +0.173 HD
ENDROOT
BRANCH   3   5
ATOM      5  N   UNL     1       6.287   6.016  -0.028  0.00  0.00    -0.259 N 
ATOM      6  H   UNL     1       7.052   5.428  -0.124  0.00  0.00    +0.170 HD
BRANCH   5   7
ATOM      7  C   UNL     1       6.445   7.338  -0.124  0.00  0.00    +0.116 C 
ATOM      8  C   UNL     1       5.434   8.330  -0.125  0.00  0.00    +0.025 A 
ATOM      9  C   UNL     1       4.038   8.275  -0.035  0.00  0.00    +0.027 A 
ATOM     10  C   UNL     1       3.303   9.446  -0.066  0.00  0.00    +0.019 A 
ATOM     11  C   UNL     1       3.943  10.669  -0.185  0.00  0.00    +0.017 A 
ATOM     12  C   UNL     1       5.324  10.744  -0.276  0.00  0.00    +0.025 A 
ATOM     13  C   UNL     1       6.090   9.582  -0.247  0.00  0.00    +0.043 A 
ATOM     14  N   UNL     1       7.438   9.384  -0.317  0.00  0.00    -0.280 N 
ATOM     15  C   UNL     1       7.737   8.099  -0.247  0.00  0.00    +0.264 C 
ATOM     16  O   UNL     1       8.855   7.618  -0.278  0.00  0.00    -0.268 OA
ATOM     17 BR   UNL     1       1.417   9.377   0.055  0.00  0.00    -0.050 Br
ATOM     18  H   UNL     1       8.093  10.094  -0.404  0.00  0.00    +0.155 HD
ENDBRANCH   5   7
ENDBRANCH   3   5
BRANCH   1  19
ATOM     19  C   UNL     1       3.465   3.565   0.446  0.00  0.00    +0.326 C 
BRANCH  19  20
ATOM     20  O   UNL     1       3.528   2.139   0.367  0.00  0.00    -0.482 OA
BRANCH  20  23
ATOM     21  C   UNL     1       0.024   1.452   1.064  0.00  0.00    +0.036 A 
ATOM     22  C   UNL     1       1.199   2.147   0.852  0.00  0.00    +0.049 A 
ATOM     23  C   UNL     1       2.371   1.458   0.577  0.00  0.00    +0.135 A 
ATOM     24  C   UNL     1       2.360   0.071   0.515  0.00  0.00    +0.062 A 
ATOM     25  C   UNL     1       1.181  -0.619   0.728  0.00  0.00    +0.051 A 
ATOM     26  C   UNL     1       0.015   0.071   1.002  0.00  0.00    +0.127 A 
ATOM     27 BR   UNL     1       3.955  -0.873   0.140  0.00  0.00    -0.046 Br
BRANCH  26  28
ATOM     28  N   UNL     1      -1.246  -0.670   1.230  0.00  0.00    +0.056 N 
ATOM     29  O   UNL     1      -2.266  -0.068   1.470  0.00  0.00    -0.126 OA
ATOM     30  O   UNL     1      -1.255  -1.878   1.176  0.00  0.00    -0.126 OA
ENDBRANCH  26  28
ENDBRANCH  20  23
ENDBRANCH  19  20
ENDBRANCH   1  19
TORSDOF 6
