REMARK  Name = ZINC35544700
REMARK  10 active torsions:
REMARK  status: ('A' for Active; 'I' for Inactive)
REMARK    1  A    between atoms: C_1  and  C_2
REMARK    2  A    between atoms: C_2  and  C_3
REMARK    3  A    between atoms: C_2  and  N_4
REMARK    4  A    between atoms: C_5  and  C_7
REMARK    5  A    between atoms: C_7  and  N_8
REMARK    6  A    between atoms: C_15  and  N_35
REMARK    7  A    between atoms: C_19  and  C_24
REMARK    8  A    between atoms: N_26  and  C_27
REMARK    9  A    between atoms: N_26  and  C_28
REMARK   10  A    between atoms: C_28  and  C_29
REMARK                            x       y       z     vdW  Elec       q    Type
REMARK                         _______ _______ _______ _____ _____    ______ ____
ROOT
ATOM      1  N   UNL     1      -4.127  -2.686  -0.255  0.00  0.00    +0.388 N 
ATOM      2  C   UNL     1      -3.467  -2.508  -1.557  0.00  0.00    -0.059 C 
ATOM      3  C   UNL     1      -2.838  -3.838  -1.966  0.00  0.00    +0.087 C 
ATOM      4  N   UNL     1      -3.830  -4.915  -1.908  0.00  0.00    -0.329 N 
ATOM      5  C   UNL     1      -3.691  -5.971  -2.822  0.00  0.00    +0.033 A 
ATOM      6  C   UNL     1      -2.605  -5.962  -3.692  0.00  0.00    +0.025 A 
ATOM      7  C   UNL     1      -2.439  -6.989  -4.599  0.00  0.00    +0.034 A 
ATOM      8  C   UNL     1      -3.352  -8.027  -4.643  0.00  0.00    +0.127 A 
ATOM      9  C   UNL     1      -4.433  -8.037  -3.782  0.00  0.00    +0.038 A 
ATOM     10  C   UNL     1      -4.605  -7.009  -2.872  0.00  0.00    -0.023 A 
ATOM     11  C   UNL     1      -5.797  -7.034  -1.951  0.00  0.00    +0.051 C 
ATOM     12  C   UNL     1      -6.147  -5.606  -1.532  0.00  0.00    +0.098 C 
ATOM     13  C   UNL     1      -4.908  -4.933  -0.931  0.00  0.00    +0.069 C 
ATOM     14  C   UNL     1      -5.294  -3.550  -0.430  0.00  0.00    -0.055 C 
ATOM     15  H   UNL     1      -3.485  -3.114   0.395  0.00  0.00    -0.081 HD
ENDROOT
BRANCH  12  16
ATOM     16  C   UNL     1      -6.607  -4.828  -2.738  0.00  0.00    +0.221 C 
ATOM     17  O   UNL     1      -5.936  -3.909  -3.159  0.00  0.00    -0.275 OA
ATOM     18  N   UNL     1      -7.764  -5.153  -3.348  0.00  0.00    -0.300 N 
ATOM     19  C   UNL     1      -8.642  -6.168  -2.761  0.00  0.00    +0.132 C 
BRANCH  18  20
ATOM     20  C   UNL     1      -8.143  -4.491  -4.599  0.00  0.00    +0.142 C 
BRANCH  20  21
ATOM     21  C   UNL     1      -7.600  -5.274  -5.766  0.00  0.00    -0.030 A 
ATOM     22  C   UNL     1      -6.341  -4.992  -6.262  0.00  0.00    +0.005 A 
ATOM     23  C   UNL     1      -5.843  -5.710  -7.333  0.00  0.00    +0.000 A 
ATOM     24  C   UNL     1      -6.603  -6.711  -7.908  0.00  0.00    +0.000 A 
ATOM     25  C   UNL     1      -7.862  -6.994  -7.411  0.00  0.00    +0.000 A 
ATOM     26  C   UNL     1      -8.358  -6.279  -6.338  0.00  0.00    +0.005 A 
ENDBRANCH  20  21
ENDBRANCH  18  20
ENDBRANCH  12  16
BRANCH   8  27
ATOM     27  N   UNL     1      -3.171  -9.130  -5.614  0.00  0.00    +0.056 N 
ATOM     28  O   UNL     1      -2.225  -9.122  -6.368  0.00  0.00    -0.126 OA
ATOM     29  O   UNL     1      -3.968 -10.037  -5.654  0.00  0.00    -0.126 OA
ENDBRANCH   8  27
BRANCH   1  30
ATOM     30  C   UNL     1      -4.555  -1.380   0.263  0.00  0.00    +0.019 C 
BRANCH  30  32
ATOM     31  N   UNL     1      -3.494   0.712   1.046  0.00  0.00    -0.315 N 
ATOM     32  C   UNL     1      -3.343  -0.535   0.558  0.00  0.00    +0.197 C 
ATOM     33  O   UNL     1      -2.232  -0.977   0.357  0.00  0.00    -0.278 OA
ATOM     34  H   UNL     1      -4.382   1.066   1.206  0.00  0.00    +0.149 HD
BRANCH  31  36
ATOM     35  C   UNL     1      -2.696   3.014   1.263  0.00  0.00    +0.027 C 
ATOM     36  C   UNL     1      -2.315   1.534   1.333  0.00  0.00    +0.067 C 
ATOM     37  C   UNL     1      -1.795   1.207   2.734  0.00  0.00    +0.027 C 
ENDBRANCH  31  36
ENDBRANCH  30  32
ENDBRANCH   1  30
TORSDOF 7
