REMARK  Name = ZINC01449295
REMARK  10 active torsions:
REMARK  status: ('A' for Active; 'I' for Inactive)
REMARK    1  A    between atoms: C_1  and  C_2
REMARK    2  A    between atoms: C_3  and  C_26
REMARK    3  A    between atoms: C_4  and  C_13
REMARK    4  A    between atoms: C_5  and  C_9
REMARK    5  A    between atoms: C_6  and  C_8
REMARK    6  A    between atoms: C_9  and  O_11
REMARK    7  A    between atoms: O_11  and  C_12
REMARK    8  A    between atoms: C_16  and  C_18
REMARK    9  A    between atoms: C_26  and  O_28
REMARK   10  A    between atoms: O_28  and  C_29
REMARK                            x       y       z     vdW  Elec       q    Type
REMARK                         _______ _______ _______ _____ _____    ______ ____
ROOT
ATOM      1  C   UNL     1       0.118   1.482   0.355  0.00  0.00    +0.061 C 
ATOM      2  C   UNL     1       0.069  -0.013   0.170  0.00  0.00    +0.016 C 
ATOM      3  C   UNL     1      -1.121  -0.639   0.137  0.00  0.00    +0.068 C 
ATOM      4  C   UNL     1      -1.218  -2.126  -0.054  0.00  0.00    +0.132 C 
ATOM      5  C   UNL     1       0.110  -2.783   0.199  0.00  0.00    +0.068 C 
ATOM      6  C   UNL     1       1.249  -2.071   0.230  0.00  0.00    +0.016 C 
ATOM      7  N   UNL     1       1.234  -0.715   0.033  0.00  0.00    -0.321 N 
ATOM      8  C   UNL     1       2.559  -2.773   0.480  0.00  0.00    +0.061 C 
ATOM      9  H   UNL     1       2.053  -0.251  -0.201  0.00  0.00    +0.152 HD
ENDROOT
BRANCH   4  10
ATOM     10  C   UNL     1      -1.654  -2.417  -1.467  0.00  0.00    +0.118 A 
ATOM     11  C   UNL     1      -2.773  -3.076  -1.823  0.00  0.00    +0.046 A 
ATOM     12  C   UNL     1      -2.793  -3.125  -3.232  0.00  0.00    +0.050 A 
ATOM     13  C   UNL     1      -1.673  -2.486  -3.662  0.00  0.00    +0.137 A 
ATOM     14  O   UNL     1      -0.995  -2.056  -2.580  0.00  0.00    -0.459 OA
BRANCH  13  15
ATOM     15  C   UNL     1      -1.272  -2.291  -5.071  0.00  0.00    +0.037 A 
ATOM     16  C   UNL     1      -1.260  -3.373  -5.952  0.00  0.00    +0.033 A 
ATOM     17  C   UNL     1      -0.885  -3.184  -7.267  0.00  0.00    +0.042 A 
ATOM     18  C   UNL     1      -0.521  -1.924  -7.712  0.00  0.00    +0.021 A 
ATOM     19  C   UNL     1      -0.531  -0.847  -6.844  0.00  0.00    +0.022 A 
ATOM     20  C   UNL     1      -0.910  -1.022  -5.528  0.00  0.00    +0.052 A 
ATOM     21 CL   UNL     1      -0.928   0.332  -4.441  0.00  0.00    -0.083 Cl
ATOM     22 CL   UNL     1      -0.869  -4.529  -8.365  0.00  0.00    -0.084 Cl
ENDBRANCH  13  15
ENDBRANCH   4  10
BRANCH   5  23
ATOM     23  C   UNL     1       0.161  -4.180   0.409  0.00  0.00    +0.337 C 
ATOM     24  O   UNL     1      -0.220  -4.651   1.464  0.00  0.00    -0.245 OA
BRANCH  23  25
ATOM     25  O   UNL     1       0.632  -4.991  -0.561  0.00  0.00    -0.465 OA
ATOM     26  C   UNL     1       0.655  -6.392  -0.281  0.00  0.00    +0.280 C 
ENDBRANCH  23  25
ENDBRANCH   5  23
BRANCH   3  27
ATOM     27  C   UNL     1      -2.305   0.119   0.285  0.00  0.00    +0.337 C 
ATOM     28  O   UNL     1      -2.242   1.324   0.441  0.00  0.00    -0.245 OA
BRANCH  27  29
ATOM     29  O   UNL     1      -3.507  -0.495   0.254  0.00  0.00    -0.465 OA
ATOM     30  C   UNL     1      -4.662   0.332   0.410  0.00  0.00    +0.280 C 
ENDBRANCH  27  29
ENDBRANCH   3  27
TORSDOF 6
