REMARK  Name = ZINC08770105
REMARK  13 active torsions:
REMARK  status: ('A' for Active; 'I' for Inactive)
REMARK    1  A    between atoms: C_1  and  C_2
REMARK    2  A    between atoms: C_2  and  C_3
REMARK    3  A    between atoms: C_2  and  C_4
REMARK    4  A    between atoms: C_7  and  C_10
REMARK    5  A    between atoms: N_11  and  N_12
REMARK    6  A    between atoms: C_15  and  C_18
REMARK    7  A    between atoms: C_18  and  S_19
REMARK    8  A    between atoms: S_19  and  C_20
REMARK    9  A    between atoms: N_22  and  N_23
REMARK   10  A    between atoms: C_24  and  C_25
REMARK   11  A    between atoms: C_28  and  C_31
REMARK   12  A    between atoms: C_31  and  C_32
REMARK   13  A    between atoms: C_31  and  C_33
REMARK                            x       y       z     vdW  Elec       q    Type
REMARK                         _______ _______ _______ _____ _____    ______ ____
ROOT
ATOM      1  C   UNL     1      -4.761   9.523   8.220  0.00  0.00    +0.133 C 
ENDROOT
BRANCH   1   5
ATOM      2  N   UNL     1      -3.305   6.779   4.431  0.00  0.00    -0.215 N 
ATOM      3  C   UNL     1      -3.377   7.928   5.203  0.00  0.00    +0.178 A 
ATOM      4  N   UNL     1      -4.045   8.134   6.322  0.00  0.00    -0.228 NA
ATOM      5  C   UNL     1      -4.001   9.300   6.938  0.00  0.00    +0.061 A 
ATOM      6  C   UNL     1      -3.261  10.293   6.389  0.00  0.00    +0.072 A 
ATOM      7  S   UNL     1      -2.619   9.468   4.940  0.00  0.00    -0.059 S 
ATOM      8  H   UNL     1      -3.851   5.875   4.738  0.00  0.00    +0.176 HD
BRANCH   2  10
ATOM      9  C   UNL     1      -2.467   5.693   2.538  0.00  0.00    +0.138 C 
ATOM     10  N   UNL     1      -2.535   6.769   3.260  0.00  0.00    -0.188 NA
BRANCH   9  14
ATOM     11  C   UNL     1      -0.138   5.662  -1.010  0.00  0.00    -0.045 A 
ATOM     12  C   UNL     1      -0.204   6.810  -0.239  0.00  0.00    +0.004 A 
ATOM     13  C   UNL     1      -0.963   6.829   0.912  0.00  0.00    +0.010 A 
ATOM     14  C   UNL     1      -1.658   5.682   1.305  0.00  0.00    -0.005 A 
ATOM     15  C   UNL     1      -1.583   4.526   0.525  0.00  0.00    +0.010 A 
ATOM     16  C   UNL     1      -0.824   4.523  -0.627  0.00  0.00    +0.004 A 
BRANCH  11  18
ATOM     17  C   UNL     1       2.148   5.958  -1.924  0.00  0.00    +0.012 C 
ATOM     18  C   UNL     1       0.689   5.651  -2.269  0.00  0.00    +0.013 C 
ATOM     19  C   UNL     1       0.160   6.712  -3.236  0.00  0.00    +0.012 C 
ENDBRANCH  11  18
ENDBRANCH   9  14
ENDBRANCH   2  10
ENDBRANCH   1   5
BRANCH   1  20
ATOM     20  S   UNL     1      -6.424  10.128   7.837  0.00  0.00    -0.085 S 
BRANCH  20  21
ATOM     21  C   UNL     1      -7.070  10.298   9.468  0.00  0.00    +0.145 C 
ATOM     22  N   UNL     1      -6.329   9.997  10.498  0.00  0.00    -0.380 N 
ATOM     23  N   UNL     1      -8.358  10.750   9.654  0.00  0.00    -0.217 N 
ATOM     24  H   UNL     1      -6.732  10.103  11.516  0.00  0.00    +0.158 HD
ATOM     25  H   UNL     1      -8.983  11.004   8.785  0.00  0.00    +0.176 HD
ATOM     26  H   UNL     1      -5.300   9.637  10.349  0.00  0.00    +0.158 HD
BRANCH  23  27
ATOM     27  N   UNL     1      -8.872  10.885  10.950  0.00  0.00    -0.188 NA
ATOM     28  C   UNL     1     -10.120  11.196  11.124  0.00  0.00    +0.138 C 
BRANCH  28  29
ATOM     29  C   UNL     1     -11.098  10.948  10.049  0.00  0.00    -0.005 A 
ATOM     30  C   UNL     1     -12.371  11.521  10.113  0.00  0.00    +0.010 A 
ATOM     31  C   UNL     1     -13.279  11.289   9.101  0.00  0.00    +0.004 A 
ATOM     32  C   UNL     1     -12.936  10.482   8.030  0.00  0.00    -0.045 A 
ATOM     33  C   UNL     1     -11.679   9.909   7.963  0.00  0.00    +0.004 A 
ATOM     34  C   UNL     1     -10.759  10.136   8.965  0.00  0.00    +0.010 A 
BRANCH  32  35
ATOM     35  C   UNL     1     -13.936  10.229   6.932  0.00  0.00    +0.013 C 
ATOM     36  C   UNL     1     -15.179   9.557   7.519  0.00  0.00    +0.012 C 
ATOM     37  C   UNL     1     -14.332  11.558   6.286  0.00  0.00    +0.012 C 
ENDBRANCH  32  35
ENDBRANCH  28  29
ENDBRANCH  23  27
ENDBRANCH  20  21
ENDBRANCH   1  20
TORSDOF 9
