REMARK  Name = ZINC39921228
REMARK  5 active torsions:
REMARK  status: ('A' for Active; 'I' for Inactive)
REMARK    1  A    between atoms: C_4  and  O_7
REMARK    2  A    between atoms: O_7  and  C_8
REMARK    3  A    between atoms: C_12  and  C_14
REMARK    4  A    between atoms: C_29  and  N_33
REMARK    5  A    between atoms: C_30  and  C_31
REMARK                            x       y       z     vdW  Elec       q    Type
REMARK                         _______ _______ _______ _____ _____    ______ ____
ROOT
ATOM      1  C   UNL     1       6.303  -4.682   0.145  0.00  0.00    +0.084 C 
ATOM      2  C   UNL     1       6.482  -5.576  -1.087  0.00  0.00    +0.154 C 
ATOM      3  C   UNL     1       7.634  -6.506  -0.746  0.00  0.00    +0.129 C 
ATOM      4  C   UNL     1       8.753  -6.485  -1.565  0.00  0.00    +0.035 A 
ATOM      5  C   UNL     1       9.854  -7.332  -1.323  0.00  0.00    +0.013 A 
ATOM      6  C   UNL     1      10.932  -7.287  -2.153  0.00  0.00    +0.001 A 
ATOM      7  C   UNL     1      10.973  -6.419  -3.239  0.00  0.00    +0.002 A 
ATOM      8  C   UNL     1       9.942  -5.574  -3.522  0.00  0.00    +0.024 A 
ATOM      9  C   UNL     1       8.798  -5.564  -2.708  0.00  0.00    +0.044 A 
ATOM     10  N   UNL     1       7.788  -4.728  -2.981  0.00  0.00    -0.284 N 
ATOM     11  C   UNL     1       6.655  -4.664  -2.281  0.00  0.00    +0.229 C 
ATOM     12  O   UNL     1       5.772  -3.882  -2.584  0.00  0.00    -0.275 OA
ATOM     13  O   UNL     1       7.525  -7.288   0.330  0.00  0.00    -0.444 OA
ATOM     14  C   UNL     1       6.968  -6.731   1.431  0.00  0.00    +0.198 C 
ATOM     15  C   UNL     1       6.375  -5.518   1.393  0.00  0.00    +0.095 C 
ATOM     16  H   UNL     1       7.882  -4.134  -3.741  0.00  0.00    +0.155 HD
ENDROOT
BRANCH   1  21
ATOM     17  C   UNL     1       3.657  -1.988  -0.010  0.00  0.00    +0.129 A 
ATOM     18  C   UNL     1       2.495  -2.747  -0.046  0.00  0.00    +0.046 A 
ATOM     19  C   UNL     1       2.571  -4.125  -0.020  0.00  0.00    +0.004 A 
ATOM     20  C   UNL     1       3.803  -4.750   0.042  0.00  0.00    +0.004 A 
ATOM     21  C   UNL     1       4.962  -3.997   0.077  0.00  0.00    -0.035 A 
ATOM     22  C   UNL     1       4.892  -2.618   0.046  0.00  0.00    +0.050 A 
BRANCH  17  23
ATOM     23  O   UNL     1       3.586  -0.632  -0.036  0.00  0.00    -0.456 OA
BRANCH  23  27
ATOM     24  C   UNL     1       3.332   1.363   3.566  0.00  0.00    +0.000 A 
ATOM     25  C   UNL     1       3.414  -0.017   3.546  0.00  0.00    +0.004 A 
ATOM     26  C   UNL     1       3.499  -0.687   2.341  0.00  0.00    +0.046 A 
ATOM     27  C   UNL     1       3.502   0.025   1.150  0.00  0.00    +0.128 A 
ATOM     28  C   UNL     1       3.419   1.410   1.174  0.00  0.00    +0.046 A 
ATOM     29  C   UNL     1       3.335   2.076   2.381  0.00  0.00    +0.004 A 
ENDBRANCH  23  27
ENDBRANCH  17  23
ENDBRANCH   1  21
BRANCH  14  30
ATOM     30  N   UNL     1       7.005  -7.419   2.619  0.00  0.00    -0.328 N 
ATOM     31  H   UNL     1       7.426  -8.291   2.660  0.00  0.00    +0.145 HD
ATOM     32  H   UNL     1       6.610  -7.032   3.416  0.00  0.00    +0.145 HD
ENDBRANCH  14  30
BRANCH  15  33
ATOM     33  C   UNL     1       5.792  -5.005   2.596  0.00  0.00    +0.100 C 
ATOM     34  N   UNL     1       5.329  -4.597   3.550  0.00  0.00    -0.191 NA
ENDBRANCH  15  33
TORSDOF 5
