REMARK  Name = ZINC39898528
REMARK  8 active torsions:
REMARK  status: ('A' for Active; 'I' for Inactive)
REMARK    1  A    between atoms: C_1  and  C_2
REMARK    2  A    between atoms: C_2  and  C_3
REMARK    3  A    between atoms: C_3  and  C_4
REMARK    4  A    between atoms: C_4  and  C_5
REMARK    5  A    between atoms: C_5  and  N_6
REMARK    6  A    between atoms: C_7  and  C_25
REMARK    7  A    between atoms: C_10  and  C_17
REMARK    8  A    between atoms: C_22  and  O_23
REMARK                            x       y       z     vdW  Elec       q    Type
REMARK                         _______ _______ _______ _____ _____    ______ ____
ROOT
ATOM      1  N   UNL     1      -2.828  -4.058   0.007  0.00  0.00    -0.285 N 
ATOM      2  C   UNL     1      -2.822  -4.912  -1.188  0.00  0.00    +0.141 C 
ATOM      3  C   UNL     1      -2.800  -6.330  -0.686  0.00  0.00    +0.035 A 
ATOM      4  C   UNL     1      -2.783  -7.692  -1.003  0.00  0.00    +0.102 A 
ATOM      5  N   UNL     1      -2.769  -8.361   0.134  0.00  0.00    -0.173 NA
ATOM      6  N   UNL     1      -2.776  -7.556   1.136  0.00  0.00    -0.272 N 
ATOM      7  H   UNL     1      -2.767  -7.826   2.067  0.00  0.00    +0.189 HD
ATOM      8  C   UNL     1      -2.795  -6.263   0.694  0.00  0.00    +0.126 A 
ATOM      9  C   UNL     1      -2.807  -4.852   1.093  0.00  0.00    +0.265 C 
ATOM     10  O   UNL     1      -2.800  -4.455   2.243  0.00  0.00    -0.268 OA
ENDROOT
BRANCH   4  11
ATOM     11  C   UNL     1      -2.782  -8.278  -2.366  0.00  0.00    +0.045 A 
ATOM     12  C   UNL     1      -2.793  -7.447  -3.484  0.00  0.00    +0.033 A 
ATOM     13  C   UNL     1      -2.791  -7.997  -4.751  0.00  0.00    +0.042 A 
ATOM     14  C   UNL     1      -2.779  -9.371  -4.914  0.00  0.00    +0.023 A 
ATOM     15  C   UNL     1      -2.768 -10.204  -3.811  0.00  0.00    +0.047 A 
ATOM     16  C   UNL     1      -2.764  -9.665  -2.535  0.00  0.00    +0.126 A 
ATOM     17 CL   UNL     1      -2.805  -6.960  -6.144  0.00  0.00    -0.084 Cl
BRANCH  16  18
ATOM     18  O   UNL     1      -2.747 -10.483  -1.450  0.00  0.00    -0.506 OA
ATOM     19  H   UNL     1      -3.626 -10.732  -1.131  0.00  0.00    +0.292 HD
ENDBRANCH  16  18
ENDBRANCH   4  11
BRANCH   2  20
ATOM     20  C   UNL     1      -1.594  -4.635  -2.017  0.00  0.00    -0.022 A 
ATOM     21  C   UNL     1      -0.376  -4.425  -1.398  0.00  0.00    +0.008 A 
ATOM     22  C   UNL     1       0.750  -4.171  -2.158  0.00  0.00    +0.038 A 
ATOM     23  C   UNL     1       0.658  -4.127  -3.538  0.00  0.00    +0.123 A 
ATOM     24  C   UNL     1      -0.562  -4.337  -4.157  0.00  0.00    +0.038 A 
ATOM     25  C   UNL     1      -1.687  -4.596  -3.396  0.00  0.00    +0.008 A 
ATOM     26  F   UNL     1       1.759  -3.878  -4.282  0.00  0.00    -0.205 F 
ENDBRANCH   2  20
BRANCH   1  27
ATOM     27  C   UNL     1      -2.848  -2.593   0.015  0.00  0.00    +0.109 C 
BRANCH  27  28
ATOM     28  C   UNL     1      -1.413  -2.063   0.004  0.00  0.00    +0.019 C 
BRANCH  28  29
ATOM     29  C   UNL     1      -1.433  -0.534   0.013  0.00  0.00    +0.001 C 
BRANCH  29  31
ATOM     30  C   UNL     1      -0.019   1.526   0.010  0.00  0.00    +0.004 C 
ATOM     31  C   UNL     1       0.002  -0.004   0.002  0.00  0.00    -0.003 C 
ENDBRANCH  29  31
ENDBRANCH  28  29
ENDBRANCH  27  28
ENDBRANCH   1  27
TORSDOF 7
