REMARK  Name = ZINC64202260
REMARK  7 active torsions:
REMARK  status: ('A' for Active; 'I' for Inactive)
REMARK    1  A    between atoms: C_1  and  C_2
REMARK    2  A    between atoms: C_4  and  C_9
REMARK    3  A    between atoms: C_5  and  C_8
REMARK    4  A    between atoms: C_9  and  O_10
REMARK    5  A    between atoms: O_10  and  C_11
REMARK    6  A    between atoms: C_16  and  C_17
REMARK    7  A    between atoms: C_22  and  C_25
REMARK                            x       y       z     vdW  Elec       q    Type
REMARK                         _______ _______ _______ _____ _____    ______ ____
ROOT
ATOM      1  C   UNL     1      -5.469  -2.437   0.141  0.00  0.00    +0.250 C 
ATOM      2  O   UNL     1      -4.569  -2.300   0.947  0.00  0.00    -0.270 OA
ATOM      3  N   UNL     1      -6.463  -3.313   0.383  0.00  0.00    -0.297 N 
ATOM      4  C   UNL     1      -7.504  -3.562  -0.624  0.00  0.00    +0.108 C 
ATOM      5  C   UNL     1      -8.877  -3.350   0.023  0.00  0.00    +0.027 C 
ATOM      6  C   UNL     1      -8.988  -4.228   1.272  0.00  0.00    +0.020 C 
ATOM      7  C   UNL     1      -7.911  -3.822   2.280  0.00  0.00    +0.027 C 
ATOM      8  C   UNL     1      -6.524  -4.043   1.657  0.00  0.00    +0.108 C 
ENDROOT
BRANCH   6   9
ATOM      9  C   UNL     1     -10.350  -4.049   1.892  0.00  0.00    -0.038 C 
ATOM     10  C   UNL     1     -11.282  -5.006   2.098  0.00  0.00    -0.001 A 
ATOM     11  C   UNL     1     -11.307  -6.447   1.815  0.00  0.00    +0.010 A 
ATOM     12  C   UNL     1     -12.409  -7.160   2.142  0.00  0.00    +0.001 A 
ATOM     13  C   UNL     1     -13.524  -6.560   2.742  0.00  0.00    +0.002 A 
ATOM     14  C   UNL     1     -13.576  -5.243   3.032  0.00  0.00    +0.026 A 
ATOM     15  C   UNL     1     -12.473  -4.397   2.732  0.00  0.00    +0.043 A 
ATOM     16  N   UNL     1     -12.284  -3.112   2.912  0.00  0.00    -0.380 N 
ATOM     17  C   UNL     1     -10.948  -2.762   2.416  0.00  0.00    +0.145 C 
ATOM     18  H   UNL     1     -12.919  -2.497   3.309  0.00  0.00    +0.160 HD
ENDBRANCH   6   9
BRANCH   1  24
ATOM     19  C   UNL     1      -5.403  -0.245  -1.047  0.00  0.00    +0.133 A 
ATOM     20  C   UNL     1      -5.401   0.491  -2.223  0.00  0.00    +0.046 A 
ATOM     21  C   UNL     1      -5.472  -0.153  -3.442  0.00  0.00    +0.004 A 
ATOM     22  C   UNL     1      -5.546  -1.535  -3.502  0.00  0.00    +0.001 A 
ATOM     23  C   UNL     1      -5.549  -2.281  -2.344  0.00  0.00    +0.017 A 
ATOM     24  C   UNL     1      -5.472  -1.643  -1.103  0.00  0.00    +0.078 A 
BRANCH  19  25
ATOM     25  O   UNL     1      -5.333   0.387   0.152  0.00  0.00    -0.487 OA
BRANCH  25  26
ATOM     26  C   UNL     1      -5.154   1.804   0.129  0.00  0.00    +0.264 C 
BRANCH  26  29
ATOM     27  C   UNL     1      -2.537   2.080   2.005  0.00  0.00    +0.045 C 
ATOM     28  C   UNL     1      -3.950   1.830   2.536  0.00  0.00    +0.176 C 
ATOM     29  C   UNL     1      -4.978   2.311   1.538  0.00  0.00    +0.019 C 
ATOM     30  C   UNL     1      -5.692   3.251   2.120  0.00  0.00    +0.041 C 
ATOM     31  N   UNL     1      -5.265   3.471   3.417  0.00  0.00    -0.269 N 
ATOM     32  O   UNL     1      -4.182   2.607   3.720  0.00  0.00    -0.267 OA
ATOM     33  C   UNL     1      -6.826   3.991   1.459  0.00  0.00    +0.065 C 
ATOM     34  H   UNL     1      -5.650   4.119   4.028  0.00  0.00    +0.194 HD
ENDBRANCH  26  29
ENDBRANCH  25  26
ENDBRANCH  19  25
ENDBRANCH   1  24
TORSDOF 5
