REMARK  Name = ZINC08790830
REMARK  3 active torsions:
REMARK  status: ('A' for Active; 'I' for Inactive)
REMARK    1  A    between atoms: C_1  and  C_2
REMARK    2  A    between atoms: C_23  and  C_30
REMARK    3  A    between atoms: C_30  and  C_32
REMARK                            x       y       z     vdW  Elec       q    Type
REMARK                         _______ _______ _______ _____ _____    ______ ____
ROOT
ATOM      1  C   UNL     1       5.376   5.372   2.163  0.00  0.00    +0.044 C 
ATOM      2  C   UNL     1       4.018   5.391   1.511  0.00  0.00    -0.049 A 
ATOM      3  C   UNL     1       3.601   4.316   0.745  0.00  0.00    +0.008 A 
ATOM      4  C   UNL     1       2.360   4.335   0.149  0.00  0.00    -0.025 A 
ATOM      5  C   UNL     1       1.512   5.426   0.310  0.00  0.00    +0.054 A 
ATOM      6  C   UNL     1       1.939   6.504   1.083  0.00  0.00    +0.063 A 
ATOM      7  C   UNL     1       3.185   6.482   1.677  0.00  0.00    +0.025 A 
ATOM      8 CL   UNL     1       0.901   7.879   1.299  0.00  0.00    -0.082 Cl
ATOM      9  N   UNL     1       0.318   5.215  -0.383  0.00  0.00    -0.285 N 
ATOM     10  C   UNL     1       0.300   4.029  -1.017  0.00  0.00    +0.212 C 
ATOM     11  O   UNL     1      -0.603   3.583  -1.692  0.00  0.00    -0.277 OA
ATOM     12  C   UNL     1       1.620   3.358  -0.725  0.00  0.00    +0.060 C 
ATOM     13  C   UNL     1       2.387   3.072  -2.012  0.00  0.00    +0.085 C 
ATOM     14  C   UNL     1       1.932   3.930  -3.154  0.00  0.00    -0.011 A 
ATOM     15  C   UNL     1       0.716   4.131  -3.768  0.00  0.00    +0.006 A 
ATOM     16  C   UNL     1       0.611   5.015  -4.827  0.00  0.00    +0.000 A 
ATOM     17  C   UNL     1       1.731   5.697  -5.268  0.00  0.00    +0.002 A 
ATOM     18  C   UNL     1       2.951   5.499  -4.657  0.00  0.00    +0.023 A 
ATOM     19  C   UNL     1       3.066   4.611  -3.590  0.00  0.00    +0.038 A 
ATOM     20  N   UNL     1       4.174   4.248  -2.820  0.00  0.00    -0.285 N 
ATOM     21  C   UNL     1       3.858   3.346  -1.870  0.00  0.00    +0.228 C 
ATOM     22  O   UNL     1       4.613   2.853  -1.059  0.00  0.00    -0.275 OA
ATOM     23  C   UNL     1       2.136   1.567  -2.286  0.00  0.00    +0.066 C 
ATOM     24  C   UNL     1       2.058   1.008  -0.842  0.00  0.00    -0.055 C 
ATOM     25  C   UNL     1      -0.037   1.752  -0.014  0.00  0.00    -0.076 C 
ATOM     26  C   UNL     1      -0.068   0.207   0.070  0.00  0.00    -0.020 C 
ATOM     27  C   UNL     1       1.124  -0.211  -0.821  0.00  0.00    -0.016 C 
ATOM     28  H   UNL     1      -0.415   5.851  -0.405  0.00  0.00    +0.155 HD
ATOM     29  H   UNL     1       5.066   4.604  -2.954  0.00  0.00    +0.155 HD
ATOM     30  N   UNL     1       1.405   2.056  -0.062  0.00  0.00    +0.395 N 
ATOM     31  H   UNL     1       1.790   2.082   0.890  0.00  0.00    -0.079 HD
ENDROOT
BRANCH  23  32
ATOM     32  C   UNL     1       0.831   1.367  -3.013  0.00  0.00    +0.166 C 
ATOM     33  O   UNL     1      -0.192   1.193  -2.386  0.00  0.00    -0.292 OA
BRANCH  32  34
ATOM     34  C   UNL     1       0.799   1.382  -4.484  0.00  0.00    +0.018 A 
ATOM     35  C   UNL     1       1.976   1.587  -5.211  0.00  0.00    +0.011 A 
ATOM     36  C   UNL     1       1.939   1.594  -6.589  0.00  0.00    +0.001 A 
ATOM     37  C   UNL     1       0.739   1.410  -7.254  0.00  0.00    +0.000 A 
ATOM     38  C   UNL     1      -0.431   1.212  -6.542  0.00  0.00    +0.001 A 
ATOM     39  C   UNL     1      -0.410   1.197  -5.163  0.00  0.00    +0.011 A 
ENDBRANCH  32  34
ENDBRANCH  23  32
TORSDOF 2
