REMARK  Name = ZINC09647489
REMARK  15 active torsions:
REMARK  status: ('A' for Active; 'I' for Inactive)
REMARK    1  A    between atoms: C_1  and  C_2
REMARK    2  A    between atoms: C_2  and  N_61
REMARK    3  A    between atoms: C_3  and  C_4
REMARK    4  A    between atoms: C_3  and  N_61
REMARK    5  A    between atoms: C_5  and  C_6
REMARK    6  A    between atoms: C_5  and  N_61
REMARK    7  A    between atoms: C_10  and  C_16
REMARK    8  A    between atoms: C_11  and  C_15
REMARK    9  A    between atoms: N_17  and  C_18
REMARK   10  A    between atoms: C_18  and  C_20
REMARK   11  A    between atoms: C_18  and  C_22
REMARK   12  A    between atoms: C_20  and  O_21
REMARK   13  A    between atoms: C_22  and  C_24
REMARK   14  A    between atoms: C_22  and  O_33
REMARK   15  A    between atoms: C_27  and  N_30
REMARK                            x       y       z     vdW  Elec       q    Type
REMARK                         _______ _______ _______ _____ _____    ______ ____
ROOT
ATOM      1  C   UNK A   0       3.583  -2.513  -3.349  0.00  0.00    +0.116 A 
ATOM      2  N   UNK A   0       2.674  -1.826  -2.681  0.00  0.00    -0.219 NA
ATOM      3  C   UNK A   0       2.980  -0.746  -1.982  0.00  0.00    +0.131 A 
ATOM      4  C   UNK A   0       4.330  -0.300  -1.950  0.00  0.00    +0.051 A 
ATOM      5  C   UNK A   0       4.918   0.835  -1.261  0.00  0.00    -0.028 A 
ATOM      6  C   UNK A   0       6.236   1.058  -1.371  0.00  0.00    -0.008 A 
ATOM      7  S   UNK A   0       6.796  -0.270  -2.421  0.00  0.00    -0.074 S 
ATOM      8  C   UNK A   0       5.245  -1.088  -2.683  0.00  0.00    +0.114 A 
ATOM      9  N   UNK A   0       4.851  -2.153  -3.353  0.00  0.00    -0.227 NA
ATOM     10  C   UNK A   0       7.050   2.166  -0.754  0.00  0.00    +0.052 C 
ATOM     11  C   UNK A   0       4.056   1.756  -0.437  0.00  0.00    +0.045 C 
ATOM     12  N   UNK A   1       1.998  -0.054  -1.295  0.00  0.00    -0.321 N 
ATOM     13  H   UNK A   1       2.219   0.766  -0.828  0.00  0.00    +0.148 HD
ENDROOT
BRANCH   1  14
ATOM     14  C   UNK A   0       3.161  -3.735  -4.124  0.00  0.00    -0.001 C 
BRANCH  14  15
ATOM     15  N   UNK A   0       2.778  -3.324  -5.491  0.00  0.00    +0.384 N 
ATOM     16  H   UNK A   0       2.098  -2.558  -5.431  0.00  0.00    -0.081 HD
BRANCH  15  18
ATOM     17  C   UNK A   0       4.984  -3.985  -6.390  0.00  0.00    -0.017 C 
ATOM     18  C   UNK A   0       3.969  -2.852  -6.229  0.00  0.00    -0.082 C 
ENDBRANCH  15  18
BRANCH  15  19
ATOM     19  C   UNK A   0       2.159  -4.460  -6.205  0.00  0.00    -0.082 C 
ATOM     20  C   UNK A   0       1.459  -3.931  -7.458  0.00  0.00    -0.017 C 
ENDBRANCH  15  19
ENDBRANCH  14  15
ENDBRANCH   1  14
BRANCH  12  21
ATOM     21  C   UNK A   1       0.624  -0.562  -1.273  0.00  0.00    +0.130 C 
BRANCH  21  22
ATOM     22  C   UNK A   1      -0.117  -0.082  -2.522  0.00  0.00    +0.181 C 
BRANCH  22  23
ATOM     23  O   UNK A   1      -0.239   1.342  -2.486  0.00  0.00    -0.393 OA
ATOM     24  H   UNK A   1      -0.700   1.716  -3.249  0.00  0.00    +0.209 HD
ENDBRANCH  22  23
ENDBRANCH  21  22
BRANCH  21  25
ATOM     25  C   UNK A   1      -0.091  -0.043  -0.025  0.00  0.00    +0.167 C 
BRANCH  25  26
ATOM     26  C   UNK A   1       0.705  -0.411   1.201  0.00  0.00    -0.017 A 
ATOM     27  C   UNK A   1       1.746   0.397   1.617  0.00  0.00    +0.008 A 
ATOM     28  C   UNK A   1       2.474   0.061   2.743  0.00  0.00    +0.033 A 
ATOM     29  C   UNK A   1       2.167  -1.088   3.448  0.00  0.00    +0.126 A 
ATOM     30  C   UNK A   1       1.128  -1.899   3.029  0.00  0.00    +0.033 A 
ATOM     31  C   UNK A   1       0.398  -1.560   1.905  0.00  0.00    +0.008 A 
BRANCH  29  32
ATOM     32  N   UNK A   1       2.950  -1.450   4.651  0.00  0.00    +0.056 N 
ATOM     33  O   UNK A   1       2.679  -2.463   5.271  0.00  0.00    -0.126 OA
ATOM     34  O   UNK A   1       3.864  -0.736   5.020  0.00  0.00    -0.126 OA
ENDBRANCH  29  32
ENDBRANCH  25  26
BRANCH  25  35
ATOM     35  O   UNK A   1      -0.215   1.379  -0.102  0.00  0.00    -0.385 OA
ATOM     36  H   UNK A   1       0.631   1.844  -0.161  0.00  0.00    +0.210 HD
ENDBRANCH  25  35
ENDBRANCH  21  25
ENDBRANCH  12  21
TORSDOF 11
