REMARK  Name = ZINC16009829
REMARK  4 active torsions:
REMARK  status: ('A' for Active; 'I' for Inactive)
REMARK    1  A    between atoms: C_1  and  C_2
REMARK    2  A    between atoms: C_7  and  C_8
REMARK    3  A    between atoms: N_25  and  C_28
REMARK    4  A    between atoms: C_32  and  N_34
REMARK                            x       y       z     vdW  Elec       q    Type
REMARK                         _______ _______ _______ _____ _____    ______ ____
ROOT
ATOM      1  C   UNL     1      -2.440   6.038   3.246  0.00  0.00    +0.044 C 
ATOM      2  C   UNL     1      -1.413   5.057   2.743  0.00  0.00    -0.046 A 
ATOM      3  C   UNL     1      -1.737   3.717   2.635  0.00  0.00    +0.004 A 
ATOM      4  C   UNL     1      -0.794   2.816   2.172  0.00  0.00    +0.005 A 
ATOM      5  C   UNL     1       0.463   3.254   1.819  0.00  0.00    -0.027 A 
ATOM      6  C   UNL     1       0.800   4.600   1.923  0.00  0.00    +0.039 A 
ATOM      7  C   UNL     1      -0.155   5.500   2.390  0.00  0.00    -0.026 A 
ATOM      8  C   UNL     1       0.187   6.963   2.511  0.00  0.00    +0.046 C 
ATOM      9  N   UNL     1       2.119   4.800   1.512  0.00  0.00    -0.286 N 
ATOM     10  C   UNL     1       2.711   3.654   1.126  0.00  0.00    +0.212 C 
ATOM     11  O   UNL     1       3.847   3.525   0.723  0.00  0.00    -0.277 OA
ATOM     12  C   UNL     1       1.689   2.562   1.293  0.00  0.00    +0.053 C 
ATOM     13  C   UNL     1       1.403   1.855  -0.037  0.00  0.00    +0.089 C 
ATOM     14  C   UNL     1       2.261   0.561   0.014  0.00  0.00    +0.074 C 
ATOM     15  C   UNL     1       2.985   0.609   1.372  0.00  0.00    -0.054 C 
ATOM     16  N   UNL     1       2.161   1.521   2.222  0.00  0.00    +0.395 N 
ATOM     17  C   UNL     1       1.018   0.688   2.667  0.00  0.00    -0.076 C 
ATOM     18  C   UNL     1       1.610  -0.714   2.913  0.00  0.00    -0.020 C 
ATOM     19  C   UNL     1       2.887  -0.769   2.051  0.00  0.00    -0.016 C 
ATOM     20  C   UNL     1       1.227  -0.542   0.036  0.00  0.00    +0.228 C 
ATOM     21  O   UNL     1       1.469  -1.729   0.077  0.00  0.00    -0.275 OA
ATOM     22  N   UNL     1       0.002  -0.004   0.002  0.00  0.00    -0.210 N 
ATOM     23  C   UNL     1      -0.016   1.333  -0.042  0.00  0.00    +0.229 C 
ATOM     24  O   UNL     1      -1.014   2.019  -0.084  0.00  0.00    -0.275 OA
ATOM     25  H   UNL     1       2.554   5.811   1.530  0.00  0.00    +0.155 HD
ATOM     26  H   UNL     1       2.671   1.976   3.084  0.00  0.00    -0.079 HD
ENDROOT
BRANCH  22  27
ATOM     27  C   UNL     1      -1.167  -0.778   0.011  0.00  0.00    +0.046 A 
ATOM     28  C   UNL     1      -2.015  -0.745   1.110  0.00  0.00    +0.024 A 
ATOM     29  C   UNL     1      -3.166  -1.508   1.116  0.00  0.00    +0.004 A 
ATOM     30  C   UNL     1      -3.474  -2.305   0.029  0.00  0.00    +0.033 A 
ATOM     31  C   UNL     1      -2.631  -2.341  -1.067  0.00  0.00    +0.128 A 
ATOM     32  C   UNL     1      -1.481  -1.575  -1.081  0.00  0.00    +0.056 A 
BRANCH  31  33
ATOM     33  N   UNL     1      -2.965  -3.196  -2.229  0.00  0.00    +0.056 N 
ATOM     34  O   UNL     1      -3.981  -3.867  -2.219  0.00  0.00    -0.126 OA
ATOM     35  O   UNL     1      -2.223  -3.227  -3.194  0.00  0.00    -0.126 OA
ENDBRANCH  31  33
ENDBRANCH  22  27
TORSDOF 2
