REMARK  Name = ZINC15955395
REMARK  4 active torsions:
REMARK  status: ('A' for Active; 'I' for Inactive)
REMARK    1  A    between atoms: C_4  and  C_7
REMARK    2  A    between atoms: C_7  and  N_70
REMARK    3  A    between atoms: C_10  and  N_13
REMARK    4  A    between atoms: C_33  and  C_35
REMARK                            x       y       z     vdW  Elec       q    Type
REMARK                         _______ _______ _______ _____ _____    ______ ____
ROOT
ATOM      1  N   UNL     1       3.742   1.465  -0.737  0.00  0.00    -0.288 N 
ATOM      2  C   UNL     1       4.728   1.264   0.312  0.00  0.00    +0.204 C 
ATOM      3  C   UNL     1       6.040   1.893  -0.022  0.00  0.00    +0.234 C 
ATOM      4  O   UNL     1       6.947   1.766   0.773  0.00  0.00    -0.274 OA
ATOM      5  N   UNL     1       6.283   2.586  -1.137  0.00  0.00    -0.276 N 
ATOM      6  C   UNL     1       5.255   2.878  -2.136  0.00  0.00    +0.167 C 
ATOM      7  C   UNL     1       3.969   2.178  -1.839  0.00  0.00    +0.237 C 
ATOM      8  O   UNL     1       3.072   2.268  -2.651  0.00  0.00    -0.274 OA
ATOM      9  C   UNL     1       5.021   4.395  -2.189  0.00  0.00    +0.069 C 
ATOM     10  C   UNL     1       6.357   5.093  -2.208  0.00  0.00    -0.015 A 
ATOM     11  C   UNL     1       6.651   6.459  -2.591  0.00  0.00    +0.003 A 
ATOM     12  C   UNL     1       5.848   7.510  -3.044  0.00  0.00    +0.010 A 
ATOM     13  C   UNL     1       6.478   8.699  -3.317  0.00  0.00    +0.001 A 
ATOM     14  C   UNL     1       7.844   8.863  -3.155  0.00  0.00    +0.002 A 
ATOM     15  C   UNL     1       8.662   7.840  -2.708  0.00  0.00    +0.026 A 
ATOM     16  C   UNL     1       8.050   6.621  -2.423  0.00  0.00    +0.047 A 
ATOM     17  N   UNL     1       8.546   5.430  -1.974  0.00  0.00    -0.356 N 
ATOM     18  H   UNL     1       9.478   5.254  -1.774  0.00  0.00    +0.166 HD
ATOM     19  C   UNL     1       7.528   4.523  -1.850  0.00  0.00    +0.046 A 
ATOM     20  C   UNL     1       7.650   3.089  -1.387  0.00  0.00    +0.154 C 
ENDROOT
BRANCH   1  23
ATOM     21  C   UNL     1       0.417   0.669   0.897  0.00  0.00    -0.077 C 
ATOM     22  C   UNL     1       1.765   1.367   0.702  0.00  0.00    +0.004 C 
ATOM     23  C   UNL     1       2.426   0.843  -0.576  0.00  0.00    +0.073 C 
ATOM     24  C   UNL     1       2.587  -0.676  -0.471  0.00  0.00    +0.004 C 
ATOM     25  C   UNL     1       1.216  -1.316  -0.242  0.00  0.00    -0.077 C 
ATOM     26  N   UNL     1       0.644  -0.788   1.014  0.00  0.00    +0.382 N 
ATOM     27  H   UNL     1       1.306  -0.961   1.780  0.00  0.00    -0.081 HD
BRANCH  26  28
ATOM     28  C   UNL     1      -0.629  -1.474   1.317  0.00  0.00    -0.043 C 
BRANCH  28  32
ATOM     29  C   UNL     1      -0.084  -5.689   0.889  0.00  0.00    +0.000 A 
ATOM     30  C   UNL     1       0.166  -5.080   2.104  0.00  0.00    +0.000 A 
ATOM     31  C   UNL     1      -0.011  -3.716   2.243  0.00  0.00    +0.002 A 
ATOM     32  C   UNL     1      -0.437  -2.961   1.166  0.00  0.00    -0.064 A 
ATOM     33  C   UNL     1      -0.692  -3.571  -0.048  0.00  0.00    +0.002 A 
ATOM     34  C   UNL     1      -0.511  -4.934  -0.188  0.00  0.00    +0.000 A 
ENDBRANCH  28  32
ENDBRANCH  26  28
ENDBRANCH   1  23
BRANCH  20  35
ATOM     35  C   UNL     1       8.314   2.260  -2.456  0.00  0.00    -0.021 A 
ATOM     36  C   UNL     1       9.423   1.494  -2.148  0.00  0.00    +0.006 A 
ATOM     37  C   UNL     1      10.029   0.730  -3.128  0.00  0.00    +0.000 A 
ATOM     38  C   UNL     1       9.533   0.740  -4.418  0.00  0.00    +0.000 A 
ATOM     39  C   UNL     1       8.427   1.510  -4.727  0.00  0.00    +0.000 A 
ATOM     40  C   UNL     1       7.818   2.270  -3.746  0.00  0.00    +0.006 A 
ENDBRANCH  20  35
TORSDOF 4
