REMARK  Name = ZINC04349876
REMARK  3 active torsions:
REMARK  status: ('A' for Active; 'I' for Inactive)
REMARK    1  A    between atoms: C_6  and  C_13
REMARK    2  A    between atoms: C_6  and  O_15
REMARK    3  A    between atoms: C_7  and  C_11
REMARK                            x       y       z     vdW  Elec       q    Type
REMARK                         _______ _______ _______ _____ _____    ______ ____
ROOT
ATOM      1  C   UNL     1       4.986   2.637   0.362  0.00  0.00    +0.036 C 
ATOM      2  C   UNL     1       3.992   2.461   1.525  0.00  0.00    +0.076 C 
ATOM      3  C   UNL     1       2.799   3.353   1.292  0.00  0.00    +0.137 C 
ATOM      4  O   UNL     1       2.934   4.549   1.258  0.00  0.00    -0.297 OA
ATOM      5  C   UNL     1       1.436   2.721   1.107  0.00  0.00    +0.124 C 
ATOM      6  C   UNL     1       1.346   2.139  -0.310  0.00  0.00    +0.210 C 
ATOM      7  C   UNL     1       2.405   1.046  -0.475  0.00  0.00    +0.274 C 
ATOM      8  O   UNL     1       3.522   1.459  -1.214  0.00  0.00    -0.362 OA
ATOM      9  C   UNL     1       4.183   2.677  -0.950  0.00  0.00    +0.161 C 
ENDROOT
BRANCH   7  10
ATOM     10  C   UNL     1       1.762  -0.132  -1.187  0.00  0.00    +0.388 C 
ATOM     11  O   UNL     1       2.024  -0.353  -2.345  0.00  0.00    -0.243 OA
ATOM     12  O   UNL     1       0.904  -0.926  -0.528  0.00  0.00    -0.243 OA
ENDBRANCH   7  10
BRANCH   6  13
ATOM     13  C   UNL     1      -0.024   1.506  -0.482  0.00  0.00    +0.391 C 
ATOM     14  O   UNL     1      -0.629   1.104   0.483  0.00  0.00    -0.243 OA
ATOM     15  O   UNL     1      -0.560   1.389  -1.708  0.00  0.00    -0.243 OA
ENDBRANCH   6  13
BRANCH   6  16
ATOM     16  O   UNL     1       1.489   3.160  -1.294  0.00  0.00    -0.375 OA
ATOM     17  H   UNL     1       0.827   3.862  -1.231  0.00  0.00    +0.211 HD
ENDBRANCH   6  16
TORSDOF 3
