REMARK  Name = ZINC35810314
REMARK  12 active torsions:
REMARK  status: ('A' for Active; 'I' for Inactive)
REMARK    1  A    between atoms: C_1  and  C_2
REMARK    2  A    between atoms: C_5  and  C_8
REMARK    3  A    between atoms: N_10  and  C_11
REMARK    4  A    between atoms: N_10  and  C_33
REMARK    5  A    between atoms: C_11  and  C_12
REMARK    6  A    between atoms: N_15  and  C_26
REMARK    7  A    between atoms: C_17  and  C_19
REMARK    8  A    between atoms: C_24  and  C_25
REMARK    9  A    between atoms: C_26  and  C_27
REMARK   10  A    between atoms: C_33  and  C_34
REMARK   11  A    between atoms: C_34  and  C_35
REMARK   12  A    between atoms: C_34  and  C_36
REMARK                            x       y       z     vdW  Elec       q    Type
REMARK                         _______ _______ _______ _____ _____    ______ ____
ROOT
ATOM      1  C   UNL     1       1.377  -7.009   0.751  0.00  0.00    -0.005 C 
ATOM      2  C   UNL     1       1.778  -6.846   2.233  0.00  0.00    -0.073 C 
ATOM      3  N   UNL     1       1.198  -8.033   2.912  0.00  0.00    +0.383 N 
ATOM      4  C   UNL     1       1.415  -9.145   1.951  0.00  0.00    -0.070 C 
ATOM      5  C   UNL     1       1.139  -8.521   0.563  0.00  0.00    +0.005 C 
ATOM      6  H   UNL     1       0.212  -7.898   3.078  0.00  0.00    -0.081 HD
ENDROOT
BRANCH   5   7
ATOM      7  C   UNL     1       2.093  -9.078  -0.463  0.00  0.00    -0.043 A 
ATOM      8  C   UNL     1       3.456  -9.021  -0.240  0.00  0.00    +0.004 A 
ATOM      9  C   UNL     1       4.331  -9.531  -1.181  0.00  0.00    +0.000 A 
ATOM     10  C   UNL     1       3.843 -10.098  -2.344  0.00  0.00    +0.000 A 
ATOM     11  C   UNL     1       2.480 -10.155  -2.565  0.00  0.00    +0.003 A 
ATOM     12  C   UNL     1       1.604  -9.649  -1.622  0.00  0.00    -0.047 A 
ATOM     13  C   UNL     1       0.118  -9.716  -1.861  0.00  0.00    +0.044 C 
ENDBRANCH   5   7
BRANCH   1  14
ATOM     14  C   UNL     1       0.093  -6.229   0.460  0.00  0.00    +0.110 C 
BRANCH  14  17
ATOM     15  C   UNL     1       0.909  -4.193  -0.602  0.00  0.00    +0.247 C 
ATOM     16  O   UNL     1       1.053  -4.820  -1.633  0.00  0.00    -0.270 OA
ATOM     17  N   UNL     1       0.380  -4.792   0.483  0.00  0.00    -0.297 N 
BRANCH  15  22
ATOM     18  C   UNL     1       2.488   1.335  -0.352  0.00  0.00    +0.044 C 
ATOM     19  C   UNL     1       2.074  -0.113  -0.417  0.00  0.00    -0.050 A 
ATOM     20  C   UNL     1       0.841  -0.499   0.075  0.00  0.00    +0.004 A 
ATOM     21  C   UNL     1       0.456  -1.823   0.018  0.00  0.00    +0.013 A 
ATOM     22  C   UNL     1       1.314  -2.773  -0.538  0.00  0.00    +0.037 A 
ATOM     23  C   UNL     1       2.557  -2.376  -1.033  0.00  0.00    +0.013 A 
ATOM     24  C   UNL     1       2.928  -1.048  -0.975  0.00  0.00    +0.004 A 
ENDBRANCH  15  22
BRANCH  17  25
ATOM     25  C   UNL     1       0.090  -4.007   1.685  0.00  0.00    +0.111 C 
BRANCH  25  26
ATOM     26  C   UNL     1      -1.393  -3.633   1.706  0.00  0.00    +0.000 C 
ATOM     27  C   UNL     1      -2.235  -4.897   1.894  0.00  0.00    +0.009 C 
ATOM     28  C   UNL     1      -1.660  -2.666   2.861  0.00  0.00    +0.009 C 
ENDBRANCH  25  26
ENDBRANCH  17  25
ENDBRANCH  14  17
ENDBRANCH   1  14
BRANCH   3  29
ATOM     29  C   UNL     1       1.903  -8.299   4.173  0.00  0.00    -0.043 C 
BRANCH  29  30
ATOM     30  C   UNL     1       1.220  -9.429   4.901  0.00  0.00    -0.064 A 
ATOM     31  C   UNL     1       0.197  -9.160   5.791  0.00  0.00    +0.002 A 
ATOM     32  C   UNL     1      -0.428 -10.196   6.458  0.00  0.00    +0.000 A 
ATOM     33  C   UNL     1      -0.032 -11.501   6.235  0.00  0.00    +0.000 A 
ATOM     34  C   UNL     1       0.991 -11.770   5.344  0.00  0.00    +0.000 A 
ATOM     35  C   UNL     1       1.614 -10.735   4.674  0.00  0.00    +0.002 A 
ENDBRANCH  29  30
ENDBRANCH   3  29
TORSDOF 8
