REMARK  Name = ZINC22371873
REMARK  10 active torsions:
REMARK  status: ('A' for Active; 'I' for Inactive)
REMARK    1  A    between atoms: C_1  and  C_2
REMARK    2  A    between atoms: C_5  and  N_8
REMARK    3  A    between atoms: N_8  and  C_9
REMARK    4  A    between atoms: N_8  and  S_27
REMARK    5  A    between atoms: C_9  and  C_10
REMARK    6  A    between atoms: N_12  and  C_13
REMARK    7  A    between atoms: C_16  and  C_25
REMARK    8  A    between atoms: C_16  and  C_26
REMARK    9  A    between atoms: C_22  and  C_24
REMARK   10  A    between atoms: S_27  and  C_30
REMARK                            x       y       z     vdW  Elec       q    Type
REMARK                         _______ _______ _______ _____ _____    ______ ____
ROOT
ATOM      1  N   UNL     1       1.372  -0.472  -0.004  0.00  0.00    -0.194 N 
ENDROOT
BRANCH   1   6
ATOM      2  C   UNL     1       4.105  -0.919  -4.952  0.00  0.00    +0.044 C 
ATOM      3  C   UNL     1       3.379  -0.800  -3.637  0.00  0.00    -0.050 A 
ATOM      4  C   UNL     1       2.388   0.151  -3.480  0.00  0.00    +0.005 A 
ATOM      5  C   UNL     1       1.720   0.263  -2.276  0.00  0.00    +0.025 A 
ATOM      6  C   UNL     1       2.045  -0.582  -1.222  0.00  0.00    +0.052 A 
ATOM      7  C   UNL     1       3.045  -1.533  -1.382  0.00  0.00    +0.025 A 
ATOM      8  C   UNL     1       3.705  -1.643  -2.590  0.00  0.00    +0.005 A 
ENDBRANCH   1   6
BRANCH   1   9
ATOM      9  S   UNL     1       2.222  -0.177   1.387  0.00  0.00    +0.075 S 
ATOM     10  O   UNL     1       3.490   0.327   0.990  0.00  0.00    -0.150 OA
ATOM     11  O   UNL     1       1.352   0.543   2.250  0.00  0.00    -0.150 OA
BRANCH   9  12
ATOM     12  C   UNL     1       2.517  -1.735   2.157  0.00  0.00    +0.109 A 
ATOM     13  C   UNL     1       1.554  -2.294   2.976  0.00  0.00    +0.030 A 
ATOM     14  C   UNL     1       1.783  -3.518   3.575  0.00  0.00    +0.022 A 
ATOM     15  C   UNL     1       2.981  -4.179   3.364  0.00  0.00    +0.041 A 
ATOM     16  C   UNL     1       3.946  -3.615   2.549  0.00  0.00    +0.022 A 
ATOM     17  C   UNL     1       3.714  -2.394   1.945  0.00  0.00    +0.030 A 
ATOM     18 CL   UNL     1       3.272  -5.713   4.123  0.00  0.00    -0.084 Cl
ENDBRANCH   9  12
ENDBRANCH   1   9
BRANCH   1  19
ATOM     19  C   UNL     1      -0.085  -0.616   0.045  0.00  0.00    +0.227 C 
BRANCH  19  20
ATOM     20  C   UNL     1      -0.732   0.709  -0.267  0.00  0.00    +0.233 C 
ATOM     21  O   UNL     1      -0.043   1.678  -0.506  0.00  0.00    -0.274 OA
ATOM     22  N   UNL     1      -2.075   0.815  -0.286  0.00  0.00    -0.307 N 
ATOM     23  H   UNL     1      -2.699  -0.066  -0.074  0.00  0.00    +0.149 HD
BRANCH  22  24
ATOM     24  C   UNL     1      -2.704   2.103  -0.590  0.00  0.00    +0.110 C 
ATOM     25  C   UNL     1      -4.105   1.864  -1.158  0.00  0.00    +0.074 C 
ATOM     26  C   UNL     1      -4.847   3.206  -1.190  0.00  0.00    +0.107 C 
ATOM     27  O   UNL     1      -5.024   3.655   0.155  0.00  0.00    -0.486 OA
ATOM     28  C   UNL     1      -3.939   3.651   0.973  0.00  0.00    +0.126 A 
ATOM     29  C   UNL     1      -2.801   2.923   0.671  0.00  0.00    +0.015 A 
ATOM     30  C   UNL     1      -1.722   2.942   1.539  0.00  0.00    +0.009 A 
ATOM     31  C   UNL     1      -1.775   3.685   2.702  0.00  0.00    +0.004 A 
ATOM     32  C   UNL     1      -2.909   4.416   3.004  0.00  0.00    -0.047 A 
ATOM     33  C   UNL     1      -3.988   4.400   2.144  0.00  0.00    +0.049 A 
ATOM     34  C   UNL     1      -2.968   5.228   4.272  0.00  0.00    +0.044 C 
ATOM     35  C   UNL     1      -6.213   3.025  -1.856  0.00  0.00    +0.055 C 
ATOM     36  C   UNL     1      -4.025   4.233  -1.971  0.00  0.00    +0.055 C 
ENDBRANCH  22  24
ENDBRANCH  19  20
ENDBRANCH   1  19
TORSDOF 6
