REMARK  Name = ZINC02082358
REMARK  11 active torsions:
REMARK  status: ('A' for Active; 'I' for Inactive)
REMARK    1  A    between atoms: C_1  and  C_2
REMARK    2  A    between atoms: C_5  and  C_7
REMARK    3  A    between atoms: C_9  and  C_17
REMARK    4  A    between atoms: N_19  and  C_20
REMARK    5  A    between atoms: C_21  and  C_34
REMARK    6  A    between atoms: C_26  and  C_30
REMARK    7  A    between atoms: C_30  and  C_31
REMARK    8  A    between atoms: C_30  and  C_32
REMARK    9  A    between atoms: C_30  and  C_33
REMARK   10  A    between atoms: C_34  and  O_36
REMARK   11  A    between atoms: O_36  and  C_37
REMARK                            x       y       z     vdW  Elec       q    Type
REMARK                         _______ _______ _______ _____ _____    ______ ____
ROOT
ATOM      1  C   UNL     1      -7.202   2.795   1.858  0.00  0.00    +0.249 C 
ATOM      2  O   UNL     1      -8.304   3.014   2.320  0.00  0.00    -0.270 OA
ATOM      3  N   UNL     1      -7.067   2.487   0.553  0.00  0.00    -0.275 N 
ATOM      4  H   UNL     1      -6.187   2.313   0.184  0.00  0.00    +0.156 HD
ENDROOT
BRANCH   1   7
ATOM      5  C   UNL     1      -3.647   2.586   3.124  0.00  0.00    +0.107 A 
ATOM      6  C   UNL     1      -4.753   2.508   2.260  0.00  0.00    +0.045 A 
ATOM      7  C   UNL     1      -6.008   2.866   2.728  0.00  0.00    +0.048 A 
ATOM      8  C   UNL     1      -6.104   3.322   4.116  0.00  0.00    +0.013 A 
ATOM      9  C   UNL     1      -7.327   3.708   4.675  0.00  0.00    +0.011 A 
ATOM     10  C   UNL     1      -7.373   4.126   5.972  0.00  0.00    +0.001 A 
ATOM     11  C   UNL     1      -6.217   4.173   6.748  0.00  0.00    +0.002 A 
ATOM     12  C   UNL     1      -5.011   3.806   6.235  0.00  0.00    +0.028 A 
ATOM     13  C   UNL     1      -4.925   3.368   4.901  0.00  0.00    +0.073 A 
ATOM     14  N   UNL     1      -3.756   3.000   4.372  0.00  0.00    -0.244 NA
BRANCH   5  19
ATOM     15  C   UNL     1      -0.029   0.989   0.038  0.00  0.00    +0.086 C 
ATOM     16  C   UNL     1      -0.730   1.499   1.270  0.00  0.00    +0.103 A 
ATOM     17  C   UNL     1      -0.142   1.773   2.453  0.00  0.00    +0.045 A 
ATOM     18  C   UNL     1      -1.154   2.221   3.323  0.00  0.00    +0.052 A 
ATOM     19  C   UNL     1      -2.317   2.197   2.616  0.00  0.00    +0.153 A 
ATOM     20  O   UNL     1      -2.042   1.761   1.371  0.00  0.00    -0.458 OA
ENDBRANCH   5  19
ENDBRANCH   1   7
BRANCH   3  21
ATOM     21  C   UNL     1      -8.184   2.421  -0.262  0.00  0.00    +0.087 A 
ATOM     22  C   UNL     1      -8.248   2.129  -1.618  0.00  0.00    +0.091 A 
ATOM     23  C   UNL     1      -9.560   2.120  -2.242  0.00  0.00    -0.021 A 
ATOM     24  C   UNL     1     -10.590   2.413  -1.419  0.00  0.00    -0.004 A 
ATOM     25  S   UNL     1      -9.843   2.690   0.162  0.00  0.00    -0.077 S 
ATOM     26  C   UNL     1     -12.042   2.482  -1.779  0.00  0.00    +0.046 C 
ATOM     27  C   UNL     1     -12.235   1.804  -3.143  0.00  0.00    -0.000 C 
ATOM     28  C   UNL     1     -11.177   2.337  -4.113  0.00  0.00    +0.009 C 
ATOM     29  C   UNL     1      -9.796   1.813  -3.716  0.00  0.00    +0.037 C 
BRANCH  27  30
ATOM     30  C   UNL     1     -13.632   2.123  -3.682  0.00  0.00    -0.035 C 
ATOM     31  C   UNL     1     -13.815   1.461  -5.049  0.00  0.00    +0.011 C 
ATOM     32  C   UNL     1     -14.687   1.589  -2.711  0.00  0.00    +0.011 C 
ATOM     33  C   UNL     1     -13.789   3.638  -3.824  0.00  0.00    +0.011 C 
ENDBRANCH  27  30
BRANCH  22  34
ATOM     34  C   UNL     1      -7.038   1.836  -2.390  0.00  0.00    +0.342 C 
ATOM     35  O   UNL     1      -6.639   0.691  -2.485  0.00  0.00    -0.245 OA
BRANCH  34  36
ATOM     36  O   UNL     1      -6.365   2.837  -2.995  0.00  0.00    -0.464 OA
ATOM     37  C   UNL     1      -5.175   2.474  -3.742  0.00  0.00    +0.280 C 
ENDBRANCH  34  36
ENDBRANCH  22  34
ENDBRANCH   3  21
TORSDOF 6
