REMARK  Name = ZINC58848263
REMARK  9 active torsions:
REMARK  status: ('A' for Active; 'I' for Inactive)
REMARK    1  A    between atoms: C_1  and  C_2
REMARK    2  A    between atoms: C_5  and  N_9
REMARK    3  A    between atoms: N_9  and  S_10
REMARK    4  A    between atoms: S_10  and  C_13
REMARK    5  A    between atoms: C_26  and  C_29
REMARK    6  A    between atoms: C_32  and  O_35
REMARK    7  A    between atoms: O_35  and  C_36
REMARK    8  A    between atoms: C_36  and  C_37
REMARK    9  A    between atoms: C_36  and  C_38
REMARK                            x       y       z     vdW  Elec       q    Type
REMARK                         _______ _______ _______ _____ _____    ______ ____
ROOT
ATOM      1  C   UNL     1       1.244  -3.419   3.127  0.00  0.00    +0.109 A 
ATOM      2  C   UNL     1       1.597  -2.354   3.936  0.00  0.00    +0.030 A 
ATOM      3  C   UNL     1       1.026  -2.224   5.186  0.00  0.00    +0.025 A 
ATOM      4  C   UNL     1       0.097  -3.159   5.630  0.00  0.00    +0.031 A 
ATOM      5  C   UNL     1      -0.268  -4.220   4.815  0.00  0.00    -0.018 A 
ATOM      6  C   UNL     1       0.315  -4.343   3.562  0.00  0.00    +0.034 A 
ATOM      7  C   UNL     1      -1.290  -5.220   5.240  0.00  0.00    +0.049 C 
ATOM      8  C   UNL     1      -0.665  -6.526   5.661  0.00  0.00    -0.023 C 
ATOM      9  C   UNL     1      -1.333  -7.046   6.660  0.00  0.00    -0.030 C 
ATOM     10  C   UNL     1      -2.495  -6.160   7.053  0.00  0.00    +0.033 C 
ATOM     11  C   UNL     1      -2.140  -4.789   6.433  0.00  0.00    +0.029 C 
ATOM     12  C   UNL     1      -1.378  -3.986   7.467  0.00  0.00    +0.105 C 
ATOM     13  N   UNL     1      -0.456  -3.026   6.898  0.00  0.00    -0.336 N 
ATOM     14  H   UNL     1      -0.193  -2.263   7.437  0.00  0.00    +0.147 HD
ENDROOT
BRANCH  12  15
ATOM     15  C   UNL     1      -0.628  -4.942   8.358  0.00  0.00    -0.027 A 
ATOM     16  C   UNL     1       0.572  -5.483   7.935  0.00  0.00    +0.009 A 
ATOM     17  C   UNL     1       1.261  -6.360   8.750  0.00  0.00    +0.046 A 
ATOM     18  C   UNL     1       0.749  -6.698   9.994  0.00  0.00    +0.121 A 
ATOM     19  C   UNL     1      -0.455  -6.153  10.417  0.00  0.00    +0.046 A 
ATOM     20  C   UNL     1      -1.138  -5.272   9.601  0.00  0.00    +0.009 A 
BRANCH  18  21
ATOM     21  O   UNL     1       1.425  -7.561  10.797  0.00  0.00    -0.489 OA
BRANCH  21  22
ATOM     22  C   UNL     1       2.590  -8.180  10.249  0.00  0.00    +0.167 C 
ATOM     23  C   UNL     1       3.798  -7.262  10.450  0.00  0.00    +0.051 C 
ATOM     24  C   UNL     1       2.840  -9.514  10.956  0.00  0.00    +0.051 C 
ENDBRANCH  21  22
ENDBRANCH  18  21
ENDBRANCH  12  15
BRANCH   1  25
ATOM     25  S   UNL     1       1.978  -3.594   1.535  0.00  0.00    +0.072 S 
ATOM     26  O   UNL     1       1.768  -4.942   1.137  0.00  0.00    -0.150 OA
ATOM     27  O   UNL     1       3.273  -3.017   1.619  0.00  0.00    -0.150 OA
BRANCH  25  28
ATOM     28  N   UNL     1       1.107  -2.651   0.489  0.00  0.00    -0.216 N 
ATOM     29  H   UNL     1       1.532  -1.903   0.041  0.00  0.00    +0.174 HD
BRANCH  28  34
ATOM     30  C   UNL     1      -4.363  -3.793  -0.480  0.00  0.00    +0.045 C 
ATOM     31  C   UNL     1      -2.910  -3.490  -0.223  0.00  0.00    -0.032 A 
ATOM     32  C   UNL     1      -2.511  -2.191   0.034  0.00  0.00    +0.006 A 
ATOM     33  C   UNL     1      -1.180  -1.910   0.270  0.00  0.00    +0.025 A 
ATOM     34  C   UNL     1      -0.240  -2.933   0.250  0.00  0.00    +0.049 A 
ATOM     35  C   UNL     1      -0.643  -4.237  -0.007  0.00  0.00    +0.044 A 
ATOM     36  C   UNL     1      -1.978  -4.513  -0.238  0.00  0.00    +0.046 A 
ATOM     37 CL   UNL     1      -2.484  -6.143  -0.553  0.00  0.00    -0.083 Cl
ENDBRANCH  28  34
ENDBRANCH  25  28
ENDBRANCH   1  25
TORSDOF 6
