REMARK  Name = ZINC58880454
REMARK  7 active torsions:
REMARK  status: ('A' for Active; 'I' for Inactive)
REMARK    1  A    between atoms: C_3  and  C_6
REMARK    2  A    between atoms: C_6  and  C_8
REMARK    3  A    between atoms: C_6  and  N_28
REMARK    4  A    between atoms: C_8  and  N_9
REMARK    5  A    between atoms: N_12  and  C_13
REMARK    6  A    between atoms: C_15  and  C_24
REMARK    7  A    between atoms: C_18  and  N_19
REMARK                            x       y       z     vdW  Elec       q    Type
REMARK                         _______ _______ _______ _____ _____    ______ ____
ROOT
ATOM      1  N   UNL     1       5.661   0.121   1.253  0.00  0.00    -0.300 N 
ATOM      2  C   UNL     1       6.398  -0.228   2.326  0.00  0.00    +0.304 C 
ATOM      3  O   UNL     1       5.870  -0.341   3.416  0.00  0.00    -0.253 OA
ATOM      4  N   UNL     1       7.720  -0.453   2.192  0.00  0.00    -0.268 N 
ATOM      5  H   UNL     1       6.083   0.211   0.384  0.00  0.00    +0.150 HD
ATOM      6  H   UNL     1       8.127  -0.441   1.312  0.00  0.00    +0.156 HD
ENDROOT
BRANCH   4   7
ATOM      7  C   UNL     1       8.506  -0.705   3.324  0.00  0.00    +0.061 A 
ATOM      8  C   UNL     1       8.111  -0.227   4.565  0.00  0.00    +0.037 A 
ATOM      9  C   UNL     1       8.888  -0.477   5.680  0.00  0.00    +0.057 A 
ATOM     10  C   UNL     1      10.060  -1.202   5.563  0.00  0.00    +0.014 A 
ATOM     11  C   UNL     1      10.461  -1.681   4.330  0.00  0.00    +0.030 A 
ATOM     12  C   UNL     1       9.684  -1.440   3.207  0.00  0.00    +0.087 A 
BRANCH  12  13
ATOM     13  N   UNL     1      10.086  -1.931   1.956  0.00  0.00    -0.238 N 
ATOM     14  C   UNL     1      11.146  -2.736   1.720  0.00  0.00    +0.114 A 
ATOM     15  C   UNL     1      11.190  -2.980   0.389  0.00  0.00    +0.041 A 
ATOM     16  C   UNL     1      10.122  -2.303  -0.208  0.00  0.00    +0.135 A 
ATOM     17  N   UNL     1       9.456  -1.679   0.730  0.00  0.00    -0.175 NA
ENDBRANCH  12  13
BRANCH   9  18
ATOM     18  C   UNL     1       8.457   0.043   7.027  0.00  0.00    +0.417 C 
ATOM     19  F   UNL     1       7.655  -0.912   7.661  0.00  0.00    -0.166 F 
ATOM     20  F   UNL     1       9.588   0.297   7.812  0.00  0.00    -0.166 F 
ATOM     21  F   UNL     1       7.730   1.226   6.860  0.00  0.00    -0.166 F 
ENDBRANCH   9  18
ENDBRANCH   4   7
BRANCH   1  22
ATOM     22  C   UNL     1       4.224   0.366   1.399  0.00  0.00    +0.098 C 
BRANCH  22  23
ATOM     23  C   UNL     1       3.608   0.623   0.022  0.00  0.00    +0.016 C 
BRANCH  23  24
ATOM     24  N   UNL     1       2.149   0.732   0.152  0.00  0.00    +0.387 N 
ATOM     25  C   UNL     1       1.519   0.791  -1.192  0.00  0.00    -0.078 C 
ATOM     26  C   UNL     1       0.062   0.339  -0.921  0.00  0.00    -0.020 C 
ATOM     27  C   UNL     1       0.236  -0.763   0.149  0.00  0.00    -0.020 C 
ATOM     28  C   UNL     1       1.602  -0.480   0.800  0.00  0.00    -0.078 C 
ATOM     29  H   UNL     1       1.907   1.552   0.687  0.00  0.00    -0.081 HD
ENDBRANCH  23  24
BRANCH  23  32
ATOM     30  C   UNL     1       5.340   3.384  -1.697  0.00  0.00    +0.041 A 
ATOM     31  C   UNL     1       5.144   2.005  -1.454  0.00  0.00    +0.043 A 
ATOM     32  C   UNL     1       4.160   1.906  -0.543  0.00  0.00    +0.093 A 
ATOM     33  O   UNL     1       3.752   3.145  -0.222  0.00  0.00    -0.469 OA
ATOM     34  C   UNL     1       4.465   4.045  -0.919  0.00  0.00    +0.195 A 
ENDBRANCH  23  32
ENDBRANCH  22  23
ENDBRANCH   1  22
TORSDOF 7
