REMARK  Name = ZINC38704934
REMARK  11 active torsions:
REMARK  status: ('A' for Active; 'I' for Inactive)
REMARK    1  A    between atoms: C_1  and  C_2
REMARK    2  A    between atoms: C_4  and  C_38
REMARK    3  A    between atoms: C_5  and  C_9
REMARK    4  A    between atoms: C_6  and  O_8
REMARK    5  A    between atoms: N_17  and  C_30
REMARK    6  A    between atoms: C_18  and  C_20
REMARK    7  A    between atoms: C_23  and  C_26
REMARK    8  A    between atoms: C_26  and  C_27
REMARK    9  A    between atoms: C_26  and  C_28
REMARK   10  A    between atoms: C_26  and  C_29
REMARK   11  A    between atoms: C_30  and  C_31
REMARK                            x       y       z     vdW  Elec       q    Type
REMARK                         _______ _______ _______ _____ _____    ______ ____
ROOT
ATOM      1  C   UNL     1       0.221  -4.528  -0.150  0.00  0.00    +0.102 A 
ATOM      2  C   UNL     1       0.244  -5.253   1.046  0.00  0.00    +0.035 A 
ATOM      3  C   UNL     1       0.189  -6.584   0.681  0.00  0.00    +0.126 A 
ATOM      4  N   UNL     1       0.136  -6.601  -0.684  0.00  0.00    -0.272 N 
ATOM      5  H   UNL     1       0.090  -7.401  -1.230  0.00  0.00    +0.189 HD
ATOM      6  N   UNL     1       0.150  -5.398  -1.137  0.00  0.00    -0.173 NA
ATOM      7  C   UNL     1       0.209  -7.404   1.897  0.00  0.00    +0.266 C 
ATOM      8  O   UNL     1       0.172  -8.619   1.917  0.00  0.00    -0.268 OA
ATOM      9  N   UNL     1       0.275  -6.620   2.989  0.00  0.00    -0.281 N 
ATOM     10  C   UNL     1       0.302  -5.219   2.549  0.00  0.00    +0.142 C 
ENDROOT
BRANCH   1  15
ATOM     11  C   UNL     1       0.383   1.210  -0.668  0.00  0.00    +0.044 C 
ATOM     12  C   UNL     1       0.339  -0.290  -0.530  0.00  0.00    -0.047 A 
ATOM     13  C   UNL     1       1.205  -1.076  -1.270  0.00  0.00    +0.007 A 
ATOM     14  C   UNL     1       1.171  -2.450  -1.150  0.00  0.00    -0.037 A 
ATOM     15  C   UNL     1       0.262  -3.050  -0.282  0.00  0.00    +0.047 A 
ATOM     16  C   UNL     1      -0.612  -2.254   0.464  0.00  0.00    +0.127 A 
ATOM     17  C   UNL     1      -0.564  -0.875   0.338  0.00  0.00    +0.049 A 
ATOM     18  C   UNL     1       2.116  -3.302  -1.958  0.00  0.00    +0.044 C 
BRANCH  16  19
ATOM     19  O   UNL     1      -1.502  -2.830   1.313  0.00  0.00    -0.506 OA
ATOM     20  H   UNL     1      -1.196  -2.880   2.229  0.00  0.00    +0.292 HD
ENDBRANCH  16  19
ENDBRANCH   1  15
BRANCH  10  21
ATOM     21  C   UNL     1       1.578  -4.557   3.004  0.00  0.00    -0.022 A 
ATOM     22  C   UNL     1       2.794  -5.175   2.782  0.00  0.00    +0.006 A 
ATOM     23  C   UNL     1       3.964  -4.568   3.199  0.00  0.00    +0.004 A 
ATOM     24  C   UNL     1       3.917  -3.343   3.838  0.00  0.00    -0.042 A 
ATOM     25  C   UNL     1       2.700  -2.724   4.059  0.00  0.00    +0.004 A 
ATOM     26  C   UNL     1       1.531  -3.330   3.638  0.00  0.00    +0.006 A 
BRANCH  24  27
ATOM     27  C   UNL     1       5.192  -2.681   4.293  0.00  0.00    -0.013 C 
ATOM     28  C   UNL     1       6.098  -2.434   3.085  0.00  0.00    +0.015 C 
ATOM     29  C   UNL     1       4.863  -1.347   4.965  0.00  0.00    +0.015 C 
ATOM     30  C   UNL     1       5.910  -3.591   5.292  0.00  0.00    +0.015 C 
ENDBRANCH  24  27
ENDBRANCH  10  21
BRANCH   9  31
ATOM     31  C   UNL     1       0.311  -7.085   4.378  0.00  0.00    +0.144 C 
BRANCH  31  32
ATOM     32  C   UNL     1       1.743  -7.289   4.801  0.00  0.00    -0.030 A 
ATOM     33  C   UNL     1       2.351  -8.516   4.612  0.00  0.00    +0.008 A 
ATOM     34  C   UNL     1       3.664  -8.704   5.000  0.00  0.00    +0.038 A 
ATOM     35  C   UNL     1       4.371  -7.663   5.578  0.00  0.00    +0.123 A 
ATOM     36  C   UNL     1       3.761  -6.435   5.767  0.00  0.00    +0.038 A 
ATOM     37  C   UNL     1       2.449  -6.247   5.374  0.00  0.00    +0.008 A 
ATOM     38  F   UNL     1       5.654  -7.846   5.958  0.00  0.00    -0.205 F 
ENDBRANCH  31  32
ENDBRANCH   9  31
TORSDOF 6
