REMARK  Name = ZINC04944215
REMARK  5 active torsions:
REMARK  status: ('A' for Active; 'I' for Inactive)
REMARK    1  A    between atoms: C_1  and  C_2
REMARK    2  A    between atoms: C_2  and  C_3
REMARK    3  A    between atoms: C_3  and  S_4
REMARK    4  A    between atoms: S_4  and  C_5
REMARK    5  A    between atoms: C_17  and  C_19
REMARK                            x       y       z     vdW  Elec       q    Type
REMARK                         _______ _______ _______ _____ _____    ______ ____
ROOT
ATOM      1  C   UNL     1      -3.112  -2.797   0.017  0.00  0.00    +0.171 A 
ATOM      2  N   UNL     1      -3.453  -4.116   0.019  0.00  0.00    -0.302 N 
ATOM      3  H   UNL     1      -2.760  -4.795   0.012  0.00  0.00    +0.171 HD
ATOM      4  C   UNL     1      -4.754  -4.478   0.030  0.00  0.00    +0.258 A 
ATOM      5  O   UNL     1      -5.072  -5.657   0.032  0.00  0.00    -0.267 OA
ATOM      6  C   UNL     1      -5.728  -3.476   0.039  0.00  0.00    +0.065 A 
ATOM      7  C   UNL     1      -5.331  -2.150   0.037  0.00  0.00    +0.137 A 
ATOM      8  N   UNL     1      -4.028  -1.850   0.031  0.00  0.00    -0.208 NA
ATOM      9  N   UNL     1      -6.282  -1.143   0.045  0.00  0.00    -0.270 N 
ATOM     10  C   UNL     1      -7.549  -1.399   0.418  0.00  0.00    +0.219 C 
ATOM     11  O   UNL     1      -8.370  -0.507   0.402  0.00  0.00    -0.275 OA
ATOM     12  C   UNL     1      -7.961  -2.780   0.856  0.00  0.00    +0.109 C 
ATOM     13  C   UNL     1      -7.191  -3.829   0.052  0.00  0.00    +0.068 C 
ATOM     14  H   UNL     1      -6.032  -0.244  -0.221  0.00  0.00    +0.156 HD
ENDROOT
BRANCH  13  15
ATOM     15  C   UNL     1      -7.713  -3.861  -1.361  0.00  0.00    -0.021 A 
ATOM     16  C   UNL     1      -7.645  -2.728  -2.149  0.00  0.00    +0.005 A 
ATOM     17  C   UNL     1      -8.123  -2.757  -3.445  0.00  0.00    +0.000 A 
ATOM     18  C   UNL     1      -8.670  -3.921  -3.955  0.00  0.00    +0.001 A 
ATOM     19  C   UNL     1      -8.738  -5.054  -3.168  0.00  0.00    +0.020 A 
ATOM     20  C   UNL     1      -8.254  -5.027  -1.872  0.00  0.00    +0.045 A 
ATOM     21 CL   UNL     1      -8.334  -6.453  -0.885  0.00  0.00    -0.083 Cl
ENDBRANCH  13  15
BRANCH   1  22
ATOM     22  S   UNL     1      -1.409  -2.348   0.003  0.00  0.00    -0.088 S 
BRANCH  22  23
ATOM     23  C   UNL     1      -1.433  -0.534   0.013  0.00  0.00    +0.077 C 
BRANCH  23  25
ATOM     24  C   UNL     1      -0.019   1.526   0.010  0.00  0.00    +0.004 C 
ATOM     25  C   UNL     1       0.002  -0.004   0.002  0.00  0.00    +0.008 C 
ENDBRANCH  23  25
ENDBRANCH  22  23
ENDBRANCH   1  22
TORSDOF 4
