REMARK  Name = ZINC20759552
REMARK  12 active torsions:
REMARK  status: ('A' for Active; 'I' for Inactive)
REMARK    1  A    between atoms: C_1  and  C_2
REMARK    2  A    between atoms: C_6  and  O_32
REMARK    3  A    between atoms: C_7  and  C_31
REMARK    4  A    between atoms: C_12  and  C_13
REMARK    5  A    between atoms: C_13  and  C_14
REMARK    6  A    between atoms: N_16  and  C_17
REMARK    7  A    between atoms: C_17  and  C_18
REMARK    8  A    between atoms: C_18  and  N_24
REMARK    9  A    between atoms: N_27  and  C_30
REMARK   10  A    between atoms: O_32  and  C_33
REMARK   11  A    between atoms: C_33  and  C_34
REMARK   12  A    between atoms: C_34  and  C_36
REMARK                            x       y       z     vdW  Elec       q    Type
REMARK                         _______ _______ _______ _____ _____    ______ ____
ROOT
ATOM      1  C   UNL     1       2.616   0.268  -0.531  0.00  0.00    +0.138 C 
ENDROOT
BRANCH   1  13
ATOM      2  C   UNL     1       0.221   1.858  -0.258  0.00  0.00    +0.045 C 
ATOM      3  C   UNL     1       0.139   0.358  -0.381  0.00  0.00    -0.029 A 
ATOM      4  C   UNL     1      -1.155  -0.327  -0.371  0.00  0.00    +0.021 A 
ATOM      5  C   UNL     1      -2.350   0.391  -0.247  0.00  0.00    +0.015 A 
ATOM      6  C   UNL     1      -3.542  -0.273  -0.241  0.00  0.00    +0.047 A 
ATOM      7  C   UNL     1      -3.578  -1.661  -0.358  0.00  0.00    +0.127 A 
ATOM      8  C   UNL     1      -2.405  -2.388  -0.481  0.00  0.00    +0.034 A 
ATOM      9  C   UNL     1      -1.185  -1.729  -0.489  0.00  0.00    +0.146 A 
ATOM     10  O   UNL     1      -0.029  -2.418  -0.609  0.00  0.00    -0.422 OA
ATOM     11  C   UNL     1       1.160  -1.796  -0.619  0.00  0.00    +0.341 A 
ATOM     12  O   UNL     1       2.175  -2.459  -0.729  0.00  0.00    -0.245 OA
ATOM     13  C   UNL     1       1.263  -0.394  -0.510  0.00  0.00    +0.049 A 
ATOM     14  C   UNL     1      -2.455  -3.889  -0.606  0.00  0.00    +0.051 C 
BRANCH   7  15
ATOM     15  O   UNL     1      -4.772  -2.307  -0.349  0.00  0.00    -0.487 OA
BRANCH  15  16
ATOM     16  C   UNL     1      -5.945  -1.501  -0.219  0.00  0.00    +0.259 C 
BRANCH  16  17
ATOM     17  C   UNL     1      -7.165  -2.385  -0.230  0.00  0.00    -0.043 C 
ATOM     18  C   UNL     1      -7.033  -3.683  -0.347  0.00  0.00    +0.011 C 
ATOM     19  C   UNL     1      -8.538  -1.775  -0.105  0.00  0.00    +0.042 C 
ENDBRANCH  16  17
ENDBRANCH  15  16
ENDBRANCH   7  15
ENDBRANCH   1  13
BRANCH   1  20
ATOM     20  C   UNL     1       3.195   0.275   0.860  0.00  0.00    +0.218 C 
ATOM     21  O   UNL     1       2.569  -0.210   1.779  0.00  0.00    -0.275 OA
ATOM     22  N   UNL     1       4.407   0.820   1.084  0.00  0.00    -0.313 N 
ATOM     23  H   UNL     1       4.907   1.208   0.349  0.00  0.00    +0.149 HD
BRANCH  22  24
ATOM     24  C   UNL     1       4.969   0.826   2.437  0.00  0.00    +0.126 C 
BRANCH  24  25
ATOM     25  C   UNL     1       6.284   1.608   2.439  0.00  0.00    +0.037 C 
ATOM     26  C   UNL     1       6.932   1.512   3.821  0.00  0.00    +0.024 C 
ATOM     27  C   UNL     1       5.987   2.100   4.870  0.00  0.00    +0.002 C 
ATOM     28  C   UNL     1       5.707   3.568   4.539  0.00  0.00    +0.000 C 
ATOM     29  C   UNL     1       5.059   3.664   3.157  0.00  0.00    +0.002 C 
ATOM     30  C   UNL     1       6.005   3.076   2.108  0.00  0.00    +0.024 C 
BRANCH  25  31
ATOM     31  N   UNL     1       7.192   1.044   1.432  0.00  0.00    -0.299 NA
ATOM     32  C   UNL     1       7.424  -0.387   1.675  0.00  0.00    +0.066 C 
ATOM     33  C   UNL     1       8.324  -0.950   0.573  0.00  0.00    -0.064 C 
ATOM     34  N   UNL     1       9.601  -0.223   0.565  0.00  0.00    +0.379 N 
ATOM     35  C   UNL     1       9.355   1.200   0.297  0.00  0.00    -0.064 C 
ATOM     36  C   UNL     1       8.463   1.780   1.396  0.00  0.00    +0.066 C 
ATOM     37  C   UNL     1      10.472  -0.775  -0.481  0.00  0.00    -0.096 C 
ATOM     38  H   UNL     1      10.050  -0.323   1.463  0.00  0.00    -0.082 HD
ENDBRANCH  25  31
ENDBRANCH  24  25
ENDBRANCH  22  24
ENDBRANCH   1  20
TORSDOF 8
