REMARK  Name = ZINC35743060
REMARK  10 active torsions:
REMARK  status: ('A' for Active; 'I' for Inactive)
REMARK    1  A    between atoms: C_4  and  C_7
REMARK    2  A    between atoms: C_7  and  C_8
REMARK    3  A    between atoms: C_8  and  C_10
REMARK    4  A    between atoms: C_8  and  O_34
REMARK    5  A    between atoms: C_10  and  N_11
REMARK    6  A    between atoms: N_11  and  C_12
REMARK    7  A    between atoms: N_11  and  C_20
REMARK    8  A    between atoms: C_12  and  C_13
REMARK    9  A    between atoms: C_20  and  C_21
REMARK   10  A    between atoms: C_24  and  C_27
REMARK                            x       y       z     vdW  Elec       q    Type
REMARK                         _______ _______ _______ _____ _____    ______ ____
ROOT
ATOM      1  N   UNL     1       6.046  -2.139   2.860  0.00  0.00    +0.386 N 
ATOM      2  H   UNL     1       6.207  -1.424   3.554  0.00  0.00    -0.081 HD
ENDROOT
BRANCH   1   3
ATOM      3  C   UNL     1       5.760  -1.509   1.564  0.00  0.00    -0.046 C 
BRANCH   3   4
ATOM      4  C   UNL     1       4.591  -0.534   1.718  0.00  0.00    +0.102 C 
BRANCH   4   5
ATOM      5  O   UNL     1       4.975   0.537   2.582  0.00  0.00    -0.393 OA
ATOM      6  H   UNL     1       5.732   1.048   2.264  0.00  0.00    +0.210 HD
ENDBRANCH   4   5
BRANCH   4   7
ATOM      7  C   UNL     1       4.213   0.029   0.346  0.00  0.00    +0.064 C 
BRANCH   7  11
ATOM      8  C   UNL     1       0.734   2.479   0.721  0.00  0.00    +0.000 A 
ATOM      9  C   UNL     1       1.991   3.037   0.861  0.00  0.00    +0.000 A 
ATOM     10  C   UNL     1       3.117   2.244   0.740  0.00  0.00    +0.004 A 
ATOM     11  C   UNL     1       2.985   0.893   0.479  0.00  0.00    -0.045 A 
ATOM     12  C   UNL     1       1.728   0.335   0.340  0.00  0.00    +0.004 A 
ATOM     13  C   UNL     1       0.603   1.128   0.459  0.00  0.00    +0.000 A 
ENDBRANCH   7  11
ENDBRANCH   4   7
ENDBRANCH   3   4
ENDBRANCH   1   3
BRANCH   1  14
ATOM     14  C   UNL     1       4.901  -2.965   3.266  0.00  0.00    -0.043 C 
BRANCH  14  15
ATOM     15  C   UNL     1       4.632  -4.005   2.209  0.00  0.00    -0.063 A 
ATOM     16  C   UNL     1       3.802  -3.708   1.143  0.00  0.00    +0.002 A 
ATOM     17  C   UNL     1       3.555  -4.661   0.173  0.00  0.00    +0.002 A 
ATOM     18  C   UNL     1       4.137  -5.911   0.268  0.00  0.00    +0.020 A 
ATOM     19  C   UNL     1       4.967  -6.209   1.334  0.00  0.00    +0.041 A 
ATOM     20  C   UNL     1       5.219  -5.252   2.301  0.00  0.00    +0.021 A 
ATOM     21 CL   UNL     1       5.698  -7.779   1.453  0.00  0.00    -0.084 Cl
ENDBRANCH  14  15
ENDBRANCH   1  14
BRANCH   1  22
ATOM     22  C   UNL     1       7.242  -2.984   2.741  0.00  0.00    -0.030 C 
BRANCH  22  23
ATOM     23  C   UNL     1       7.672  -3.458   4.131  0.00  0.00    +0.194 C 
ATOM     24  C   UNL     1       8.930  -4.354   4.045  0.00  0.00    +0.104 C 
ATOM     25  C   UNL     1       8.659  -5.405   5.106  0.00  0.00    +0.091 C 
ATOM     26  N   UNL     1       7.407  -5.352   5.417  0.00  0.00    -0.089 NA
ATOM     27  O   UNL     1       6.700  -4.365   4.690  0.00  0.00    -0.392 OA
BRANCH  25  28
ATOM     28  C   UNL     1       9.655  -6.329   5.682  0.00  0.00    -0.000 A 
ATOM     29  C   UNL     1      10.985  -6.279   5.259  0.00  0.00    +0.011 A 
ATOM     30  C   UNL     1      11.911  -7.145   5.802  0.00  0.00    +0.020 A 
ATOM     31  C   UNL     1      11.524  -8.063   6.764  0.00  0.00    +0.041 A 
ATOM     32  C   UNL     1      10.207  -8.118   7.187  0.00  0.00    +0.020 A 
ATOM     33  C   UNL     1       9.273  -7.253   6.657  0.00  0.00    +0.011 A 
ATOM     34 CL   UNL     1      12.696  -9.150   7.442  0.00  0.00    -0.084 Cl
ENDBRANCH  25  28
ENDBRANCH  22  23
ENDBRANCH   1  22
TORSDOF 10
