REMARK  Name = ZINC01158406
REMARK  4 active torsions:
REMARK  status: ('A' for Active; 'I' for Inactive)
REMARK    1  A    between atoms: C_4  and  N_7
REMARK    2  A    between atoms: C_8  and  C_19
REMARK    3  A    between atoms: C_20  and  C_21
REMARK    4  A    between atoms: C_24  and  N_27
REMARK                            x       y       z     vdW  Elec       q    Type
REMARK                         _______ _______ _______ _____ _____    ______ ____
ROOT
ATOM      1  N   UNL     1       2.390   4.188  -0.191  0.00  0.00    -0.245 N 
ATOM      2  C   UNL     1       3.370   3.521  -1.048  0.00  0.00    +0.190 C 
ATOM      3  N   UNL     1       3.660   2.176  -0.538  0.00  0.00    -0.322 N 
ATOM      4  C   UNL     1       2.603   1.382  -0.107  0.00  0.00    +0.041 A 
ATOM      5  C   UNL     1       2.662  -0.001  -0.158  0.00  0.00    +0.024 A 
ATOM      6  C   UNL     1       1.593  -0.748   0.297  0.00  0.00    +0.002 A 
ATOM      7  C   UNL     1       0.464  -0.126   0.806  0.00  0.00    +0.001 A 
ATOM      8  C   UNL     1       0.388   1.250   0.861  0.00  0.00    +0.015 A 
ATOM      9  C   UNL     1       1.456   2.017   0.400  0.00  0.00    +0.058 A 
ATOM     10  C   UNL     1       1.424   3.489   0.438  0.00  0.00    +0.254 C 
ATOM     11  O   UNL     1       0.534   4.069   1.030  0.00  0.00    -0.270 OA
ATOM     12  H   UNL     1       4.572   1.847  -0.504  0.00  0.00    +0.148 HD
ENDROOT
BRANCH   1  16
ATOM     13  C   UNL     1       2.592   8.318   0.321  0.00  0.00    +0.000 A 
ATOM     14  C   UNL     1       1.810   7.785  -0.688  0.00  0.00    +0.002 A 
ATOM     15  C   UNL     1       1.742   6.416  -0.861  0.00  0.00    +0.023 A 
ATOM     16  C   UNL     1       2.458   5.575  -0.019  0.00  0.00    +0.039 A 
ATOM     17  C   UNL     1       3.237   6.113   0.997  0.00  0.00    +0.023 A 
ATOM     18  C   UNL     1       3.306   7.483   1.160  0.00  0.00    +0.002 A 
ENDBRANCH   1  16
BRANCH   2  19
ATOM     19  C   UNL     1       2.819   3.417  -2.447  0.00  0.00    +0.016 C 
ATOM     20  C   UNL     1       3.453   4.002  -3.454  0.00  0.00    +0.007 C 
BRANCH  20  21
ATOM     21  C   UNL     1       2.913   3.899  -4.826  0.00  0.00    -0.025 A 
ATOM     22  C   UNL     1       1.739   3.183  -5.066  0.00  0.00    +0.010 A 
ATOM     23  C   UNL     1       1.238   3.095  -6.348  0.00  0.00    +0.033 A 
ATOM     24  C   UNL     1       1.901   3.706  -7.397  0.00  0.00    +0.126 A 
ATOM     25  C   UNL     1       3.067   4.414  -7.167  0.00  0.00    +0.033 A 
ATOM     26  C   UNL     1       3.577   4.514  -5.889  0.00  0.00    +0.010 A 
BRANCH  24  27
ATOM     27  N   UNL     1       1.361   3.603  -8.771  0.00  0.00    +0.056 N 
ATOM     28  O   UNL     1       1.943   4.140  -9.696  0.00  0.00    -0.126 OA
ATOM     29  O   UNL     1       0.335   2.980  -8.976  0.00  0.00    -0.126 OA
ENDBRANCH  24  27
ENDBRANCH  20  21
ENDBRANCH   2  19
TORSDOF 4
