REMARK  Name = ZINC63824982
REMARK  6 active torsions:
REMARK  status: ('A' for Active; 'I' for Inactive)
REMARK    1  A    between atoms: C_1  and  N_2
REMARK    2  A    between atoms: C_3  and  C_5
REMARK    3  A    between atoms: C_16  and  C_18
REMARK    4  A    between atoms: C_18  and  C_19
REMARK    5  A    between atoms: C_19  and  C_20
REMARK    6  A    between atoms: C_28  and  C_30
REMARK                            x       y       z     vdW  Elec       q    Type
REMARK                         _______ _______ _______ _____ _____    ______ ____
ROOT
ATOM      1  C   UNL     1      -1.451  -6.446   0.466  0.00  0.00    +0.101 C 
ENDROOT
BRANCH   1  12
ATOM      2  C   UNL     1       0.435  -3.999   3.297  0.00  0.00    +0.276 C 
ATOM      3  C   UNL     1       0.333  -4.798   1.990  0.00  0.00    +0.168 C 
ATOM      4  N   UNL     1      -0.734  -4.188   1.178  0.00  0.00    -0.264 N 
ATOM      5  C   UNL     1      -0.797  -2.784   1.130  0.00  0.00    +0.078 A 
ATOM      6  C   UNL     1      -1.580  -2.156   0.175  0.00  0.00    +0.027 A 
ATOM      7  C   UNL     1      -1.641  -0.775   0.135  0.00  0.00    +0.002 A 
ATOM      8  C   UNL     1      -0.921  -0.023   1.045  0.00  0.00    +0.004 A 
ATOM      9  C   UNL     1      -0.138  -0.645   1.999  0.00  0.00    +0.047 A 
ATOM     10  C   UNL     1      -0.069  -2.029   2.046  0.00  0.00    +0.143 A 
ATOM     11  O   UNL     1       0.709  -2.631   2.984  0.00  0.00    -0.476 OA
ATOM     12  C   UNL     1      -1.620  -4.948   0.504  0.00  0.00    +0.220 C 
ATOM     13  O   UNL     1      -2.552  -4.428  -0.071  0.00  0.00    -0.275 OA
BRANCH   2  16
ATOM     14  C   UNL     1       2.545  -6.349   5.461  0.00  0.00    +0.128 C 
ATOM     15  N   UNL     1       1.461  -5.807   4.639  0.00  0.00    -0.315 N 
ATOM     16  C   UNL     1       1.551  -4.557   4.143  0.00  0.00    +0.255 C 
ATOM     17  O   UNL     1       2.530  -3.881   4.378  0.00  0.00    -0.272 OA
ATOM     18  H   UNL     1       0.678  -6.348   4.451  0.00  0.00    +0.148 HD
ENDBRANCH   2  16
ENDBRANCH   1  12
BRANCH   1  19
ATOM     19  C   UNL     1      -2.507  -7.054  -0.459  0.00  0.00    +0.043 C 
BRANCH  19  20
ATOM     20  C   UNL     1      -2.419  -8.557  -0.402  0.00  0.00    -0.034 C 
ATOM     21  C   UNL     1      -1.502  -9.293   0.267  0.00  0.00    -0.000 A 
ATOM     22  C   UNL     1      -0.356  -8.928   1.108  0.00  0.00    +0.010 A 
ATOM     23  C   UNL     1       0.396  -9.911   1.654  0.00  0.00    +0.001 A 
ATOM     24  C   UNL     1       0.110 -11.265   1.437  0.00  0.00    +0.002 A 
ATOM     25  C   UNL     1      -0.926 -11.679   0.677  0.00  0.00    +0.026 A 
ATOM     26  C   UNL     1      -1.784 -10.731   0.054  0.00  0.00    +0.043 A 
ATOM     27  N   UNL     1      -2.834 -10.878  -0.717  0.00  0.00    -0.374 N 
ATOM     28  C   UNL     1      -3.341  -9.549  -1.075  0.00  0.00    +0.137 C 
ATOM     29  H   UNL     1      -3.215 -11.724  -1.000  0.00  0.00    +0.161 HD
BRANCH  28  30
ATOM     30  C   UNL     1      -3.299  -9.365  -2.571  0.00  0.00    -0.021 A 
ATOM     31  C   UNL     1      -2.260  -9.908  -3.304  0.00  0.00    +0.009 A 
ATOM     32  C   UNL     1      -2.220  -9.741  -4.675  0.00  0.00    +0.039 A 
ATOM     33  C   UNL     1      -3.221  -9.029  -5.315  0.00  0.00    +0.123 A 
ATOM     34  C   UNL     1      -4.261  -8.486  -4.579  0.00  0.00    +0.039 A 
ATOM     35  C   UNL     1      -4.301  -8.659  -3.209  0.00  0.00    +0.009 A 
ATOM     36  F   UNL     1      -3.182  -8.865  -6.655  0.00  0.00    -0.205 F 
ENDBRANCH  28  30
ENDBRANCH  19  20
ENDBRANCH   1  19
TORSDOF 5
