REMARK  Name = ZINC13031207
REMARK  13 active torsions:
REMARK  status: ('A' for Active; 'I' for Inactive)
REMARK    1  A    between atoms: C_1  and  C_2
REMARK    2  A    between atoms: C_5  and  N_9
REMARK    3  A    between atoms: C_6  and  C_8
REMARK    4  A    between atoms: N_9  and  C_10
REMARK    5  A    between atoms: C_10  and  C_12
REMARK    6  A    between atoms: C_10  and  C_18
REMARK    7  A    between atoms: N_20  and  C_21
REMARK    8  A    between atoms: C_21  and  C_22
REMARK    9  A    between atoms: C_22  and  C_23
REMARK   10  A    between atoms: C_23  and  C_24
REMARK   11  A    between atoms: C_23  and  C_25
REMARK   12  A    between atoms: C_26  and  C_28
REMARK   13  A    between atoms: C_28  and  N_29
REMARK                            x       y       z     vdW  Elec       q    Type
REMARK                         _______ _______ _______ _____ _____    ______ ____
ROOT
ATOM      1  N   UNL     1      -5.281   2.494  -2.504  0.00  0.00    -0.254 N 
ATOM      2  C   UNL     1      -3.941   2.641  -2.473  0.00  0.00    +0.242 C 
ATOM      3  O   UNL     1      -3.425   3.608  -2.993  0.00  0.00    -0.273 OA
ENDROOT
BRANCH   1   8
ATOM      4  C   UNL     1      -7.693  -2.029  -0.074  0.00  0.00    +0.044 C 
ATOM      5  C   UNL     1      -7.052  -0.827  -0.720  0.00  0.00    -0.050 A 
ATOM      6  C   UNL     1      -6.884   0.338   0.006  0.00  0.00    +0.005 A 
ATOM      7  C   UNL     1      -6.293   1.439  -0.581  0.00  0.00    +0.024 A 
ATOM      8  C   UNL     1      -5.876   1.379  -1.905  0.00  0.00    +0.040 A 
ATOM      9  C   UNL     1      -6.046   0.207  -2.630  0.00  0.00    -0.029 A 
ATOM     10  C   UNL     1      -6.634  -0.893  -2.035  0.00  0.00    +0.008 A 
ATOM     11  C   UNL     1      -5.589   0.135  -4.065  0.00  0.00    +0.045 C 
ENDBRANCH   1   8
BRANCH   1  12
ATOM     12  C   UNL     1      -6.113   3.502  -3.165  0.00  0.00    +0.197 C 
BRANCH  12  13
ATOM     13  C   UNL     1      -5.906   4.839  -2.501  0.00  0.00    -0.015 A 
ATOM     14  C   UNL     1      -5.937   4.958  -1.120  0.00  0.00    +0.025 A 
ATOM     15  C   UNL     1      -5.738   6.200  -0.546  0.00  0.00    +0.111 A 
ATOM     16  N   UNL     1      -5.531   7.264  -1.297  0.00  0.00    -0.263 NA
ATOM     17  C   UNL     1      -5.500   7.189  -2.613  0.00  0.00    +0.111 A 
ATOM     18  C   UNL     1      -5.685   5.980  -3.257  0.00  0.00    +0.025 A 
ENDBRANCH  12  13
BRANCH  12  19
ATOM     19  C   UNL     1      -7.563   3.106  -3.055  0.00  0.00    +0.238 C 
ATOM     20  O   UNL     1      -7.995   2.669  -2.010  0.00  0.00    -0.273 OA
ATOM     21  N   UNL     1      -8.380   3.239  -4.119  0.00  0.00    -0.313 N 
ATOM     22  H   UNL     1      -8.035   3.589  -4.955  0.00  0.00    +0.149 HD
BRANCH  21  23
ATOM     23  C   UNL     1      -9.790   2.854  -4.013  0.00  0.00    +0.104 C 
BRANCH  23  24
ATOM     24  C   UNL     1     -10.489   3.102  -5.351  0.00  0.00    +0.022 C 
BRANCH  24  25
ATOM     25  C   UNL     1     -11.961   2.700  -5.239  0.00  0.00    -0.016 C 
ATOM     26  C   UNL     1     -12.666   3.618  -4.238  0.00  0.00    +0.007 C 
ATOM     27  C   UNL     1     -12.630   2.830  -6.609  0.00  0.00    +0.007 C 
ENDBRANCH  24  25
ENDBRANCH  23  24
ENDBRANCH  21  23
ENDBRANCH  12  19
ENDBRANCH   1  12
BRANCH   2  28
ATOM     28  C   UNL     1      -3.085   1.605  -1.793  0.00  0.00    +0.242 C 
BRANCH  28  29
ATOM     29  N   UNL     1      -1.675   1.992  -1.897  0.00  0.00    -0.235 N 
ATOM     30  C   UNL     1      -0.802   1.655  -2.903  0.00  0.00    +0.090 A 
ATOM     31  C   UNL     1      -0.915   0.911  -4.072  0.00  0.00    +0.029 A 
ATOM     32  C   UNL     1       0.172   0.755  -4.886  0.00  0.00    +0.002 A 
ATOM     33  C   UNL     1       1.389   1.342  -4.561  0.00  0.00    +0.002 A 
ATOM     34  C   UNL     1       1.524   2.081  -3.422  0.00  0.00    +0.032 A 
ATOM     35  C   UNL     1       0.426   2.252  -2.568  0.00  0.00    +0.113 A 
ATOM     36  N   UNL     1       0.258   2.910  -1.404  0.00  0.00    -0.129 NA
ATOM     37  N   UNL     1      -0.952   2.778  -0.987  0.00  0.00    -0.064 NA
ENDBRANCH  28  29
ENDBRANCH   2  28
TORSDOF 9
