REMARK  Name = ZINC35969700
REMARK  11 active torsions:
REMARK  status: ('A' for Active; 'I' for Inactive)
REMARK    1  A    between atoms: C_1  and  C_2
REMARK    2  A    between atoms: C_2  and  C_3
REMARK    3  A    between atoms: C_4  and  C_31
REMARK    4  A    between atoms: C_5  and  C_25
REMARK    5  A    between atoms: C_8  and  C_13
REMARK    6  A    between atoms: C_14  and  N_16
REMARK    7  A    between atoms: N_16  and  C_17
REMARK    8  A    between atoms: N_16  and  C_18
REMARK    9  A    between atoms: N_22  and  C_24
REMARK   10  A    between atoms: C_31  and  O_33
REMARK   11  A    between atoms: O_33  and  C_34
REMARK                            x       y       z     vdW  Elec       q    Type
REMARK                         _______ _______ _______ _____ _____    ______ ____
ROOT
ATOM      1  C   UNL     1       0.971  -0.962   1.183  0.00  0.00    +0.056 C 
ATOM      2  C   UNL     1       0.210  -1.179   2.316  0.00  0.00    +0.083 C 
ATOM      3  C   UNL     1       0.937  -1.374   3.627  0.00  0.00    +0.150 C 
ATOM      4  N   UNL     1       2.422  -1.316   3.593  0.00  0.00    -0.267 N 
ATOM      5  C   UNL     1       3.285  -1.465   4.661  0.00  0.00    +0.048 C 
ATOM      6  C   UNL     1       4.610  -1.378   4.413  0.00  0.00    +0.072 C 
ATOM      7  S   UNL     1       4.638  -1.081   2.656  0.00  0.00    -0.060 S 
ATOM      8  C   UNL     1       2.985  -1.090   2.368  0.00  0.00    +0.166 C 
ATOM      9  N   UNL     1       2.292  -0.934   1.258  0.00  0.00    -0.229 NA
ENDROOT
BRANCH   3  10
ATOM     10  C   UNL     1       0.538  -2.716   4.184  0.00  0.00    -0.022 A 
ATOM     11  C   UNL     1       1.102  -3.871   3.674  0.00  0.00    +0.006 A 
ATOM     12  C   UNL     1       0.737  -5.102   4.184  0.00  0.00    +0.000 A 
ATOM     13  C   UNL     1      -0.193  -5.180   5.204  0.00  0.00    +0.000 A 
ATOM     14  C   UNL     1      -0.756  -4.025   5.715  0.00  0.00    +0.000 A 
ATOM     15  C   UNL     1      -0.387  -2.793   5.208  0.00  0.00    +0.006 A 
ENDBRANCH   3  10
BRANCH   5  16
ATOM     16  C   UNL     1       2.779  -1.711   6.019  0.00  0.00    +0.091 C 
ATOM     17  C   UNL     1       3.637  -2.007   7.014  0.00  0.00    +0.241 C 
ATOM     18  O   UNL     1       4.973  -1.968   6.790  0.00  0.00    -0.271 OA
BRANCH  17  19
ATOM     19  N   UNL     1       3.154  -2.352   8.265  0.00  0.00    -0.300 N 
ATOM     20  C   UNL     1       1.711  -2.477   8.484  0.00  0.00    +0.132 C 
BRANCH  19  21
ATOM     21  C   UNL     1       4.087  -2.592   9.369  0.00  0.00    +0.058 C 
ATOM     22  C   UNL     1       3.895  -4.019   9.933  0.00  0.00    +0.002 C 
ATOM     23  C   UNL     1       4.054  -3.812  11.460  0.00  0.00    -0.077 C 
ATOM     24  N   UNL     1       3.398  -2.501  11.696  0.00  0.00    +0.379 N 
ATOM     25  C   UNL     1       3.776  -1.647  10.545  0.00  0.00    -0.057 C 
ATOM     26  C   UNL     1       3.888  -1.907  12.947  0.00  0.00    -0.096 C 
ATOM     27  H   UNL     1       2.397  -2.614  11.732  0.00  0.00    -0.082 HD
ENDBRANCH  19  21
ENDBRANCH  17  19
ENDBRANCH   5  16
BRANCH   1  29
ATOM     28  C   UNL     1      -0.103   0.707  -0.304  0.00  0.00    +0.010 C 
ATOM     29  C   UNL     1       0.293  -0.763  -0.148  0.00  0.00    +0.053 C 
ENDBRANCH   1  29
BRANCH   2  30
ATOM     30  C   UNL     1      -1.188  -1.216   2.251  0.00  0.00    +0.339 C 
ATOM     31  O   UNL     1      -1.751  -1.135   1.173  0.00  0.00    -0.245 OA
BRANCH  30  32
ATOM     32  O   UNL     1      -1.914  -1.343   3.384  0.00  0.00    -0.465 OA
ATOM     33  C   UNL     1      -3.336  -1.374   3.243  0.00  0.00    +0.280 C 
ENDBRANCH  30  32
ENDBRANCH   2  30
TORSDOF 7
