REMARK  Name = ZINC41586564
REMARK  10 active torsions:
REMARK  status: ('A' for Active; 'I' for Inactive)
REMARK    1  A    between atoms: C_1  and  C_2
REMARK    2  A    between atoms: C_2  and  O_3
REMARK    3  A    between atoms: O_3  and  C_4
REMARK    4  A    between atoms: C_4  and  C_6
REMARK    5  A    between atoms: N_11  and  C_13
REMARK    6  A    between atoms: C_13  and  C_14
REMARK    7  A    between atoms: C_15  and  O_38
REMARK    8  A    between atoms: C_24  and  C_25
REMARK    9  A    between atoms: C_31  and  O_36
REMARK   10  A    between atoms: O_36  and  C_37
REMARK                            x       y       z     vdW  Elec       q    Type
REMARK                         _______ _______ _______ _____ _____    ______ ____
ROOT
ATOM      1  C   UNL     1       2.620  -6.455  -4.920  0.00  0.00    +0.020 A 
ATOM      2  C   UNL     1       1.805  -6.653  -6.023  0.00  0.00    +0.122 A 
ATOM      3  C   UNL     1       2.328  -7.168  -7.206  0.00  0.00    +0.046 A 
ATOM      4  C   UNL     1       3.654  -7.485  -7.294  0.00  0.00    +0.016 A 
ATOM      5  C   UNL     1       4.489  -7.292  -6.191  0.00  0.00    +0.026 A 
ATOM      6  C   UNL     1       3.969  -6.767  -4.996  0.00  0.00    +0.144 A 
ATOM      7  O   UNL     1       4.780  -6.577  -3.933  0.00  0.00    -0.422 OA
ATOM      8  C   UNL     1       6.089  -6.870  -3.976  0.00  0.00    +0.338 A 
ATOM      9  O   UNL     1       6.772  -6.678  -2.986  0.00  0.00    -0.245 OA
ATOM     10  C   UNL     1       6.693  -7.392  -5.130  0.00  0.00    +0.101 A 
ATOM     11  C   UNL     1       5.923  -7.625  -6.258  0.00  0.00    +0.006 A 
ENDROOT
BRANCH  11  12
ATOM     12  C   UNL     1       6.521  -8.172  -7.489  0.00  0.00    +0.068 A 
ATOM     13  C   UNL     1       7.131  -9.418  -7.502  0.00  0.00    +0.027 A 
ATOM     14  C   UNL     1       7.713  -9.864  -8.717  0.00  0.00    +0.022 A 
ATOM     15  C   UNL     1       8.163 -11.187  -8.847  0.00  0.00    +0.012 A 
ATOM     16  C   UNL     1       8.683 -11.615 -10.034  0.00  0.00    +0.004 A 
ATOM     17  C   UNL     1       8.779 -10.752 -11.117  0.00  0.00    +0.049 A 
ATOM     18  C   UNL     1       8.360  -9.438 -11.008  0.00  0.00    +0.163 A 
ATOM     19  C   UNL     1       7.833  -8.979  -9.803  0.00  0.00    +0.180 A 
ATOM     20  O   UNL     1       7.458  -7.683  -9.668  0.00  0.00    -0.418 OA
ATOM     21  C   UNL     1       6.490  -7.420  -8.757  0.00  0.00    +0.345 A 
ATOM     22  O   UNL     1       5.628  -6.589  -8.974  0.00  0.00    -0.245 OA
BRANCH  18  23
ATOM     23  O   UNL     1       8.463  -8.599 -12.072  0.00  0.00    -0.491 OA
ATOM     24  C   UNL     1       9.013  -9.140 -13.275  0.00  0.00    +0.277 C 
ENDBRANCH  18  23
ENDBRANCH  11  12
BRANCH   2  25
ATOM     25  O   UNL     1       0.485  -6.343  -5.950  0.00  0.00    -0.506 OA
ATOM     26  H   UNL     1       0.280  -5.433  -6.206  0.00  0.00    +0.292 HD
ENDBRANCH   2  25
BRANCH   1  27
ATOM     27  C   UNL     1       2.043  -5.897  -3.645  0.00  0.00    -0.036 C 
BRANCH  27  32
ATOM     28  C   UNL     1       1.468  -2.353  -2.550  0.00  0.00    +0.081 C 
ATOM     29  C   UNL     1       2.919  -1.864  -2.583  0.00  0.00    +0.011 C 
ATOM     30  C   UNL     1       3.635  -2.500  -3.778  0.00  0.00    -0.018 C 
ATOM     31  C   UNL     1       3.539  -4.024  -3.670  0.00  0.00    -0.078 C 
ATOM     32  N   UNL     1       2.129  -4.430  -3.670  0.00  0.00    +0.383 N 
ATOM     33  C   UNL     1       1.452  -3.882  -2.488  0.00  0.00    -0.064 C 
ATOM     34  H   UNL     1       1.680  -4.083  -4.504  0.00  0.00    -0.081 HD
BRANCH  28  35
ATOM     35  C   UNL     1       0.775  -1.794  -1.334  0.00  0.00    +0.308 C 
ATOM     36  O   UNL     1       0.314  -2.540  -0.504  0.00  0.00    -0.251 OA
BRANCH  35  37
ATOM     37  O   UNL     1       0.671  -0.465  -1.174  0.00  0.00    -0.465 OA
BRANCH  37  39
ATOM     38  C   UNL     1      -0.019   1.526   0.010  0.00  0.00    +0.048 C 
ATOM     39  C   UNL     1       0.002  -0.004   0.002  0.00  0.00    +0.229 C 
ENDBRANCH  37  39
ENDBRANCH  35  37
ENDBRANCH  28  35
ENDBRANCH  27  32
ENDBRANCH   1  27
TORSDOF 8
