REMARK  Name = ZINC39850840
REMARK  7 active torsions:
REMARK  status: ('A' for Active; 'I' for Inactive)
REMARK    1  A    between atoms: C_3  and  C_6
REMARK    2  A    between atoms: C_6  and  N_7
REMARK    3  A    between atoms: C_10  and  C_24
REMARK    4  A    between atoms: N_14  and  C_15
REMARK    5  A    between atoms: C_18  and  C_21
REMARK    6  A    between atoms: C_24  and  C_25
REMARK    7  A    between atoms: C_27  and  C_32
REMARK                            x       y       z     vdW  Elec       q    Type
REMARK                         _______ _______ _______ _____ _____    ______ ____
ROOT
ATOM      1  N   UNL     1       4.101   0.607   1.347  0.00  0.00    -0.242 N 
ATOM      2  C   UNL     1       4.341   1.757   1.951  0.00  0.00    +0.235 C 
ATOM      3  O   UNL     1       4.159   2.824   1.403  0.00  0.00    -0.274 OA
ATOM      4  C   UNL     1       4.859   1.660   3.378  0.00  0.00    +0.145 C 
ATOM      5  S   UNL     1       4.903  -0.168   3.586  0.00  0.00    -0.077 S 
ATOM      6  C   UNL     1       4.299  -0.609   1.963  0.00  0.00    +0.164 C 
ATOM      7  N   UNL     1       4.093  -1.812   1.472  0.00  0.00    -0.226 NA
ENDROOT
BRANCH   7   8
ATOM      8  C   UNL     1       4.348  -2.912   2.235  0.00  0.00    +0.067 A 
ATOM      9  C   UNL     1       5.528  -2.986   2.984  0.00  0.00    +0.028 A 
ATOM     10  C   UNL     1       5.783  -4.087   3.748  0.00  0.00    +0.017 A 
ATOM     11  C   UNL     1       4.863  -5.144   3.782  0.00  0.00    +0.063 A 
ATOM     12  C   UNL     1       3.682  -5.069   3.032  0.00  0.00    +0.017 A 
ATOM     13  C   UNL     1       3.425  -3.965   2.274  0.00  0.00    +0.028 A 
BRANCH  11  14
ATOM     14  C   UNL     1       5.138  -6.330   4.605  0.00  0.00    +0.387 C 
ATOM     15  O   UNL     1       6.170  -6.396   5.259  0.00  0.00    -0.241 OA
ATOM     16  O   UNL     1       4.335  -7.253   4.635  0.00  0.00    -0.241 OA
ENDBRANCH  11  14
ENDBRANCH   7   8
BRANCH   1  17
ATOM     17  C   UNL     1       3.599   0.625  -0.029  0.00  0.00    +0.189 C 
BRANCH  17  20
ATOM     18  C   UNL     1      -0.016   1.341   0.009  0.00  0.00    +0.041 A 
ATOM     19  C   UNL     1       1.331   1.769  -0.001  0.00  0.00    +0.046 A 
ATOM     20  C   UNL     1       2.092   0.660  -0.014  0.00  0.00    +0.123 A 
ATOM     21  O   UNL     1       1.282  -0.411  -0.012  0.00  0.00    -0.466 OA
ATOM     22  C   UNL     1       0.002  -0.004   0.002  0.00  0.00    +0.195 A 
ENDBRANCH  17  20
ENDBRANCH   1  17
BRANCH   4  23
ATOM     23  C   UNL     1       3.887   2.308   4.366  0.00  0.00    +0.060 C 
BRANCH  23  24
ATOM     24  C   UNL     1       4.494   2.299   5.746  0.00  0.00    -0.027 A 
ATOM     25  C   UNL     1       5.087   3.442   6.248  0.00  0.00    +0.017 A 
ATOM     26  C   UNL     1       5.644   3.433   7.513  0.00  0.00    +0.055 A 
ATOM     27  C   UNL     1       5.607   2.281   8.277  0.00  0.00    +0.014 A 
ATOM     28  C   UNL     1       5.013   1.138   7.777  0.00  0.00    +0.021 A 
ATOM     29  C   UNL     1       4.451   1.148   6.512  0.00  0.00    +0.044 A 
ATOM     30 CL   UNL     1       3.700  -0.286   5.885  0.00  0.00    -0.083 Cl
BRANCH  26  31
ATOM     31  C   UNL     1       6.291   4.679   8.060  0.00  0.00    +0.417 C 
ATOM     32  F   UNL     1       5.335   5.442   8.740  0.00  0.00    -0.166 F 
ATOM     33  F   UNL     1       7.317   4.324   8.942  0.00  0.00    -0.166 F 
ATOM     34  F   UNL     1       6.822   5.430   7.005  0.00  0.00    -0.166 F 
ENDBRANCH  26  31
ENDBRANCH  23  24
ENDBRANCH   4  23
TORSDOF 7
