REMARK  Name = ZINC03034155
REMARK  12 active torsions:
REMARK  status: ('A' for Active; 'I' for Inactive)
REMARK    1  A    between atoms: C_1  and  C_2
REMARK    2  A    between atoms: C_2  and  C_3
REMARK    3  A    between atoms: C_3  and  C_4
REMARK    4  A    between atoms: C_4  and  N_5
REMARK    5  A    between atoms: N_5  and  C_6
REMARK    6  A    between atoms: C_6  and  C_7
REMARK    7  A    between atoms: C_8  and  C_10
REMARK    8  A    between atoms: C_10  and  S_11
REMARK    9  A    between atoms: S_11  and  C_12
REMARK   10  A    between atoms: N_20  and  C_24
REMARK   11  A    between atoms: C_29  and  O_30
REMARK   12  A    between atoms: O_30  and  C_31
REMARK                            x       y       z     vdW  Elec       q    Type
REMARK                         _______ _______ _______ _____ _____    ______ ____
ROOT
ATOM      1  C   UNL     1      -0.747   3.828   1.257  0.00  0.00    +0.172 A 
ATOM      2  N   UNL     1      -1.285   4.657   2.195  0.00  0.00    -0.301 N 
ATOM      3  H   UNL     1      -1.725   4.293   2.980  0.00  0.00    +0.171 HD
ATOM      4  C   UNL     1      -1.197   5.997   2.014  0.00  0.00    +0.268 A 
ATOM      5  O   UNL     1      -1.667   6.772   2.831  0.00  0.00    -0.267 OA
ATOM      6  C   UNL     1      -0.558   6.464   0.873  0.00  0.00    +0.122 A 
ATOM      7  C   UNL     1      -0.013   5.597  -0.076  0.00  0.00    +0.161 A 
ATOM      8  N   UNL     1      -0.140   4.272   0.185  0.00  0.00    -0.204 NA
ATOM      9  N   UNL     1       0.591   6.188  -1.157  0.00  0.00    -0.278 N 
ATOM     10  C   UNL     1       0.643   7.530  -1.273  0.00  0.00    +0.132 A 
ATOM     11  S   UNL     1       1.337   8.476  -2.520  0.00  0.00    -0.024 S 
ATOM     12  S   UNL     1      -0.199   8.070   0.208  0.00  0.00    -0.055 S 
ENDROOT
BRANCH   9  13
ATOM     13  C   UNL     1       1.163   5.384  -2.155  0.00  0.00    +0.092 A 
ATOM     14  C   UNL     1       0.400   4.970  -3.236  0.00  0.00    +0.050 A 
ATOM     15  C   UNL     1       0.967   4.182  -4.221  0.00  0.00    +0.043 A 
ATOM     16  C   UNL     1       2.293   3.797  -4.124  0.00  0.00    +0.024 A 
ATOM     17  C   UNL     1       3.058   4.202  -3.046  0.00  0.00    +0.049 A 
ATOM     18  C   UNL     1       2.497   4.996  -2.059  0.00  0.00    +0.144 A 
ATOM     19 CL   UNL     1       0.013   3.671  -5.578  0.00  0.00    -0.083 Cl
BRANCH  18  20
ATOM     20  O   UNL     1       3.249   5.395  -0.998  0.00  0.00    -0.493 OA
ATOM     21  C   UNL     1       4.609   4.959  -0.966  0.00  0.00    +0.277 C 
ENDBRANCH  18  20
ENDBRANCH   9  13
BRANCH   1  22
ATOM     22  S   UNL     1      -0.866   2.087   1.500  0.00  0.00    -0.078 S 
BRANCH  22  23
ATOM     23  C   UNL     1      -0.018   1.503   0.010  0.00  0.00    +0.173 C 
BRANCH  23  25
ATOM     24  N   UNL     1       0.585  -0.664  -1.018  0.00  0.00    -0.301 N 
ATOM     25  C   UNL     1       0.002  -0.004   0.002  0.00  0.00    +0.226 C 
ATOM     26  O   UNL     1      -0.506  -0.622   0.913  0.00  0.00    -0.275 OA
BRANCH  24  27
ATOM     27  C   UNL     1       1.199   0.083  -2.119  0.00  0.00    +0.104 C 
ATOM     28  C   UNL     1       2.669   0.356  -1.792  0.00  0.00    +0.024 C 
ENDBRANCH  24  27
BRANCH  24  29
ATOM     29  C   UNL     1       0.605  -2.129  -1.026  0.00  0.00    +0.108 C 
BRANCH  29  30
ATOM     30  C   UNL     1      -0.644  -2.652  -1.738  0.00  0.00    +0.019 C 
BRANCH  30  32
ATOM     31  C   UNL     1      -1.872  -4.705  -2.459  0.00  0.00    +0.004 C 
ATOM     32  C   UNL     1      -0.623  -4.182  -1.747  0.00  0.00    -0.002 C 
ENDBRANCH  30  32
ENDBRANCH  29  30
ENDBRANCH  24  29
ENDBRANCH  23  25
ENDBRANCH  22  23
ENDBRANCH   1  22
TORSDOF 9
