REMARK  Name = ZINC49181142
REMARK  13 active torsions:
REMARK  status: ('A' for Active; 'I' for Inactive)
REMARK    1  A    between atoms: C_3  and  O_46
REMARK    2  A    between atoms: C_10  and  O_18
REMARK    3  A    between atoms: C_14  and  C_15
REMARK    4  A    between atoms: O_18  and  C_19
REMARK    5  A    between atoms: C_21  and  O_34
REMARK    6  A    between atoms: C_23  and  O_33
REMARK    7  A    between atoms: C_25  and  O_32
REMARK    8  A    between atoms: C_27  and  C_30
REMARK    9  A    between atoms: C_30  and  O_31
REMARK   10  A    between atoms: O_34  and  C_35
REMARK   11  A    between atoms: C_35  and  C_37
REMARK   12  A    between atoms: C_38  and  C_39
REMARK   13  A    between atoms: C_42  and  O_45
REMARK                            x       y       z     vdW  Elec       q    Type
REMARK                         _______ _______ _______ _____ _____    ______ ____
ROOT
ATOM      1  C   UNL     1       2.515   0.074   3.354  0.00  0.00    +0.298 C 
ATOM      2  C   UNL     1       2.759   1.489   3.885  0.00  0.00    +0.263 C 
ATOM      3  C   UNL     1       3.192   1.408   5.353  0.00  0.00    +0.191 C 
ATOM      4  C   UNL     1       4.438   0.525   5.458  0.00  0.00    +0.178 C 
ATOM      5  C   UNL     1       4.130  -0.853   4.866  0.00  0.00    +0.178 C 
ATOM      6  O   UNL     1       3.704  -0.703   3.510  0.00  0.00    -0.339 OA
ENDROOT
BRANCH   4   7
ATOM      7  O   UNL     1       5.513   1.127   4.734  0.00  0.00    -0.386 OA
ATOM      8  H   UNL     1       6.336   0.620   4.758  0.00  0.00    +0.210 HD
ENDBRANCH   4   7
BRANCH   3   9
ATOM      9  O   UNL     1       3.490   2.719   5.836  0.00  0.00    -0.385 OA
ATOM     10  H   UNL     1       3.771   2.743   6.761  0.00  0.00    +0.210 HD
ENDBRANCH   3   9
BRANCH   1  11
ATOM     11  O   UNL     1       2.166   0.138   1.970  0.00  0.00    -0.308 OA
BRANCH  11  18
ATOM     12  C   UNL     1      -0.016   1.306   0.009  0.00  0.00    +0.011 C 
ATOM     13  C   UNL     1       0.002  -0.004   0.002  0.00  0.00    -0.039 C 
ATOM     14  C   UNL     1      -1.206  -0.917   0.002  0.00  0.00    +0.141 C 
ATOM     15  C   UNL     1      -0.674  -2.365  -0.008  0.00  0.00    +0.045 C 
ATOM     16  C   UNL     1       0.752  -2.231  -0.589  0.00  0.00    +0.045 C 
ATOM     17  C   UNL     1       1.239  -0.886  -0.015  0.00  0.00    +0.093 C 
ATOM     18  C   UNL     1       1.700  -1.100   1.431  0.00  0.00    +0.317 C 
ATOM     19  O   UNL     1       2.757  -2.059   1.453  0.00  0.00    -0.470 OA
ATOM     20  C   UNL     1       2.533  -3.231   0.837  0.00  0.00    +0.201 C 
ATOM     21  C   UNL     1       1.603  -3.374  -0.135  0.00  0.00    +0.079 C 
BRANCH  21  22
ATOM     22  C   UNL     1       1.427  -4.629  -0.754  0.00  0.00    +0.386 C 
ATOM     23  O   UNL     1       2.109  -5.586  -0.405  0.00  0.00    -0.241 OA
ATOM     24  O   UNL     1       0.593  -4.763  -1.641  0.00  0.00    -0.241 OA
ENDBRANCH  21  22
BRANCH  14  25
ATOM     25  O   UNL     1      -1.989  -0.691   1.176  0.00  0.00    -0.387 OA
ATOM     26  H   UNL     1      -2.338   0.207   1.249  0.00  0.00    +0.210 HD
ENDBRANCH  14  25
ENDBRANCH  11  18
ENDBRANCH   1  11
BRANCH   5  27
ATOM     27  C   UNL     1       5.388  -1.722   4.914  0.00  0.00    +0.190 C 
BRANCH  27  28
ATOM     28  O   UNL     1       5.072  -3.043   4.470  0.00  0.00    -0.392 OA
ATOM     29  H   UNL     1       5.824  -3.650   4.473  0.00  0.00    +0.210 HD
ENDBRANCH  27  28
ENDBRANCH   5  27
BRANCH   2  30
ATOM     30  O   UNL     1       3.788   2.117   3.117  0.00  0.00    -0.450 OA
BRANCH  30  31
ATOM     31  C   UNL     1       3.401   2.814   2.029  0.00  0.00    +0.332 C 
ATOM     32  O   UNL     1       2.221   2.886   1.740  0.00  0.00    -0.246 OA
BRANCH  31  33
ATOM     33  C   UNL     1       4.369   3.462   1.221  0.00  0.00    +0.092 C 
ATOM     34  C   UNL     1       3.981   4.160   0.131  0.00  0.00    +0.015 C 
BRANCH  34  35
ATOM     35  C   UNL     1       4.985   4.832  -0.707  0.00  0.00    -0.025 A 
ATOM     36  C   UNL     1       6.343   4.745  -0.380  0.00  0.00    +0.011 A 
ATOM     37  C   UNL     1       7.279   5.377  -1.168  0.00  0.00    +0.046 A 
ATOM     38  C   UNL     1       6.877   6.099  -2.286  0.00  0.00    +0.117 A 
ATOM     39  C   UNL     1       5.529   6.188  -2.614  0.00  0.00    +0.046 A 
ATOM     40  C   UNL     1       4.586   5.555  -1.837  0.00  0.00    +0.011 A 
BRANCH  38  41
ATOM     41  O   UNL     1       7.804   6.720  -3.059  0.00  0.00    -0.507 OA
ATOM     42  H   UNL     1       8.146   6.173  -3.779  0.00  0.00    +0.292 HD
ENDBRANCH  38  41
ENDBRANCH  34  35
ENDBRANCH  31  33
ENDBRANCH  30  31
ENDBRANCH   2  30
TORSDOF 13
