REMARK  Name = ZINC12887656
REMARK  7 active torsions:
REMARK  status: ('A' for Active; 'I' for Inactive)
REMARK    1  A    between atoms: C_1  and  C_2
REMARK    2  A    between atoms: C_2  and  C_4
REMARK    3  A    between atoms: C_2  and  N_12
REMARK    4  A    between atoms: C_4  and  C_5
REMARK    5  A    between atoms: C_5  and  C_6
REMARK    6  A    between atoms: C_15  and  C_22
REMARK    7  A    between atoms: C_16  and  O_21
REMARK                            x       y       z     vdW  Elec       q    Type
REMARK                         _______ _______ _______ _____ _____    ______ ____
ROOT
ATOM      1  N   UNL     1      -2.706  -0.671  -3.207  0.00  0.00    -0.258 N 
ATOM      2  C   UNL     1      -2.561   0.354  -2.344  0.00  0.00    +0.262 A 
ATOM      3  O   UNL     1      -2.275   1.466  -2.754  0.00  0.00    -0.267 OA
ATOM      4  C   UNL     1      -2.736   0.131  -0.967  0.00  0.00    +0.068 A 
ATOM      5  C   UNL     1      -3.062  -1.120  -0.535  0.00  0.00    +0.201 A 
ATOM      6  N   UNL     1      -3.205  -2.134  -1.448  0.00  0.00    -0.278 N 
ATOM      7  H   UNL     1      -3.436  -3.026  -1.145  0.00  0.00    +0.173 HD
ATOM      8  C   UNL     1      -3.027  -1.899  -2.761  0.00  0.00    +0.332 A 
ATOM      9  O   UNL     1      -3.158  -2.810  -3.556  0.00  0.00    -0.246 OA
ENDROOT
BRANCH   4  10
ATOM     10  C   UNL     1      -2.574   1.261   0.017  0.00  0.00    +0.018 C 
ATOM     11  C   UNL     1      -1.139   1.734   0.016  0.00  0.00    +0.011 A 
ATOM     12  C   UNL     1      -0.796   3.038   0.027  0.00  0.00    -0.022 A 
ATOM     13  C   UNL     1       0.659   3.109   0.013  0.00  0.00    +0.003 A 
ATOM     14  C   UNL     1       1.588   4.151   0.010  0.00  0.00    +0.010 A 
ATOM     15  C   UNL     1       2.925   3.871  -0.004  0.00  0.00    +0.001 A 
ATOM     16  C   UNL     1       3.370   2.557  -0.016  0.00  0.00    +0.002 A 
ATOM     17  C   UNL     1       2.473   1.512  -0.014  0.00  0.00    +0.026 A 
ATOM     18  C   UNL     1       1.107   1.773   0.001  0.00  0.00    +0.047 A 
ATOM     19  N   UNL     1      -0.011   0.966   0.007  0.00  0.00    -0.359 N 
ATOM     20  H   UNL     1       0.002  -0.004   0.002  0.00  0.00    +0.166 HD
ATOM     21  C   UNL     1      -1.795   4.167   0.046  0.00  0.00    +0.018 C 
ATOM     22  C   UNL     1      -3.159   3.584   0.434  0.00  0.00    -0.076 C 
ATOM     23  N   UNL     1      -3.444   2.388  -0.386  0.00  0.00    +0.388 N 
ATOM     24  H   UNL     1      -4.427   2.118  -0.259  0.00  0.00    -0.084 HD
ATOM     25  H   UNL     1      -3.275   2.609  -1.375  0.00  0.00    -0.084 HD
ENDBRANCH   4  10
BRANCH   1  27
ATOM     26  C   UNL     1      -1.386  -1.336  -5.156  0.00  0.00    +0.031 C 
ATOM     27  C   UNL     1      -2.519  -0.445  -4.643  0.00  0.00    +0.092 C 
BRANCH  27  28
ATOM     28  C   UNL     1      -3.812  -0.785  -5.386  0.00  0.00    +0.030 C 
BRANCH  28  29
ATOM     29  C   UNL     1      -4.915   0.188  -4.963  0.00  0.00    +0.037 C 
BRANCH  29  30
ATOM     30  C   UNL     1      -6.189  -0.147  -5.694  0.00  0.00    -0.047 A 
ATOM     31  C   UNL     1      -6.461   0.444  -6.914  0.00  0.00    +0.003 A 
ATOM     32  C   UNL     1      -7.628   0.132  -7.588  0.00  0.00    +0.000 A 
ATOM     33  C   UNL     1      -8.526  -0.762  -7.037  0.00  0.00    +0.000 A 
ATOM     34  C   UNL     1      -8.256  -1.349  -5.814  0.00  0.00    +0.000 A 
ATOM     35  C   UNL     1      -7.087  -1.042  -5.144  0.00  0.00    +0.003 A 
ENDBRANCH  29  30
ENDBRANCH  28  29
ENDBRANCH  27  28
ENDBRANCH   1  27
BRANCH   5  36
ATOM     36  O   UNL     1      -3.241  -1.360   0.782  0.00  0.00    -0.493 OA
ATOM     37  H   UNL     1      -3.468  -2.277   0.987  0.00  0.00    +0.294 HD
ENDBRANCH   5  36
TORSDOF 6
