REMARK  Name = ZINC63349710
REMARK  4 active torsions:
REMARK  status: ('A' for Active; 'I' for Inactive)
REMARK    1  A    between atoms: C_8  and  C_20
REMARK    2  A    between atoms: CA_11  and  C_17
REMARK    3  A    between atoms: C_23  and  O_26
REMARK    4  A    between atoms: O_26  and  C_27
REMARK                            x       y       z     vdW  Elec       q    Type
REMARK                         _______ _______ _______ _____ _____    ______ ____
ROOT
ATOM      1  C   UNL     1      -0.016   1.347   0.009  0.00  0.00    +0.001 A 
ATOM      2  C   UNL     1       1.165   2.101   0.002  0.00  0.00    +0.002 A 
ATOM      3  C   UNL     1       2.390   1.534  -0.017  0.00  0.00    +0.026 A 
ATOM      4  C   UNL     1       2.529   0.120  -0.031  0.00  0.00    +0.043 A 
ATOM      5  N   UNL     1       3.593  -0.653  -0.026  0.00  0.00    -0.376 N 
ATOM      6  C   UNL     1       3.155  -2.041  -0.140  0.00  0.00    +0.128 C 
ATOM      7  C   UNL     1       3.676  -2.919   1.001  0.00  0.00    +0.111 C 
ATOM      8  N   UNL     1       2.957  -4.202   0.964  0.00  0.00    -0.295 NA
ATOM      9  CA  UNL     1       1.532  -4.075   1.282  0.00  0.00    +0.172 C 
ATOM     10  C   UNL     1       0.819  -3.248   0.195  0.00  0.00    +0.063 C 
ATOM     11  C   UNL     1       1.640  -1.996  -0.015  0.00  0.00    -0.035 C 
ATOM     12  C   UNL     1       1.294  -0.703  -0.014  0.00  0.00    -0.001 A 
ATOM     13  C   UNL     1       0.002  -0.004   0.002  0.00  0.00    +0.010 A 
ATOM     14  H   UNL     1       3.089  -4.665   0.077  0.00  0.00    +0.123 HD
ATOM     15  H   UNL     1       4.512  -0.352   0.043  0.00  0.00    +0.160 HD
ENDROOT
BRANCH   7  16
ATOM     16  C   UNL     1       5.153  -3.159   0.824  0.00  0.00    -0.028 A 
ATOM     17  C   UNL     1       5.594  -4.115  -0.072  0.00  0.00    +0.009 A 
ATOM     18  C   UNL     1       6.948  -4.338  -0.236  0.00  0.00    +0.046 A 
ATOM     19  C   UNL     1       7.865  -3.599   0.498  0.00  0.00    +0.130 A 
ATOM     20  C   UNL     1       7.420  -2.640   1.395  0.00  0.00    +0.046 A 
ATOM     21  C   UNL     1       6.066  -2.418   1.552  0.00  0.00    +0.009 A 
BRANCH  19  22
ATOM     22  O   UNL     1       9.197  -3.817   0.338  0.00  0.00    -0.406 OA
BRANCH  22  23
ATOM     23  C   UNL     1      10.083  -3.020   1.127  0.00  0.00    +0.575 C 
ATOM     24  F   UNL     1       9.826  -3.241   2.484  0.00  0.00    -0.133 F 
ATOM     25  F   UNL     1      11.407  -3.371   0.840  0.00  0.00    -0.133 F 
ATOM     26  F   UNL     1       9.884  -1.667   0.829  0.00  0.00    -0.133 F 
ENDBRANCH  22  23
ENDBRANCH  19  22
ENDBRANCH   7  16
BRANCH   9  27
ATOM     27  C   UNL     1       0.910  -5.446   1.352  0.00  0.00    +0.373 C 
ATOM     28  O   UNL     1       1.595  -6.436   1.154  0.00  0.00    -0.245 OA
ATOM     29  OXT UNL     1      -0.276  -5.566   1.606  0.00  0.00    -0.245 OA
ENDBRANCH   9  27
TORSDOF 4
