REMARK  Name = ZINC22320057
REMARK  11 active torsions:
REMARK  status: ('A' for Active; 'I' for Inactive)
REMARK    1  A    between atoms: C_1  and  C_2
REMARK    2  A    between atoms: C_5  and  S_8
REMARK    3  A    between atoms: S_8  and  N_11
REMARK    4  A    between atoms: N_11  and  C_12
REMARK    5  A    between atoms: N_11  and  C_27
REMARK    6  A    between atoms: C_12  and  C_13
REMARK    7  A    between atoms: N_15  and  C_16
REMARK    8  A    between atoms: C_16  and  C_18
REMARK    9  A    between atoms: C_16  and  C_19
REMARK   10  A    between atoms: C_22  and  C_26
REMARK   11  A    between atoms: C_23  and  C_25
REMARK                            x       y       z     vdW  Elec       q    Type
REMARK                         _______ _______ _______ _____ _____    ______ ____
ROOT
ATOM      1  N   UNL     1      -0.721   1.571  -1.179  0.00  0.00    -0.193 N 
ENDROOT
BRANCH   1   2
ATOM      2  C   UNL     1      -1.812   0.857  -1.682  0.00  0.00    +0.070 A 
ATOM      3  C   UNL     1      -3.080   1.060  -1.153  0.00  0.00    +0.026 A 
ATOM      4  C   UNL     1      -4.157   0.357  -1.656  0.00  0.00    +0.002 A 
ATOM      5  C   UNL     1      -3.973  -0.557  -2.678  0.00  0.00    +0.002 A 
ATOM      6  C   UNL     1      -2.711  -0.766  -3.204  0.00  0.00    +0.022 A 
ATOM      7  C   UNL     1      -1.630  -0.062  -2.709  0.00  0.00    +0.064 A 
ATOM      8 CL   UNL     1      -0.046  -0.325  -3.368  0.00  0.00    -0.082 Cl
ENDBRANCH   1   2
BRANCH   1   9
ATOM      9  S   UNL     1      -0.229   2.966  -1.924  0.00  0.00    +0.075 S 
ATOM     10  O   UNL     1      -1.357   3.470  -2.627  0.00  0.00    -0.150 OA
ATOM     11  O   UNL     1       0.461   3.728  -0.944  0.00  0.00    -0.150 OA
BRANCH   9  16
ATOM     12  C   UNL     1       3.849   1.418  -6.093  0.00  0.00    +0.044 C 
ATOM     13  C   UNL     1       2.830   1.805  -5.052  0.00  0.00    -0.050 A 
ATOM     14  C   UNL     1       1.489   1.857  -5.383  0.00  0.00    +0.005 A 
ATOM     15  C   UNL     1       0.555   2.212  -4.428  0.00  0.00    +0.029 A 
ATOM     16  C   UNL     1       0.962   2.514  -3.142  0.00  0.00    +0.109 A 
ATOM     17  C   UNL     1       2.303   2.466  -2.812  0.00  0.00    +0.029 A 
ATOM     18  C   UNL     1       3.237   2.107  -3.766  0.00  0.00    +0.005 A 
ENDBRANCH   9  16
ENDBRANCH   1   9
BRANCH   1  19
ATOM     19  C   UNL     1      -0.013   1.086   0.008  0.00  0.00    +0.227 C 
BRANCH  19  20
ATOM     20  C   UNL     1      -0.718   1.572   1.248  0.00  0.00    +0.233 C 
ATOM     21  O   UNL     1      -1.714   2.256   1.150  0.00  0.00    -0.274 OA
ATOM     22  N   UNL     1      -0.242   1.246   2.466  0.00  0.00    -0.307 N 
ATOM     23  H   UNL     1       0.662   0.625   2.555  0.00  0.00    +0.149 HD
BRANCH  22  24
ATOM     24  C   UNL     1      -0.927   1.718   3.671  0.00  0.00    +0.100 C 
ATOM     25  C   UNL     1      -2.065   0.757   4.021  0.00  0.00    +0.033 C 
BRANCH  24  26
ATOM     26  C   UNL     1       0.051   1.776   4.816  0.00  0.00    -0.027 A 
ATOM     27  C   UNL     1       0.988   0.772   4.976  0.00  0.00    +0.006 A 
ATOM     28  C   UNL     1       1.888   0.827   6.023  0.00  0.00    +0.004 A 
ATOM     29  C   UNL     1       1.846   1.882   6.916  0.00  0.00    -0.048 A 
ATOM     30  C   UNL     1       0.906   2.883   6.759  0.00  0.00    -0.047 A 
ATOM     31  C   UNL     1       0.008   2.830   5.709  0.00  0.00    +0.009 A 
ATOM     32  C   UNL     1       0.860   4.032   7.733  0.00  0.00    +0.044 C 
ATOM     33  C   UNL     1       2.825   1.940   8.060  0.00  0.00    +0.044 C 
ENDBRANCH  24  26
ENDBRANCH  22  24
ENDBRANCH  19  20
ENDBRANCH   1  19
TORSDOF 7
