REMARK  Name = ZINC60304569
REMARK  7 active torsions:
REMARK  status: ('A' for Active; 'I' for Inactive)
REMARK    1  A    between atoms: C_3  and  O_27
REMARK    2  A    between atoms: C_6  and  C_7
REMARK    3  A    between atoms: C_8  and  C_9
REMARK    4  A    between atoms: N_11  and  C_12
REMARK    5  A    between atoms: C_15  and  N_18
REMARK    6  A    between atoms: O_27  and  C_28
REMARK    7  A    between atoms: C_28  and  C_29
REMARK                            x       y       z     vdW  Elec       q    Type
REMARK                         _______ _______ _______ _____ _____    ______ ____
ROOT
ATOM      1  C   UNL     1      -1.382  -4.723  -0.598  0.00  0.00    +0.241 C 
ATOM      2  O   UNL     1      -1.444  -5.810  -1.141  0.00  0.00    -0.270 OA
ATOM      3  N   UNL     1      -2.472  -4.207   0.004  0.00  0.00    -0.282 N 
ATOM      4  H   UNL     1      -2.407  -3.372   0.494  0.00  0.00    +0.155 HD
ENDROOT
BRANCH   3   5
ATOM      5  C   UNL     1      -3.700  -4.876  -0.078  0.00  0.00    +0.034 A 
ATOM      6  C   UNL     1      -4.881  -4.152  -0.160  0.00  0.00    +0.025 A 
ATOM      7  C   UNL     1      -6.091  -4.812  -0.241  0.00  0.00    +0.025 A 
ATOM      8  C   UNL     1      -6.127  -6.200  -0.240  0.00  0.00    +0.030 A 
ATOM      9  C   UNL     1      -4.945  -6.925  -0.158  0.00  0.00    +0.025 A 
ATOM     10  C   UNL     1      -3.734  -6.265  -0.082  0.00  0.00    +0.025 A 
BRANCH   8  11
ATOM     11  N   UNL     1      -7.353  -6.869  -0.321  0.00  0.00    -0.325 N 
ATOM     12  C   UNL     1      -7.413  -8.333  -0.202  0.00  0.00    +0.110 C 
ATOM     13  C   UNL     1      -8.198  -8.681   1.073  0.00  0.00    +0.061 C 
ATOM     14  C   UNL     1      -9.396  -7.792   1.155  0.00  0.00    -0.004 A 
ATOM     15  C   UNL     1      -9.628  -6.638   0.474  0.00  0.00    -0.020 A 
ATOM     16  C   UNL     1     -10.832  -5.986   0.740  0.00  0.00    +0.013 A 
ATOM     17  C   UNL     1     -11.702  -6.510   1.634  0.00  0.00    +0.046 A 
ATOM     18  S   UNL     1     -10.845  -7.987   2.158  0.00  0.00    -0.101 S 
ATOM     19  C   UNL     1      -8.599  -6.117  -0.521  0.00  0.00    +0.141 C 
ENDBRANCH   8  11
ENDBRANCH   3   5
BRANCH   1  21
ATOM     20  C   UNL     1       0.967  -4.492  -1.200  0.00  0.00    +0.013 C 
ATOM     21  C   UNL     1      -0.125  -3.975  -0.598  0.00  0.00    +0.068 C 
BRANCH  20  27
ATOM     22  C   UNL     1       3.365  -4.274  -1.825  0.00  0.00    +0.011 A 
ATOM     23  C   UNL     1       4.545  -3.567  -1.822  0.00  0.00    +0.046 A 
ATOM     24  C   UNL     1       4.613  -2.325  -1.201  0.00  0.00    +0.122 A 
ATOM     25  C   UNL     1       3.490  -1.791  -0.580  0.00  0.00    +0.046 A 
ATOM     26  C   UNL     1       2.304  -2.490  -0.576  0.00  0.00    +0.011 A 
ATOM     27  C   UNL     1       2.231  -3.741  -1.200  0.00  0.00    -0.025 A 
BRANCH  24  28
ATOM     28  O   UNL     1       5.780  -1.631  -1.202  0.00  0.00    -0.477 OA
BRANCH  28  29
ATOM     29  C   UNL     1       5.780  -0.362  -0.546  0.00  0.00    +0.346 C 
BRANCH  29  30
ATOM     30  C   UNL     1       7.119   0.242  -0.646  0.00  0.00    +0.104 C 
ATOM     31  N   UNL     1       8.152   0.708  -0.723  0.00  0.00    -0.193 NA
ENDBRANCH  29  30
ENDBRANCH  28  29
ENDBRANCH  24  28
ENDBRANCH  20  27
ENDBRANCH   1  21
TORSDOF 7
