REMARK  Name = ZINC34698279
REMARK  7 active torsions:
REMARK  status: ('A' for Active; 'I' for Inactive)
REMARK    1  A    between atoms: C_4  and  C_7
REMARK    2  A    between atoms: C_7  and  C_8
REMARK    3  A    between atoms: N_11  and  C_14
REMARK    4  A    between atoms: C_14  and  C_15
REMARK    5  A    between atoms: C_20  and  C_22
REMARK    6  A    between atoms: C_29  and  C_31
REMARK    7  A    between atoms: C_31  and  C_32
REMARK                            x       y       z     vdW  Elec       q    Type
REMARK                         _______ _______ _______ _____ _____    ______ ____
ROOT
ATOM      1  C   UNL     1       8.182  -1.487   4.540  0.00  0.00    -0.001 C 
ATOM      2  C   UNL     1       7.926  -2.860   3.882  0.00  0.00    +0.110 C 
ATOM      3  N   UNL     1       8.908  -3.768   4.520  0.00  0.00    -0.300 N 
ATOM      4  C   UNL     1       8.922  -3.353   5.942  0.00  0.00    +0.116 C 
ATOM      5  C   UNL     1       8.840  -1.809   5.898  0.00  0.00    +0.039 C 
ATOM      6  C   UNL     1       9.624  -4.750   3.938  0.00  0.00    +0.220 C 
ATOM      7  O   UNL     1       9.500  -4.971   2.752  0.00  0.00    -0.275 OA
ENDROOT
BRANCH   5   8
ATOM      8  C   UNL     1       7.986  -1.297   7.029  0.00  0.00    -0.040 A 
ATOM      9  C   UNL     1       6.765  -1.887   7.295  0.00  0.00    +0.004 A 
ATOM     10  C   UNL     1       5.980  -1.418   8.332  0.00  0.00    +0.003 A 
ATOM     11  C   UNL     1       6.416  -0.358   9.104  0.00  0.00    +0.038 A 
ATOM     12  C   UNL     1       7.639   0.234   8.839  0.00  0.00    +0.124 A 
ATOM     13  C   UNL     1       8.427  -0.241   7.803  0.00  0.00    +0.042 A 
ATOM     14  F   UNL     1       8.066   1.270   9.593  0.00  0.00    -0.205 F 
ENDBRANCH   5   8
BRANCH   1  15
ATOM     15  C   UNL     1       6.862  -0.744   4.752  0.00  0.00    -0.073 C 
BRANCH  15  19
ATOM     16  C   UNL     1       6.904   3.492   5.212  0.00  0.00    -0.010 C 
ATOM     17  C   UNL     1       6.154   2.631   6.233  0.00  0.00    -0.015 C 
ATOM     18  C   UNL     1       5.870   1.257   5.622  0.00  0.00    -0.079 C 
ATOM     19  N   UNL     1       7.135   0.605   5.265  0.00  0.00    +0.380 N 
ATOM     20  C   UNL     1       7.826   1.388   4.234  0.00  0.00    -0.079 C 
ATOM     21  C   UNL     1       8.185   2.768   4.791  0.00  0.00    -0.015 C 
ATOM     22  H   UNL     1       7.721   0.539   6.084  0.00  0.00    -0.082 HD
BRANCH  16  23
ATOM     23  C   UNL     1       7.261   4.839   5.843  0.00  0.00    +0.038 C 
BRANCH  23  27
ATOM     24  C   UNL     1       3.682   7.008   6.698  0.00  0.00    +0.000 A 
ATOM     25  C   UNL     1       4.218   6.158   7.647  0.00  0.00    +0.000 A 
ATOM     26  C   UNL     1       5.377   5.456   7.370  0.00  0.00    +0.003 A 
ATOM     27  C   UNL     1       5.998   5.604   6.144  0.00  0.00    -0.047 A 
ATOM     28  C   UNL     1       5.461   6.453   5.195  0.00  0.00    +0.003 A 
ATOM     29  C   UNL     1       4.303   7.156   5.472  0.00  0.00    +0.000 A 
ENDBRANCH  23  27
ENDBRANCH  16  23
ENDBRANCH  15  19
ENDBRANCH   1  15
BRANCH   6  30
ATOM     30  C   UNL     1      10.580  -5.574   4.761  0.00  0.00    +0.138 C 
BRANCH  30  31
ATOM     31  C   UNL     1      11.251  -6.596   3.880  0.00  0.00    -0.001 A 
ATOM     32  C   UNL     1      12.405  -6.490   3.176  0.00  0.00    +0.011 A 
ATOM     33  C   UNL     1      12.834  -7.570   2.427  0.00  0.00    +0.008 A 
ATOM     34  C   UNL     1      12.089  -8.702   2.418  0.00  0.00    +0.045 A 
ATOM     35  S   UNL     1      10.736  -8.262   3.497  0.00  0.00    -0.101 S 
ENDBRANCH  30  31
ENDBRANCH   6  30
TORSDOF 7
