REMARK  Name = ZINC35867097
REMARK  6 active torsions:
REMARK  status: ('A' for Active; 'I' for Inactive)
REMARK    1  A    between atoms: C_1  and  C_2
REMARK    2  A    between atoms: C_2  and  C_3
REMARK    3  A    between atoms: C_3  and  C_4
REMARK    4  A    between atoms: N_25  and  C_26
REMARK    5  A    between atoms: C_29  and  S_32
REMARK    6  A    between atoms: S_32  and  C_33
REMARK                            x       y       z     vdW  Elec       q    Type
REMARK                         _______ _______ _______ _____ _____    ______ ____
ROOT
ATOM      1  C   UNL     1      -3.338  -2.714   0.355  0.00  0.00    +0.132 A 
ATOM      2  N   UNL     1      -3.222  -3.378  -0.781  0.00  0.00    -0.217 NA
ATOM      3  C   UNL     1      -2.090  -3.959  -1.146  0.00  0.00    +0.133 A 
ATOM      4  C   UNL     1      -0.958  -3.869  -0.288  0.00  0.00    +0.051 A 
ATOM      5  C   UNL     1       0.382  -4.425  -0.478  0.00  0.00    -0.025 A 
ATOM      6  C   UNL     1       1.285  -4.192   0.496  0.00  0.00    -0.004 A 
ATOM      7  S   UNL     1       0.419  -3.231   1.708  0.00  0.00    -0.073 S 
ATOM      8  C   UNL     1      -1.159  -3.144   0.904  0.00  0.00    +0.114 A 
ATOM      9  N   UNL     1      -2.322  -2.591   1.187  0.00  0.00    -0.225 NA
ATOM     10  C   UNL     1       2.711  -4.650   0.540  0.00  0.00    +0.043 C 
ATOM     11  C   UNL     1       2.901  -5.747  -0.517  0.00  0.00    +0.005 C 
ATOM     12  C   UNL     1       2.285  -5.269  -1.836  0.00  0.00    +0.005 C 
ATOM     13  C   UNL     1       0.761  -5.236  -1.715  0.00  0.00    +0.037 C 
ATOM     14  N   UNL     1      -2.009  -4.646  -2.344  0.00  0.00    -0.312 N 
ATOM     15  C   UNL     1      -2.180  -6.105  -2.383  0.00  0.00    +0.125 C 
ATOM     16  C   UNL     1      -3.299  -6.440  -3.378  0.00  0.00    +0.128 C 
ATOM     17  N   UNL     1      -3.040  -5.723  -4.634  0.00  0.00    -0.282 N 
ATOM     18  C   UNL     1      -2.869  -4.264  -4.595  0.00  0.00    +0.128 C 
ATOM     19  C   UNL     1      -1.756  -3.928  -3.601  0.00  0.00    +0.125 C 
ATOM     20  C   UNL     1      -2.961  -6.392  -5.802  0.00  0.00    +0.307 C 
ATOM     21  O   UNL     1      -3.231  -7.577  -5.843  0.00  0.00    -0.252 OA
ATOM     22  N   UNL     1      -2.582  -5.748  -6.923  0.00  0.00    -0.269 N 
ATOM     23  H   UNL     1      -2.238  -4.843  -6.870  0.00  0.00    +0.156 HD
ENDROOT
BRANCH  22  24
ATOM     24  C   UNL     1      -2.686  -6.386  -8.167  0.00  0.00    +0.035 A 
ATOM     25  C   UNL     1      -2.679  -7.773  -8.239  0.00  0.00    +0.024 A 
ATOM     26  C   UNL     1      -2.781  -8.402  -9.463  0.00  0.00    +0.016 A 
ATOM     27  C   UNL     1      -2.891  -7.647 -10.624  0.00  0.00    +0.008 A 
ATOM     28  C   UNL     1      -2.897  -6.259 -10.553  0.00  0.00    +0.016 A 
ATOM     29  C   UNL     1      -2.800  -5.631  -9.327  0.00  0.00    +0.024 A 
BRANCH  27  30
ATOM     30  S   UNL     1      -3.021  -8.449 -12.188  0.00  0.00    -0.129 S 
ATOM     31  C   UNL     1      -3.138  -7.082 -13.374  0.00  0.00    +0.090 C 
ENDBRANCH  27  30
ENDBRANCH  22  24
BRANCH   1  32
ATOM     32  C   UNL     1      -4.659  -2.079   0.706  0.00  0.00    +0.076 C 
BRANCH  32  34
ATOM     33  C   UNL     1      -6.042  -0.008   0.507  0.00  0.00    +0.004 C 
ATOM     34  C   UNL     1      -4.702  -0.653   0.151  0.00  0.00    +0.004 C 
ENDBRANCH  32  34
ENDBRANCH   1  32
TORSDOF 4
