REMARK  Name = ZINC36122999
REMARK  10 active torsions:
REMARK  status: ('A' for Active; 'I' for Inactive)
REMARK    1  A    between atoms: C_1  and  C_2
REMARK    2  A    between atoms: C_2  and  C_3
REMARK    3  A    between atoms: C_3  and  N_4
REMARK    4  A    between atoms: N_4  and  C_5
REMARK    5  A    between atoms: C_5  and  C_6
REMARK    6  A    between atoms: C_16  and  C_18
REMARK    7  A    between atoms: C_18  and  O_19
REMARK    8  A    between atoms: O_19  and  C_20
REMARK    9  A    between atoms: N_29  and  C_30
REMARK   10  A    between atoms: C_30  and  C_31
REMARK                            x       y       z     vdW  Elec       q    Type
REMARK                         _______ _______ _______ _____ _____    ______ ____
ROOT
ATOM      1  C   UNL     1      -2.804  -3.010   1.716  0.00  0.00    +0.234 C 
ATOM      2  O   UNL     1      -3.738  -2.625   1.045  0.00  0.00    -0.274 OA
ATOM      3  N   UNL     1      -3.031  -3.683   2.863  0.00  0.00    -0.289 N 
ATOM      4  C   UNL     1      -1.907  -4.149   3.688  0.00  0.00    +0.114 C 
ATOM      5  C   UNL     1      -1.954  -3.406   5.032  0.00  0.00    +0.061 C 
ATOM      6  C   UNL     1      -3.370  -3.364   5.506  0.00  0.00    -0.004 A 
ATOM      7  C   UNL     1      -4.500  -3.594   4.785  0.00  0.00    -0.014 A 
ATOM      8  C   UNL     1      -5.711  -3.482   5.467  0.00  0.00    +0.013 A 
ATOM      9  C   UNL     1      -5.720  -3.165   6.782  0.00  0.00    +0.046 A 
ATOM     10  S   UNL     1      -3.976  -3.002   7.133  0.00  0.00    -0.101 S 
ATOM     11  C   UNL     1      -4.404  -3.954   3.308  0.00  0.00    +0.144 C 
ENDROOT
BRANCH   1  12
ATOM     12  C   UNL     1      -1.391  -2.738   1.269  0.00  0.00    +0.205 C 
BRANCH  12  13
ATOM     13  N   UNL     1      -1.413  -1.998   0.005  0.00  0.00    -0.277 N 
ATOM     14  C   UNL     1      -1.415  -2.666  -1.166  0.00  0.00    +0.303 C 
ATOM     15  O   UNL     1      -1.399  -3.882  -1.173  0.00  0.00    -0.253 OA
ATOM     16  N   UNL     1      -1.436  -1.986  -2.329  0.00  0.00    -0.299 N 
ATOM     17  H   UNL     1      -1.449  -1.016  -2.324  0.00  0.00    +0.150 HD
BRANCH  16  18
ATOM     18  C   UNL     1      -1.438  -2.712  -3.602  0.00  0.00    +0.102 C 
ATOM     19  C   UNL     1      -1.462  -1.711  -4.760  0.00  0.00    +0.024 C 
ENDBRANCH  16  18
BRANCH  13  20
ATOM     20  C   UNL     1      -1.433  -0.534   0.013  0.00  0.00    +0.109 C 
BRANCH  20  22
ATOM     21  C   UNL     1      -0.019   1.526   0.010  0.00  0.00    +0.005 C 
ATOM     22  C   UNL     1       0.002  -0.004   0.002  0.00  0.00    +0.016 C 
ENDBRANCH  20  22
ENDBRANCH  13  20
ENDBRANCH  12  13
ENDBRANCH   1  12
BRANCH  11  23
ATOM     23  C   UNL     1      -4.726  -5.438   3.119  0.00  0.00    +0.256 C 
BRANCH  23  24
ATOM     24  O   UNL     1      -3.893  -6.219   3.977  0.00  0.00    -0.487 OA
BRANCH  24  25
ATOM     25  C   UNL     1      -4.053  -7.569   3.932  0.00  0.00    +0.156 A 
ATOM     26  C   UNL     1      -4.989  -8.129   3.075  0.00  0.00    +0.048 A 
ATOM     27  C   UNL     1      -5.151  -9.500   3.031  0.00  0.00    +0.004 A 
ATOM     28  C   UNL     1      -4.381 -10.316   3.840  0.00  0.00    +0.003 A 
ATOM     29  C   UNL     1      -3.447  -9.761   4.696  0.00  0.00    +0.042 A 
ATOM     30  C   UNL     1      -3.276  -8.389   4.739  0.00  0.00    +0.165 A 
ATOM     31  F   UNL     1      -2.360  -7.848   5.571  0.00  0.00    -0.202 F 
ENDBRANCH  24  25
ENDBRANCH  23  24
ENDBRANCH  11  23
TORSDOF 8
