REMARK  Name = ZINC17005240
REMARK  8 active torsions:
REMARK  status: ('A' for Active; 'I' for Inactive)
REMARK    1  A    between atoms: C_1  and  C_2
REMARK    2  A    between atoms: C_2  and  O_4
REMARK    3  A    between atoms: O_4  and  C_5
REMARK    4  A    between atoms: C_9  and  C_31
REMARK    5  A    between atoms: C_21  and  C_30
REMARK    6  A    between atoms: C_27  and  C_28
REMARK    7  A    between atoms: C_27  and  N_64
REMARK    8  A    between atoms: C_28  and  O_29
REMARK                            x       y       z     vdW  Elec       q    Type
REMARK                         _______ _______ _______ _____ _____    ______ ____
ROOT
ATOM      1  C   UNL     1       3.857   0.176  -2.494  0.00  0.00    +0.177 C 
ATOM      2  C   UNL     1       4.193   0.396  -1.022  0.00  0.00    +0.045 C 
ATOM      3  C   UNL     1       2.926   0.548  -0.175  0.00  0.00    +0.011 C 
ATOM      4  C   UNL     1       2.076   1.687  -0.726  0.00  0.00    -0.026 C 
ATOM      5  C   UNL     1       1.709   1.369  -2.176  0.00  0.00    -0.001 C 
ATOM      6  C   UNL     1       2.964   1.299  -3.034  0.00  0.00    +0.048 C 
ATOM      7  C   UNL     1       0.668   2.347  -2.700  0.00  0.00    +0.004 C 
ATOM      8  C   UNL     1      -0.661   2.080  -1.974  0.00  0.00    +0.004 C 
ATOM      9  C   UNL     1      -0.382   1.284  -0.706  0.00  0.00    -0.003 C 
ATOM     10  C   UNL     1       0.787   1.898   0.066  0.00  0.00    -0.001 C 
ATOM     11  C   UNL     1       0.869   1.301   1.463  0.00  0.00    +0.005 C 
ATOM     12  C   UNL     1      -0.356   1.675   2.307  0.00  0.00    +0.013 C 
ATOM     13  C   UNL     1      -1.544   1.988   1.433  0.00  0.00    +0.007 C 
ATOM     14  C   UNL     1      -1.571   1.087   0.182  0.00  0.00    +0.004 C 
ATOM     15  C   UNL     1      -2.951   1.417  -0.406  0.00  0.00    +0.010 C 
ATOM     16  C   UNL     1      -3.839   1.533   0.864  0.00  0.00    +0.049 C 
ATOM     17  C   UNL     1      -2.890   1.644   2.051  0.00  0.00    -0.005 C 
ATOM     18  C   UNL     1      -1.590   3.476   1.085  0.00  0.00    +0.017 C 
ATOM     19  C   UNL     1       2.873   2.992  -0.654  0.00  0.00    +0.012 C 
ATOM     20  N   UNL     1      -3.096   1.495   3.332  0.00  0.00    -0.388 N 
ATOM     21  H   UNL     1      -2.320   1.611   3.994  0.00  0.00    +0.159 HD
ENDROOT
BRANCH   1  22
ATOM     22  O   UNL     1       5.089   0.136  -3.265  0.00  0.00    -0.462 OA
BRANCH  22  24
ATOM     23  C   UNL     1       6.947  -1.185  -4.213  0.00  0.00    +0.136 C 
ATOM     24  C   UNL     1       5.668  -1.065  -3.425  0.00  0.00    +0.304 C 
ATOM     25  O   UNL     1       5.163  -2.049  -2.939  0.00  0.00    -0.251 OA
ENDBRANCH  22  24
ENDBRANCH   1  22
BRANCH  20  26
ATOM     26  C   UNL     1      -4.470   1.155   3.838  0.00  0.00    +0.140 C 
BRANCH  26  27
ATOM     27  C   UNL     1      -4.419  -0.229   4.488  0.00  0.00    +0.176 C 
BRANCH  27  28
ATOM     28  O   UNL     1      -3.541  -0.194   5.615  0.00  0.00    -0.393 OA
ATOM     29  H   UNL     1      -3.460  -1.040   6.077  0.00  0.00    +0.209 HD
ENDBRANCH  27  28
ENDBRANCH  26  27
ENDBRANCH  20  26
TORSDOF 5
