REMARK  Name = ZINC41584984
REMARK  7 active torsions:
REMARK  status: ('A' for Active; 'I' for Inactive)
REMARK    1  A    between atoms: C_1  and  C_2
REMARK    2  A    between atoms: C_4  and  O_37
REMARK    3  A    between atoms: C_5  and  C_20
REMARK    4  A    between atoms: C_11  and  C_12
REMARK    5  A    between atoms: C_20  and  N_21
REMARK    6  A    between atoms: N_24  and  C_27
REMARK    7  A    between atoms: C_27  and  C_28
REMARK                            x       y       z     vdW  Elec       q    Type
REMARK                         _______ _______ _______ _____ _____    ______ ____
ROOT
ATOM      1  C   UNL     1      -0.085   1.509   0.016  0.00  0.00    +0.045 C 
ATOM      2  C   UNL     1      -0.072   0.002   0.006  0.00  0.00    -0.033 A 
ATOM      3  C   UNL     1      -0.092  -0.674  -1.181  0.00  0.00    +0.050 A 
ATOM      4  C   UNL     1      -0.080  -2.066  -1.193  0.00  0.00    +0.122 A 
ATOM      5  C   UNL     1      -0.048  -2.781  -0.007  0.00  0.00    +0.020 A 
ATOM      6  C   UNL     1      -0.027  -2.109   1.209  0.00  0.00    +0.145 A 
ATOM      7  C   UNL     1      -0.034  -0.705   1.208  0.00  0.00    +0.071 A 
ATOM      8  C   UNL     1      -0.000  -0.288   2.622  0.00  0.00    +0.232 C 
ATOM      9  O   UNL     1       0.001   0.847   3.065  0.00  0.00    -0.283 OA
ATOM     10  C   UNL     1       0.031  -1.550   3.377  0.00  0.00    +0.176 C 
ATOM     11  C   UNL     1       0.068  -1.676   4.728  0.00  0.00    +0.058 C 
ATOM     12  O   UNL     1       0.005  -2.564   2.480  0.00  0.00    -0.451 OA
ENDROOT
BRANCH  11  13
ATOM     13  C   UNL     1      -0.020  -3.006   5.345  0.00  0.00    -0.021 A 
ATOM     14  C   UNL     1      -0.117  -3.132   6.735  0.00  0.00    +0.009 A 
ATOM     15  C   UNL     1      -0.199  -4.383   7.307  0.00  0.00    +0.020 A 
ATOM     16  C   UNL     1      -0.185  -5.516   6.508  0.00  0.00    +0.041 A 
ATOM     17  C   UNL     1      -0.089  -5.399   5.131  0.00  0.00    +0.020 A 
ATOM     18  C   UNL     1      -0.012  -4.155   4.544  0.00  0.00    +0.009 A 
ATOM     19 CL   UNL     1      -0.287  -7.088   7.237  0.00  0.00    -0.084 Cl
ENDBRANCH  11  13
BRANCH   4  20
ATOM     20  O   UNL     1      -0.101  -2.729  -2.378  0.00  0.00    -0.506 OA
ATOM     21  H   UNL     1       0.776  -2.913  -2.741  0.00  0.00    +0.292 HD
ENDBRANCH   4  20
BRANCH   5  22
ATOM     22  C   UNL     1      -0.035  -4.288  -0.035  0.00  0.00    -0.035 C 
BRANCH  22  23
ATOM     23  N   UNL     1       1.353  -4.765  -0.075  0.00  0.00    +0.384 N 
ATOM     24  C   UNL     1       2.035  -4.393   1.172  0.00  0.00    -0.063 C 
ATOM     25  C   UNL     1       3.487  -4.874   1.123  0.00  0.00    +0.066 C 
ATOM     26  N   UNL     1       3.511  -6.333   0.948  0.00  0.00    -0.302 NA
ATOM     27  C   UNL     1       2.810  -6.723  -0.283  0.00  0.00    +0.066 C 
ATOM     28  C   UNL     1       1.364  -6.227  -0.223  0.00  0.00    -0.063 C 
ATOM     29  H   UNL     1       1.831  -4.345  -0.858  0.00  0.00    -0.081 HD
BRANCH  26  30
ATOM     30  C   UNL     1       4.889  -6.841   0.953  0.00  0.00    +0.119 C 
BRANCH  30  31
ATOM     31  C   UNL     1       4.870  -8.346   1.020  0.00  0.00    -0.030 A 
ATOM     32  C   UNL     1       4.870  -8.983   2.247  0.00  0.00    +0.009 A 
ATOM     33  C   UNL     1       4.851 -10.363   2.314  0.00  0.00    +0.050 A 
ATOM     34  C   UNL     1       4.833 -11.113   1.149  0.00  0.00    +0.166 A 
ATOM     35  C   UNL     1       4.832 -10.472  -0.088  0.00  0.00    +0.167 A 
ATOM     36  C   UNL     1       4.845  -9.088  -0.146  0.00  0.00    +0.054 A 
ATOM     37  O   UNL     1       4.813 -11.420  -1.070  0.00  0.00    -0.453 OA
ATOM     38  C   UNL     1       5.213 -12.646  -0.430  0.00  0.00    +0.466 C 
ATOM     39  O   UNL     1       4.813 -12.462   0.941  0.00  0.00    -0.453 OA
ENDBRANCH  30  31
ENDBRANCH  26  30
ENDBRANCH  22  23
ENDBRANCH   5  22
TORSDOF 6
