REMARK  Name = ZINC14242969
REMARK  8 active torsions:
REMARK  status: ('A' for Active; 'I' for Inactive)
REMARK    1  A    between atoms: C_4  and  C_7
REMARK    2  A    between atoms: C_7  and  C_8
REMARK    3  A    between atoms: C_8  and  N_9
REMARK    4  A    between atoms: C_10  and  C_20
REMARK    5  A    between atoms: C_20  and  S_21
REMARK    6  A    between atoms: S_21  and  C_22
REMARK    7  A    between atoms: N_26  and  C_27
REMARK    8  A    between atoms: C_30  and  O_33
REMARK                            x       y       z     vdW  Elec       q    Type
REMARK                         _______ _______ _______ _____ _____    ______ ____
ROOT
ATOM      1  N   UNL     1       1.169   2.163   0.003  0.00  0.00    -0.295 N 
ATOM      2  C   UNL     1      -0.018   1.503   0.010  0.00  0.00    +0.123 A 
ATOM      3  N   UNL     1      -1.170   2.103   0.019  0.00  0.00    -0.233 NA
ATOM      4  C   UNL     1      -1.266   3.456   0.032  0.00  0.00    +0.078 A 
ATOM      5  C   UNL     1      -2.504   4.102   0.046  0.00  0.00    +0.028 A 
ATOM      6  C   UNL     1      -2.555   5.478   0.053  0.00  0.00    +0.002 A 
ATOM      7  C   UNL     1      -1.389   6.233   0.046  0.00  0.00    +0.001 A 
ATOM      8  C   UNL     1      -0.156   5.619   0.032  0.00  0.00    +0.015 A 
ATOM      9  C   UNL     1      -0.083   4.227   0.025  0.00  0.00    +0.065 A 
ATOM     10  C   UNL     1       1.204   3.516   0.009  0.00  0.00    +0.262 A 
ATOM     11  O   UNL     1       2.261   4.121   0.002  0.00  0.00    -0.267 OA
ENDROOT
BRANCH   1  12
ATOM     12  C   UNL     1       2.422   1.404  -0.013  0.00  0.00    +0.131 C 
BRANCH  12  13
ATOM     13  C   UNL     1       2.844   1.148  -1.461  0.00  0.00    +0.057 C 
BRANCH  13  17
ATOM     14  C   UNL     1       6.497  -1.065  -1.508  0.00  0.00    +0.000 A 
ATOM     15  C   UNL     1       5.286  -1.731  -1.500  0.00  0.00    +0.000 A 
ATOM     16  C   UNL     1       4.104  -1.015  -1.485  0.00  0.00    +0.004 A 
ATOM     17  C   UNL     1       4.133   0.367  -1.478  0.00  0.00    -0.046 A 
ATOM     18  C   UNL     1       5.344   1.033  -1.492  0.00  0.00    +0.004 A 
ATOM     19  C   UNL     1       6.527   0.317  -1.501  0.00  0.00    +0.000 A 
ENDBRANCH  13  17
ENDBRANCH  12  13
ENDBRANCH   1  12
BRANCH   2  20
ATOM     20  C   UNL     1       0.002  -0.004   0.002  0.00  0.00    +0.151 C 
BRANCH  20  21
ATOM     21  S   UNL     1      -1.696  -0.631   0.015  0.00  0.00    -0.076 S 
BRANCH  21  22
ATOM     22  C   UNL     1      -1.383  -2.364   0.003  0.00  0.00    +0.214 A 
ATOM     23  N   UNL     1      -0.202  -2.946  -0.011  0.00  0.00    -0.101 NA
ATOM     24  N   UNL     1      -0.330  -4.224  -0.017  0.00  0.00    -0.022 NA
ATOM     25  N   UNL     1      -1.577  -4.550  -0.008  0.00  0.00    -0.038 NA
ATOM     26  N   UNL     1      -2.312  -3.352   0.012  0.00  0.00    -0.187 N 
BRANCH  26  27
ATOM     27  C   UNL     1      -3.708  -3.209   0.033  0.00  0.00    +0.070 A 
ATOM     28  C   UNL     1      -4.288  -2.165   0.740  0.00  0.00    +0.031 A 
ATOM     29  C   UNL     1      -5.662  -2.021   0.756  0.00  0.00    +0.047 A 
ATOM     30  C   UNL     1      -6.462  -2.926   0.074  0.00  0.00    +0.117 A 
ATOM     31  C   UNL     1      -5.883  -3.973  -0.628  0.00  0.00    +0.047 A 
ATOM     32  C   UNL     1      -4.510  -4.114  -0.650  0.00  0.00    +0.031 A 
BRANCH  30  33
ATOM     33  O   UNL     1      -7.814  -2.788   0.095  0.00  0.00    -0.507 OA
ATOM     34  H   UNL     1      -8.246  -3.256   0.824  0.00  0.00    +0.292 HD
ENDBRANCH  30  33
ENDBRANCH  26  27
ENDBRANCH  21  22
ENDBRANCH  20  21
ENDBRANCH   2  20
TORSDOF 8
