REMARK  Name = ZINC02594560
REMARK  13 active torsions:
REMARK  status: ('A' for Active; 'I' for Inactive)
REMARK    1  A    between atoms: C_1  and  C_2
REMARK    2  A    between atoms: C_2  and  C_3
REMARK    3  A    between atoms: C_3  and  C_5
REMARK    4  A    between atoms: C_3  and  C_6
REMARK    5  A    between atoms: C_11  and  O_12
REMARK    6  A    between atoms: O_12  and  C_13
REMARK    7  A    between atoms: C_13  and  C_14
REMARK    8  A    between atoms: C_14  and  C_15
REMARK    9  A    between atoms: C_15  and  N_16
REMARK   10  A    between atoms: C_18  and  C_25
REMARK   11  A    between atoms: C_27  and  O_40
REMARK   12  A    between atoms: N_31  and  C_34
REMARK   13  A    between atoms: C_34  and  C_35
REMARK                            x       y       z     vdW  Elec       q    Type
REMARK                         _______ _______ _______ _____ _____    ______ ____
ROOT
ATOM      1  N   UNL     1      -1.201   1.218   1.160  0.00  0.00    -0.346 N 
ATOM      2  C   UNL     1      -2.445   1.691   1.350  0.00  0.00    +0.094 A 
ATOM      3  C   UNL     1      -2.472   2.478   2.491  0.00  0.00    +0.001 A 
ATOM      4  C   UNL     1      -1.096   2.466   3.028  0.00  0.00    +0.007 A 
ATOM      5  C   UNL     1      -0.351   1.657   2.156  0.00  0.00    +0.050 A 
ATOM      6  C   UNL     1       1.000   1.448   2.409  0.00  0.00    +0.026 A 
ATOM      7  C   UNL     1       1.593   2.031   3.509  0.00  0.00    +0.002 A 
ATOM      8  C   UNL     1       0.854   2.827   4.370  0.00  0.00    +0.001 A 
ATOM      9  C   UNL     1      -0.485   3.051   4.132  0.00  0.00    +0.010 A 
ENDROOT
BRANCH   3  10
ATOM     10  C   UNL     1      -3.585   3.152   3.028  0.00  0.00    +0.028 C 
ATOM     11  C   UNL     1      -4.432   3.873   2.191  0.00  0.00    +0.097 C 
ATOM     12  C   UNL     1      -5.665   4.403   2.667  0.00  0.00    +0.218 C 
ATOM     13  N   UNL     1      -6.438   5.082   1.836  0.00  0.00    -0.127 NA
ATOM     14  C   UNL     1      -6.100   5.288   0.565  0.00  0.00    +0.336 C 
ATOM     15  O   UNL     1      -6.861   5.923  -0.143  0.00  0.00    -0.250 OA
ATOM     16  N   UNL     1      -4.958   4.827   0.030  0.00  0.00    -0.213 N 
ATOM     17  C   UNL     1      -4.084   4.123   0.782  0.00  0.00    +0.259 C 
ATOM     18  O   UNL     1      -3.043   3.705   0.309  0.00  0.00    -0.269 OA
BRANCH  12  19
ATOM     19  O   UNL     1      -6.041   4.215   3.950  0.00  0.00    -0.493 OA
ATOM     20  H   UNL     1      -6.893   4.613   4.173  0.00  0.00    +0.294 HD
ENDBRANCH  12  19
BRANCH  16  21
ATOM     21  C   UNL     1      -4.655   5.094  -1.378  0.00  0.00    +0.192 C 
BRANCH  21  22
ATOM     22  C   UNL     1      -3.892   6.389  -1.491  0.00  0.00    +0.123 A 
ATOM     23  C   UNL     1      -2.554   6.519  -1.451  0.00  0.00    +0.046 A 
ATOM     24  C   UNL     1      -2.273   7.898  -1.593  0.00  0.00    +0.041 A 
ATOM     25  C   UNL     1      -3.456   8.527  -1.711  0.00  0.00    +0.195 A 
ATOM     26  O   UNL     1      -4.433   7.607  -1.654  0.00  0.00    -0.466 OA
ENDBRANCH  21  22
ENDBRANCH  16  21
ENDBRANCH   3  10
BRANCH   1  27
ATOM     27  C   UNL     1      -0.802   0.349   0.050  0.00  0.00    +0.125 C 
BRANCH  27  28
ATOM     28  C   UNL     1      -0.865  -1.113   0.498  0.00  0.00    +0.062 C 
BRANCH  28  29
ATOM     29  C   UNL     1      -0.449  -2.020  -0.662  0.00  0.00    +0.231 C 
BRANCH  29  30
ATOM     30  O   UNL     1      -0.508  -3.385  -0.243  0.00  0.00    -0.492 OA
BRANCH  30  36
ATOM     31  C   UNL     1      -0.200  -5.672  -0.823  0.00  0.00    -0.003 A 
ATOM     32  C   UNL     1       0.148  -6.627  -1.758  0.00  0.00    +0.007 A 
ATOM     33  C   UNL     1       0.530  -6.245  -3.030  0.00  0.00    +0.001 A 
ATOM     34  C   UNL     1       0.565  -4.905  -3.370  0.00  0.00    +0.004 A 
ATOM     35  C   UNL     1       0.213  -3.946  -2.441  0.00  0.00    +0.046 A 
ATOM     36  C   UNL     1      -0.166  -4.327  -1.161  0.00  0.00    +0.124 A 
BRANCH  31  37
ATOM     37  C   UNL     1      -0.618  -6.090   0.564  0.00  0.00    +0.019 C 
ATOM     38  C   UNL     1      -1.853  -6.988   0.475  0.00  0.00    +0.012 C 
BRANCH  37  40
ATOM     39  C   UNL     1       0.150  -7.175   2.679  0.00  0.00    +0.004 C 
ATOM     40  C   UNL     1       0.525  -6.859   1.230  0.00  0.00    +0.004 C 
ENDBRANCH  37  40
ENDBRANCH  31  37
ENDBRANCH  30  36
ENDBRANCH  29  30
ENDBRANCH  28  29
ENDBRANCH  27  28
ENDBRANCH   1  27
TORSDOF 11
