REMARK  Name = ZINC39674590
REMARK  7 active torsions:
REMARK  status: ('A' for Active; 'I' for Inactive)
REMARK    1  A    between atoms: C_1  and  C_2
REMARK    2  A    between atoms: C_4  and  C_14
REMARK    3  A    between atoms: C_7  and  C_12
REMARK    4  A    between atoms: C_14  and  C_15
REMARK    5  A    between atoms: C_15  and  N_16
REMARK    6  A    between atoms: C_17  and  C_19
REMARK    7  A    between atoms: C_30  and  C_32
REMARK                            x       y       z     vdW  Elec       q    Type
REMARK                         _______ _______ _______ _____ _____    ______ ____
ROOT
ATOM      1  C   UNL     1      -6.927  -1.518  -1.912  0.00  0.00    +0.100 C 
ATOM      2  C   UNL     1      -6.509  -1.783  -3.376  0.00  0.00    +0.121 C 
ATOM      3  N   UNL     1      -7.120  -3.091  -3.709  0.00  0.00    -0.296 N 
ATOM      4  C   UNL     1      -8.453  -3.052  -3.059  0.00  0.00    +0.115 C 
ATOM      5  C   UNL     1      -8.205  -2.350  -1.709  0.00  0.00    -0.004 C 
ATOM      6  C   UNL     1      -9.379  -1.439  -1.364  0.00  0.00    -0.010 C 
ATOM      7  C   UNL     1     -10.624  -2.293  -1.110  0.00  0.00    -0.082 C 
ATOM      8  N   UNL     1     -10.364  -3.227  -0.008  0.00  0.00    +0.379 N 
ATOM      9  C   UNL     1      -9.295  -4.160  -0.385  0.00  0.00    -0.082 C 
ATOM     10  C   UNL     1      -7.993  -3.385  -0.609  0.00  0.00    -0.010 C 
ATOM     11  C   UNL     1      -6.586  -4.091  -4.438  0.00  0.00    +0.248 C 
ATOM     12  O   UNL     1      -7.253  -5.071  -4.706  0.00  0.00    -0.270 OA
ATOM     13  H   UNL     1     -10.082  -2.708   0.811  0.00  0.00    -0.086 HD
ATOM     14  H   UNL     1     -11.204  -3.745   0.197  0.00  0.00    -0.086 HD
ENDROOT
BRANCH  11  15
ATOM     15  C   UNL     1      -5.190  -3.995  -4.912  0.00  0.00    +0.055 A 
ATOM     16  C   UNL     1      -4.662  -2.760  -5.294  0.00  0.00    +0.014 A 
ATOM     17  C   UNL     1      -3.358  -2.677  -5.735  0.00  0.00    +0.001 A 
ATOM     18  C   UNL     1      -2.572  -3.815  -5.800  0.00  0.00    +0.001 A 
ATOM     19  C   UNL     1      -3.087  -5.042  -5.424  0.00  0.00    +0.021 A 
ATOM     20  C   UNL     1      -4.390  -5.138  -4.975  0.00  0.00    +0.053 A 
ATOM     21 CL   UNL     1      -5.034  -6.678  -4.496  0.00  0.00    -0.083 Cl
ENDBRANCH  11  15
BRANCH   1  23
ATOM     22  N   UNL     1      -5.713  -1.392   0.240  0.00  0.00    -0.315 N 
ATOM     23  C   UNL     1      -5.847  -1.978  -0.966  0.00  0.00    +0.218 C 
ATOM     24  O   UNL     1      -5.098  -2.875  -1.292  0.00  0.00    -0.275 OA
ATOM     25  H   UNL     1      -6.312  -0.675   0.500  0.00  0.00    +0.149 HD
BRANCH  22  26
ATOM     26  C   UNL     1      -4.663  -1.839   1.159  0.00  0.00    +0.108 C 
BRANCH  26  27
ATOM     27  C   UNL     1      -4.730  -1.017   2.447  0.00  0.00    +0.052 C 
BRANCH  27  30
ATOM     28  C   UNL     1      -4.575  -1.130   5.683  0.00  0.00    +0.035 C 
ATOM     29  C   UNL     1      -3.360  -0.934   4.774  0.00  0.00    +0.103 C 
ATOM     30  C   UNL     1      -3.650  -1.476   3.393  0.00  0.00    -0.037 C 
ATOM     31  C   UNL     1      -2.740  -2.460   3.176  0.00  0.00    +0.000 A 
ATOM     32  C   UNL     1      -2.521  -3.321   2.069  0.00  0.00    +0.028 A 
ATOM     33  C   UNL     1      -1.509  -4.252   2.107  0.00  0.00    +0.052 A 
ATOM     34  C   UNL     1      -0.642  -4.380   3.274  0.00  0.00    +0.021 A 
ATOM     35  C   UNL     1      -0.803  -3.590   4.355  0.00  0.00    +0.027 A 
ATOM     36  C   UNL     1      -1.868  -2.580   4.366  0.00  0.00    +0.043 A 
ATOM     37  N   UNL     1      -2.221  -1.708   5.280  0.00  0.00    -0.378 N 
ATOM     38  H   UNL     1      -1.800  -1.593   6.146  0.00  0.00    +0.160 HD
BRANCH  33  39
ATOM     39  C   UNL     1      -1.302  -5.112   0.981  0.00  0.00    +0.099 C 
ATOM     40  N   UNL     1      -1.139  -5.794   0.088  0.00  0.00    -0.191 NA
ENDBRANCH  33  39
ENDBRANCH  27  30
ENDBRANCH  26  27
ENDBRANCH  22  26
ENDBRANCH   1  23
TORSDOF 6
