REMARK  Name = ZINC12924710
REMARK  5 active torsions:
REMARK  status: ('A' for Active; 'I' for Inactive)
REMARK    1  A    between atoms: C_4  and  C_7
REMARK    2  A    between atoms: C_16  and  C_17
REMARK    3  A    between atoms: C_16  and  N_47
REMARK    4  A    between atoms: N_19  and  C_20
REMARK    5  A    between atoms: C_23  and  N_27
REMARK                            x       y       z     vdW  Elec       q    Type
REMARK                         _______ _______ _______ _____ _____    ______ ____
ROOT
ATOM      1  C   UNL     1      -7.166   1.956  -0.212  0.00  0.00    -0.005 C 
ATOM      2  C   UNL     1      -8.308   2.968  -0.198  0.00  0.00    -0.047 A 
ATOM      3  C   UNL     1      -9.646   2.626  -0.016  0.00  0.00    +0.010 A 
ATOM      4  C   UNL     1     -10.596   3.590  -0.015  0.00  0.00    +0.045 A 
ATOM      5  S   UNL     1      -9.625   5.066  -0.280  0.00  0.00    -0.101 S 
ATOM      6  C   UNL     1      -8.036   4.292  -0.371  0.00  0.00    -0.010 A 
ATOM      7  C   UNL     1      -6.690   4.905  -0.586  0.00  0.00    +0.024 C 
ATOM      8  C   UNL     1      -5.709   3.772  -0.931  0.00  0.00    -0.072 C 
ATOM      9  N   UNL     1      -5.902   2.682   0.055  0.00  0.00    +0.393 N 
ATOM     10  H   UNL     1      -5.948   3.091   0.996  0.00  0.00    -0.080 HD
ENDROOT
BRANCH   1  14
ATOM     11  C   UNL     1      -7.771  -0.932   2.877  0.00  0.00    +0.000 A 
ATOM     12  C   UNL     1      -8.089  -1.243   1.568  0.00  0.00    +0.000 A 
ATOM     13  C   UNL     1      -7.893  -0.309   0.568  0.00  0.00    +0.002 A 
ATOM     14  C   UNL     1      -7.380   0.937   0.878  0.00  0.00    -0.057 A 
ATOM     15  C   UNL     1      -7.057   1.246   2.186  0.00  0.00    +0.002 A 
ATOM     16  C   UNL     1      -7.257   0.313   3.186  0.00  0.00    +0.000 A 
ENDBRANCH   1  14
BRANCH   9  17
ATOM     17  C   UNL     1      -4.763   1.744  -0.004  0.00  0.00    +0.020 C 
BRANCH  17  18
ATOM     18  C   UNL     1      -4.634   1.143  -1.379  0.00  0.00    +0.201 C 
ATOM     19  O   UNL     1      -5.360   1.519  -2.276  0.00  0.00    -0.278 OA
ATOM     20  N   UNL     1      -3.712   0.189  -1.614  0.00  0.00    -0.286 N 
ATOM     21  H   UNL     1      -3.176  -0.158  -0.884  0.00  0.00    +0.155 HD
BRANCH  20  22
ATOM     22  C   UNL     1      -3.529  -0.304  -2.912  0.00  0.00    +0.052 A 
ATOM     23  C   UNL     1      -4.613  -0.422  -3.770  0.00  0.00    +0.027 A 
ATOM     24  C   UNL     1      -4.430  -0.914  -5.048  0.00  0.00    +0.034 A 
ATOM     25  C   UNL     1      -3.167  -1.282  -5.475  0.00  0.00    +0.128 A 
ATOM     26  C   UNL     1      -2.084  -1.160  -4.625  0.00  0.00    +0.054 A 
ATOM     27  C   UNL     1      -2.260  -0.669  -3.345  0.00  0.00    +0.064 A 
ATOM     28 CL   UNL     1      -0.900  -0.516  -2.277  0.00  0.00    -0.082 Cl
BRANCH  25  29
ATOM     29  N   UNL     1      -2.975  -1.808  -6.845  0.00  0.00    +0.056 N 
ATOM     30  O   UNL     1      -1.863  -2.133  -7.222  0.00  0.00    -0.126 OA
ATOM     31  O   UNL     1      -3.928  -1.916  -7.595  0.00  0.00    -0.126 OA
ENDBRANCH  25  29
ENDBRANCH  20  22
ENDBRANCH  17  18
ENDBRANCH   9  17
TORSDOF 5
