REMARK  Name = ZINC14730541
REMARK  8 active torsions:
REMARK  status: ('A' for Active; 'I' for Inactive)
REMARK    1  A    between atoms: C_1  and  C_2
REMARK    2  A    between atoms: C_2  and  C_3
REMARK    3  A    between atoms: C_8  and  N_9
REMARK    4  A    between atoms: C_12  and  C_17
REMARK    5  A    between atoms: C_17  and  S_18
REMARK    6  A    between atoms: S_18  and  C_19
REMARK    7  A    between atoms: C_23  and  C_25
REMARK    8  A    between atoms: C_25  and  C_26
REMARK                            x       y       z     vdW  Elec       q    Type
REMARK                         _______ _______ _______ _____ _____    ______ ____
ROOT
ATOM      1  N   UNL     1      -1.308  -0.339   2.505  0.00  0.00    -0.283 N 
ATOM      2  C   UNL     1      -2.006  -0.585   3.672  0.00  0.00    +0.224 A 
ATOM      3  N   UNL     1      -3.322  -0.386   3.716  0.00  0.00    -0.198 NA
ATOM      4  C   UNL     1      -3.990  -0.620   4.832  0.00  0.00    +0.146 A 
ATOM      5  N   UNL     1      -3.356  -1.052   5.908  0.00  0.00    -0.199 NA
ATOM      6  C   UNL     1      -2.041  -1.254   5.871  0.00  0.00    +0.217 A 
ATOM      7  N   UNL     1      -1.366  -1.025   4.750  0.00  0.00    -0.181 NA
ATOM      8  N   UNL     1      -1.379  -1.705   6.995  0.00  0.00    -0.327 N 
ATOM      9  H   UNL     1      -1.786  -0.104   1.695  0.00  0.00    +0.155 HD
ATOM     10  H   UNL     1      -1.873  -1.876   7.812  0.00  0.00    +0.145 HD
ATOM     11  H   UNL     1      -0.421  -1.852   6.968  0.00  0.00    +0.145 HD
ENDROOT
BRANCH   1  17
ATOM     12  C   UNL     1       0.751  -0.793   1.329  0.00  0.00    -0.026 A 
ATOM     13  C   UNL     1       2.130  -0.875   1.318  0.00  0.00    +0.005 A 
ATOM     14  C   UNL     1       2.849  -0.601   2.467  0.00  0.00    +0.000 A 
ATOM     15  C   UNL     1       2.190  -0.244   3.630  0.00  0.00    +0.002 A 
ATOM     16  C   UNL     1       0.812  -0.160   3.647  0.00  0.00    +0.023 A 
ATOM     17  C   UNL     1       0.087  -0.429   2.493  0.00  0.00    +0.037 A 
BRANCH  12  19
ATOM     18  C   UNL     1      -0.318   0.214  -0.669  0.00  0.00    +0.009 C 
ATOM     19  C   UNL     1      -0.032  -1.091   0.076  0.00  0.00    +0.033 C 
ENDBRANCH  12  19
ENDBRANCH   1  17
BRANCH   4  20
ATOM     20  C   UNL     1      -5.479  -0.394   4.877  0.00  0.00    +0.153 C 
BRANCH  20  21
ATOM     21  S   UNL     1      -6.338  -1.918   4.400  0.00  0.00    -0.079 S 
BRANCH  21  22
ATOM     22  C   UNL     1      -8.045  -1.496   4.502  0.00  0.00    +0.185 A 
ATOM     23  N   UNL     1      -9.085  -2.318   4.241  0.00  0.00    -0.254 N 
ATOM     24  H   UNL     1      -9.037  -3.246   3.964  0.00  0.00    +0.191 HD
ATOM     25  N   UNL     1     -10.249  -1.561   4.451  0.00  0.00    -0.157 NA
ATOM     26  C   UNL     1      -9.867  -0.365   4.813  0.00  0.00    +0.152 A 
ATOM     27  N   UNL     1      -8.535  -0.325   4.850  0.00  0.00    -0.206 NA
BRANCH  26  28
ATOM     28  C   UNL     1     -10.786   0.782   5.143  0.00  0.00    +0.081 C 
BRANCH  28  29
ATOM     29  C   UNL     1     -11.116   0.758   6.637  0.00  0.00    -0.004 C 
ATOM     30  C   UNL     1     -11.982  -0.475   6.967  0.00  0.00    +0.004 C 
ATOM     31  C   UNL     1     -12.974   0.035   8.041  0.00  0.00    +0.000 C 
ATOM     32  C   UNL     1     -13.296   1.470   7.557  0.00  0.00    +0.000 C 
ATOM     33  C   UNL     1     -11.951   1.995   7.012  0.00  0.00    +0.004 C 
ENDBRANCH  28  29
ENDBRANCH  26  28
ENDBRANCH  21  22
ENDBRANCH  20  21
ENDBRANCH   4  20
TORSDOF 7
