REMARK  Name = ZINC16115760
REMARK  4 active torsions:
REMARK  status: ('A' for Active; 'I' for Inactive)
REMARK    1  A    between atoms: C_3  and  C_10
REMARK    2  A    between atoms: C_5  and  N_7
REMARK    3  A    between atoms: C_17  and  N_32
REMARK    4  A    between atoms: C_18  and  C_30
REMARK                            x       y       z     vdW  Elec       q    Type
REMARK                         _______ _______ _______ _____ _____    ______ ____
ROOT
ATOM      1  C   UNL     1       3.660   2.164  -0.022  0.00  0.00    +0.101 A 
ATOM      2  C   UNL     1       3.917   3.335  -0.741  0.00  0.00    +0.066 A 
ATOM      3  C   UNL     1       5.204   3.716  -0.481  0.00  0.00    +0.224 A 
ATOM      4  N   UNL     1       5.734   2.816   0.371  0.00  0.00    -0.246 N 
ATOM      5  H   UNL     1       6.635   2.832   0.730  0.00  0.00    +0.192 HD
ATOM      6  N   UNL     1       4.751   1.854   0.652  0.00  0.00    -0.171 NA
ATOM      7  O   UNL     1       5.762   4.822  -1.033  0.00  0.00    -0.423 OA
ATOM      8  C   UNL     1       5.117   5.412  -2.059  0.00  0.00    +0.201 C 
ATOM      9  C   UNL     1       3.839   5.128  -2.405  0.00  0.00    +0.110 C 
ATOM     10  C   UNL     1       3.017   4.115  -1.657  0.00  0.00    +0.145 C 
ATOM     11  C   UNL     1       1.905   4.767  -0.901  0.00  0.00    +0.001 A 
ATOM     12  C   UNL     1       1.912   5.707   0.107  0.00  0.00    +0.045 A 
ATOM     13  C   UNL     1       0.675   6.111   0.603  0.00  0.00    +0.124 A 
ATOM     14  C   UNL     1      -0.504   5.589   0.104  0.00  0.00    +0.040 A 
ATOM     15  C   UNL     1      -0.517   4.645  -0.910  0.00  0.00    +0.026 A 
ATOM     16  C   UNL     1       0.717   4.233  -1.416  0.00  0.00    +0.038 A 
ATOM     17  N   UNL     1       0.995   3.317  -2.417  0.00  0.00    -0.284 N 
ATOM     18  C   UNL     1       2.322   3.185  -2.627  0.00  0.00    +0.238 C 
ATOM     19  O   UNL     1       2.855   2.459  -3.439  0.00  0.00    -0.274 OA
ATOM     20  F   UNL     1       0.626   7.029   1.592  0.00  0.00    -0.205 F 
ATOM     21  H   UNL     1       0.316   2.829  -2.909  0.00  0.00    +0.155 HD
ENDROOT
BRANCH   1  24
ATOM     22  C   UNL     1      -0.003   1.359   0.239  0.00  0.00    +0.003 A 
ATOM     23  C   UNL     1       1.181   2.067   0.233  0.00  0.00    +0.010 A 
ATOM     24  C   UNL     1       2.384   1.408  -0.013  0.00  0.00    +0.005 A 
ATOM     25  C   UNL     1       2.383   0.035  -0.252  0.00  0.00    +0.042 A 
ATOM     26  C   UNL     1       1.193  -0.664  -0.243  0.00  0.00    +0.127 A 
ATOM     27  C   UNL     1       0.002  -0.004   0.002  0.00  0.00    +0.033 A 
BRANCH  26  28
ATOM     28  N   UNL     1       1.190  -2.122  -0.497  0.00  0.00    +0.056 N 
ATOM     29  O   UNL     1       2.231  -2.700  -0.711  0.00  0.00    -0.126 OA
ATOM     30  O   UNL     1       0.149  -2.736  -0.489  0.00  0.00    -0.126 OA
ENDBRANCH  26  28
ENDBRANCH   1  24
BRANCH   8  31
ATOM     31  N   UNL     1       5.794   6.353  -2.795  0.00  0.00    -0.328 N 
ATOM     32  H   UNL     1       6.710   6.577  -2.571  0.00  0.00    +0.145 HD
ATOM     33  H   UNL     1       5.355   6.794  -3.540  0.00  0.00    +0.145 HD
ENDBRANCH   8  31
BRANCH   9  34
ATOM     34  C   UNL     1       3.252   5.815  -3.516  0.00  0.00    +0.102 C 
ATOM     35  N   UNL     1       2.786   6.359  -4.398  0.00  0.00    -0.191 NA
ENDBRANCH   9  34
TORSDOF 4
