REMARK  Name = ZINC43721703
REMARK  12 active torsions:
REMARK  status: ('A' for Active; 'I' for Inactive)
REMARK    1  A    between atoms: C_1  and  C_2
REMARK    2  A    between atoms: C_2  and  O_4
REMARK    3  A    between atoms: O_4  and  C_5
REMARK    4  A    between atoms: C_10  and  C_42
REMARK    5  A    between atoms: C_13  and  O_18
REMARK    6  A    between atoms: C_15  and  C_16
REMARK    7  A    between atoms: C_15  and  C_17
REMARK    8  A    between atoms: O_18  and  C_19
REMARK    9  A    between atoms: C_19  and  C_21
REMARK   10  A    between atoms: C_24  and  C_41
REMARK   11  A    between atoms: C_30  and  C_36
REMARK   12  A    between atoms: C_32  and  C_35
REMARK                            x       y       z     vdW  Elec       q    Type
REMARK                         _______ _______ _______ _____ _____    ______ ____
ROOT
ATOM      1  C   UNL     1      -1.376  -2.822  -0.143  0.00  0.00    +0.187 C 
ATOM      2  C   UNL     1      -1.409  -3.418  -1.547  0.00  0.00    +0.050 C 
ATOM      3  C   UNL     1      -1.345  -4.931  -1.584  0.00  0.00    +0.012 C 
ATOM      4  C   UNL     1      -2.341  -5.593  -0.647  0.00  0.00    -0.007 C 
ATOM      5  C   UNL     1      -2.006  -7.051  -0.428  0.00  0.00    -0.020 C 
ATOM      6  C   UNL     1      -0.991  -7.662  -0.931  0.00  0.00    +0.014 C 
ATOM      7  C   UNL     1       0.022  -7.011  -1.819  0.00  0.00    +0.205 C 
ATOM      8  C   UNL     1       0.059  -5.497  -1.557  0.00  0.00    +0.010 C 
ATOM      9  C   UNL     1       0.898  -4.878  -2.695  0.00  0.00    +0.015 C 
ATOM     10  C   UNL     1       0.788  -5.241  -0.239  0.00  0.00    +0.015 C 
ATOM     11  C   UNL     1      -2.377  -4.919   0.716  0.00  0.00    +0.012 C 
ATOM     12  C   UNL     1      -2.510  -3.406   0.698  0.00  0.00    +0.031 C 
ATOM     13  C   UNL     1      -2.434  -2.905   2.134  0.00  0.00    -0.043 C 
ATOM     14  C   UNL     1      -2.522  -1.591   2.336  0.00  0.00    +0.092 C 
ATOM     15  C   UNL     1      -2.543  -1.085   3.723  0.00  0.00    +0.333 C 
ATOM     16  O   UNL     1      -2.172   0.020   4.043  0.00  0.00    -0.246 OA
ATOM     17  O   UNL     1      -3.072  -1.968   4.619  0.00  0.00    -0.453 OA
ATOM     18  C   UNL     1      -2.408  -3.224   4.640  0.00  0.00    +0.220 C 
ATOM     19  C   UNL     1      -2.283  -3.874   3.268  0.00  0.00    +0.031 C 
ATOM     20  C   UNL     1      -3.223  -5.053   3.104  0.00  0.00    +0.015 C 
ATOM     21  C   UNL     1      -3.384  -5.539   1.665  0.00  0.00    +0.006 C 
ATOM     22  C   UNL     1      -0.834  -4.396   3.280  0.00  0.00    +0.020 C 
ATOM     23  C   UNL     1      -3.862  -2.925   0.141  0.00  0.00    +0.020 C 
ATOM     24  C   UNL     1      -3.726  -5.589  -1.321  0.00  0.00    +0.016 C 
ENDROOT
BRANCH  18  25
ATOM     25  C   UNL     1      -3.078  -4.148   5.625  0.00  0.00    +0.031 A 
ATOM     26  C   UNL     1      -2.436  -5.041   6.513  0.00  0.00    +0.048 A 
ATOM     27  C   UNL     1      -3.405  -5.665   7.206  0.00  0.00    +0.195 A 
ATOM     28  O   UNL     1      -4.593  -5.200   6.787  0.00  0.00    -0.471 OA
ATOM     29  C   UNL     1      -4.401  -4.276   5.831  0.00  0.00    +0.202 A 
ENDBRANCH  18  25
BRANCH   1  30
ATOM     30  O   UNL     1      -1.538  -1.400  -0.260  0.00  0.00    -0.461 OA
BRANCH  30  32
ATOM     31  C   UNL     1      -0.514   0.831  -0.519  0.00  0.00    +0.136 C 
ATOM     32  C   UNL     1      -0.421  -0.667  -0.391  0.00  0.00    +0.304 C 
ATOM     33  O   UNL     1       0.658  -1.210  -0.405  0.00  0.00    -0.251 OA
ENDBRANCH  30  32
ENDBRANCH   1  30
BRANCH   7  34
ATOM     34  O   UNL     1      -0.306  -7.247  -3.187  0.00  0.00    -0.457 OA
BRANCH  34  35
ATOM     35  C   UNL     1       0.211  -8.348  -3.756  0.00  0.00    +0.305 C 
ATOM     36  O   UNL     1       0.918  -9.086  -3.111  0.00  0.00    -0.251 OA
ATOM     37  C   UNL     1      -0.092  -8.664  -5.198  0.00  0.00    +0.136 C 
ENDBRANCH  34  35
ENDBRANCH   7  34
TORSDOF 5
