REMARK  Name = ZINC22363093
REMARK  11 active torsions:
REMARK  status: ('A' for Active; 'I' for Inactive)
REMARK    1  A    between atoms: C_1  and  C_2
REMARK    2  A    between atoms: C_9  and  C_36
REMARK    3  A    between atoms: C_9  and  C_37
REMARK    4  A    between atoms: C_11  and  N_13
REMARK    5  A    between atoms: C_14  and  C_16
REMARK    6  A    between atoms: C_16  and  N_17
REMARK    7  A    between atoms: N_17  and  C_18
REMARK    8  A    between atoms: N_17  and  S_26
REMARK    9  A    between atoms: C_21  and  C_25
REMARK   10  A    between atoms: C_22  and  C_24
REMARK   11  A    between atoms: S_26  and  C_29
REMARK                            x       y       z     vdW  Elec       q    Type
REMARK                         _______ _______ _______ _____ _____    ______ ____
ROOT
ATOM      1  N   UNL     1       2.270   0.756  -0.352  0.00  0.00    -0.194 N 
ENDROOT
BRANCH   1   2
ATOM      2  C   UNL     1       1.885   0.120  -1.535  0.00  0.00    +0.052 A 
ATOM      3  C   UNL     1       2.379  -1.142  -1.839  0.00  0.00    +0.025 A 
ATOM      4  C   UNL     1       1.992  -1.770  -3.007  0.00  0.00    +0.005 A 
ATOM      5  C   UNL     1       1.123  -1.139  -3.878  0.00  0.00    -0.047 A 
ATOM      6  C   UNL     1       0.634   0.119  -3.581  0.00  0.00    -0.046 A 
ATOM      7  C   UNL     1       1.012   0.751  -2.412  0.00  0.00    +0.028 A 
ATOM      8  C   UNL     1      -0.313   0.803  -4.533  0.00  0.00    +0.044 C 
ATOM      9  C   UNL     1       0.708  -1.825  -5.154  0.00  0.00    +0.044 C 
ENDBRANCH   1   2
BRANCH   1  10
ATOM     10  S   UNL     1       3.716   0.376   0.359  0.00  0.00    +0.075 S 
ATOM     11  O   UNL     1       4.545  -0.157  -0.665  0.00  0.00    -0.150 OA
ATOM     12  O   UNL     1       4.095   1.503   1.137  0.00  0.00    -0.150 OA
BRANCH  10  13
ATOM     13  C   UNL     1       3.409  -0.938   1.493  0.00  0.00    +0.109 A 
ATOM     14  C   UNL     1       2.967  -0.657   2.772  0.00  0.00    +0.030 A 
ATOM     15  C   UNL     1       2.721  -1.688   3.660  0.00  0.00    +0.022 A 
ATOM     16  C   UNL     1       2.928  -2.999   3.272  0.00  0.00    +0.041 A 
ATOM     17  C   UNL     1       3.375  -3.279   1.993  0.00  0.00    +0.022 A 
ATOM     18  C   UNL     1       3.616  -2.248   1.104  0.00  0.00    +0.030 A 
ATOM     19 CL   UNL     1       2.626  -4.294   4.388  0.00  0.00    -0.084 Cl
ENDBRANCH  10  13
ENDBRANCH   1  10
BRANCH   1  20
ATOM     20  C   UNL     1       1.395   1.760   0.258  0.00  0.00    +0.227 C 
BRANCH  20  22
ATOM     21  N   UNL     1      -0.600   1.796   1.720  0.00  0.00    -0.307 N 
ATOM     22  C   UNL     1       0.353   1.071   1.102  0.00  0.00    +0.233 C 
ATOM     23  O   UNL     1       0.369  -0.136   1.220  0.00  0.00    -0.274 OA
ATOM     24  H   UNL     1      -0.660   2.881   1.554  0.00  0.00    +0.149 HD
BRANCH  21  35
ATOM     25  C   UNL     1       0.237   1.824   8.072  0.00  0.00    +0.044 C 
ATOM     26  C   UNL     1      -0.239   1.649   6.653  0.00  0.00    -0.047 A 
ATOM     27  C   UNL     1       0.665   1.347   5.652  0.00  0.00    +0.004 A 
ATOM     28  C   UNL     1       0.227   1.185   4.352  0.00  0.00    +0.009 A 
ATOM     29  C   UNL     1      -1.116   1.325   4.045  0.00  0.00    +0.015 A 
ATOM     30  C   UNL     1      -2.023   1.631   5.044  0.00  0.00    +0.126 A 
ATOM     31  C   UNL     1      -1.579   1.791   6.353  0.00  0.00    +0.049 A 
ATOM     32  O   UNL     1      -3.348   1.782   4.786  0.00  0.00    -0.486 OA
ATOM     33  C   UNL     1      -3.852   1.264   3.554  0.00  0.00    +0.107 C 
ATOM     34  C   UNL     1      -2.944   1.752   2.418  0.00  0.00    +0.074 C 
ATOM     35  C   UNL     1      -1.556   1.138   2.615  0.00  0.00    +0.110 C 
ATOM     36  C   UNL     1      -5.278   1.770   3.327  0.00  0.00    +0.055 C 
ATOM     37  C   UNL     1      -3.848  -0.265   3.597  0.00  0.00    +0.055 C 
ENDBRANCH  21  35
ENDBRANCH  20  22
ENDBRANCH   1  20
TORSDOF 6
