REMARK  Name = ZINC09284632
REMARK  8 active torsions:
REMARK  status: ('A' for Active; 'I' for Inactive)
REMARK    1  A    between atoms: C_7  and  C_11
REMARK    2  A    between atoms: C_11  and  C_13
REMARK    3  A    between atoms: C_13  and  O_14
REMARK    4  A    between atoms: O_14  and  C_15
REMARK    5  A    between atoms: C_15  and  C_17
REMARK    6  A    between atoms: C_18  and  O_32
REMARK    7  A    between atoms: N_20  and  C_22
REMARK    8  A    between atoms: C_27  and  C_28
REMARK                            x       y       z     vdW  Elec       q    Type
REMARK                         _______ _______ _______ _____ _____    ______ ____
ROOT
ATOM      1  C   UNL     1      -3.480  -5.115   0.009  0.00  0.00    +0.211 A 
ATOM      2  C   UNL     1      -3.635  -6.525  -0.003  0.00  0.00    +0.169 A 
ATOM      3  C   UNL     1      -4.975  -6.742   0.015  0.00  0.00    +0.160 A 
ATOM      4  N   UNL     1      -5.577  -5.521   0.027  0.00  0.00    -0.235 N 
ATOM      5  N   UNL     1      -4.692  -4.591   0.024  0.00  0.00    -0.156 NA
ENDROOT
BRANCH   4   6
ATOM      6  C   UNL     1      -6.962  -5.310   0.042  0.00  0.00    +0.077 A 
ATOM      7  C   UNL     1      -7.831  -6.393   0.046  0.00  0.00    +0.028 A 
ATOM      8  C   UNL     1      -9.196  -6.182   0.060  0.00  0.00    +0.002 A 
ATOM      9  C   UNL     1      -9.697  -4.893   0.072  0.00  0.00    +0.001 A 
ATOM     10  C   UNL     1      -8.835  -3.812   0.069  0.00  0.00    +0.014 A 
ATOM     11  C   UNL     1      -7.469  -4.017   0.059  0.00  0.00    +0.080 A 
BRANCH  11  12
ATOM     12  C   UNL     1      -6.529  -2.839   0.062  0.00  0.00    +0.419 C 
ATOM     13  F   UNL     1      -7.270  -1.652   0.081  0.00  0.00    -0.166 F 
ATOM     14  F   UNL     1      -5.713  -2.897   1.197  0.00  0.00    -0.166 F 
ATOM     15  F   UNL     1      -5.733  -2.874  -1.087  0.00  0.00    -0.166 F 
ENDBRANCH  11  12
ENDBRANCH   4   6
BRANCH   1  16
ATOM     16  C   UNL     1      -2.206  -4.375   0.001  0.00  0.00    +0.364 C 
ATOM     17  O   UNL     1      -1.152  -4.979  -0.013  0.00  0.00    -0.243 OA
BRANCH  16  18
ATOM     18  O   UNL     1      -2.210  -3.027   0.008  0.00  0.00    -0.452 OA
BRANCH  18  19
ATOM     19  C   UNL     1      -0.918  -2.364  -0.002  0.00  0.00    +0.312 C 
BRANCH  19  20
ATOM     20  C   UNL     1      -1.119  -0.871   0.009  0.00  0.00    +0.202 C 
ATOM     21  O   UNL     1      -2.243  -0.410   0.022  0.00  0.00    -0.288 OA
BRANCH  20  28
ATOM     22  C   UNL     1      -0.710   3.765   0.028  0.00  0.00    +0.001 A 
ATOM     23  C   UNL     1       0.619   4.164   0.018  0.00  0.00    +0.002 A 
ATOM     24  C   UNL     1       1.632   3.231   0.003  0.00  0.00    +0.026 A 
ATOM     25  C   UNL     1       1.327   1.873  -0.001  0.00  0.00    +0.047 A 
ATOM     26  C   UNL     1      -0.018   1.472   0.010  0.00  0.00    +0.010 A 
ATOM     27  C   UNL     1      -1.032   2.425   0.030  0.00  0.00    +0.011 A 
ATOM     28  C   UNL     1       0.002  -0.004   0.002  0.00  0.00    +0.046 A 
ATOM     29  C   UNL     1       1.331  -0.370  -0.013  0.00  0.00    +0.095 A 
ATOM     30  N   UNL     1       2.104   0.733  -0.014  0.00  0.00    -0.360 N 
ATOM     31  H   UNL     1       3.074   0.727  -0.023  0.00  0.00    +0.165 HD
ENDBRANCH  20  28
ENDBRANCH  19  20
ENDBRANCH  18  19
ENDBRANCH  16  18
ENDBRANCH   1  16
BRANCH   2  32
ATOM     32  O   UNL     1      -2.649  -7.462  -0.024  0.00  0.00    -0.503 OA
ATOM     33  H   UNL     1      -2.353  -7.742   0.853  0.00  0.00    +0.292 HD
ENDBRANCH   2  32
TORSDOF 8
