REMARK  Name = ZINC39653741
REMARK  10 active torsions:
REMARK  status: ('A' for Active; 'I' for Inactive)
REMARK    1  A    between atoms: C_1  and  C_2
REMARK    2  A    between atoms: C_2  and  O_3
REMARK    3  A    between atoms: O_3  and  C_4
REMARK    4  A    between atoms: C_7  and  C_10
REMARK    5  A    between atoms: C_10  and  C_11
REMARK    6  A    between atoms: C_11  and  N_12
REMARK    7  A    between atoms: C_13  and  C_15
REMARK    8  A    between atoms: C_26  and  C_28
REMARK    9  A    between atoms: C_31  and  O_34
REMARK   10  A    between atoms: O_34  and  C_35
REMARK                            x       y       z     vdW  Elec       q    Type
REMARK                         _______ _______ _______ _____ _____    ______ ____
ROOT
ATOM      1  C   UNL     1       4.113  -9.717   1.291  0.00  0.00    +0.100 C 
ATOM      2  C   UNL     1       4.140 -10.358   2.696  0.00  0.00    +0.121 C 
ATOM      3  N   UNL     1       5.057 -11.515   2.563  0.00  0.00    -0.296 N 
ATOM      4  C   UNL     1       6.147 -11.022   1.687  0.00  0.00    +0.115 C 
ATOM      5  C   UNL     1       5.433 -10.154   0.632  0.00  0.00    -0.004 C 
ATOM      6  C   UNL     1       6.282  -8.934   0.290  0.00  0.00    -0.010 C 
ATOM      7  C   UNL     1       7.562  -9.390  -0.416  0.00  0.00    -0.082 C 
ATOM      8  N   UNL     1       7.213 -10.126  -1.637  0.00  0.00    +0.379 N 
ATOM      9  C   UNL     1       6.476 -11.347  -1.292  0.00  0.00    -0.082 C 
ATOM     10  C   UNL     1       5.150 -10.974  -0.623  0.00  0.00    -0.010 C 
ATOM     11  C   UNL     1       4.928 -12.738   3.113  0.00  0.00    +0.247 C 
ATOM     12  O   UNL     1       3.909 -13.034   3.706  0.00  0.00    -0.270 OA
ATOM     13  H   UNL     1       6.639  -9.543  -2.227  0.00  0.00    -0.086 HD
ATOM     14  H   UNL     1       8.057 -10.373  -2.132  0.00  0.00    -0.086 HD
ENDROOT
BRANCH  11  15
ATOM     15  C   UNL     1       6.025 -13.719   2.995  0.00  0.00    +0.037 A 
ATOM     16  C   UNL     1       7.325 -13.287   2.722  0.00  0.00    +0.016 A 
ATOM     17  C   UNL     1       8.346 -14.205   2.613  0.00  0.00    +0.047 A 
ATOM     18  C   UNL     1       8.084 -15.560   2.774  0.00  0.00    +0.130 A 
ATOM     19  C   UNL     1       6.792 -15.995   3.046  0.00  0.00    +0.047 A 
ATOM     20  C   UNL     1       5.767 -15.082   3.162  0.00  0.00    +0.016 A 
BRANCH  18  21
ATOM     21  O   UNL     1       9.092 -16.462   2.665  0.00  0.00    -0.406 OA
BRANCH  21  22
ATOM     22  C   UNL     1       8.753 -17.839   2.842  0.00  0.00    +0.575 C 
ATOM     23  F   UNL     1       7.808 -18.214   1.881  0.00  0.00    -0.133 F 
ATOM     24  F   UNL     1       9.902 -18.624   2.698  0.00  0.00    -0.133 F 
ATOM     25  F   UNL     1       8.217 -18.026   4.121  0.00  0.00    -0.133 F 
ENDBRANCH  21  22
ENDBRANCH  18  21
ENDBRANCH  11  15
BRANCH   1  27
ATOM     26  N   UNL     1       3.440  -7.493   0.442  0.00  0.00    -0.315 N 
ATOM     27  C   UNL     1       4.054  -8.215   1.400  0.00  0.00    +0.218 C 
ATOM     28  O   UNL     1       4.558  -7.656   2.351  0.00  0.00    -0.275 OA
ATOM     29  H   UNL     1       3.037  -7.940  -0.319  0.00  0.00    +0.149 HD
BRANCH  26  30
ATOM     30  C   UNL     1       3.382  -6.033   0.548  0.00  0.00    +0.109 C 
BRANCH  30  31
ATOM     31  C   UNL     1       2.637  -5.463  -0.660  0.00  0.00    +0.054 C 
BRANCH  31  35
ATOM     32  C   UNL     1       2.468  -1.204  -0.350  0.00  0.00    +0.121 A 
ATOM     33  C   UNL     1       3.533  -1.812  -1.000  0.00  0.00    +0.046 A 
ATOM     34  C   UNL     1       3.585  -3.188  -1.099  0.00  0.00    +0.007 A 
ATOM     35  C   UNL     1       2.578  -3.961  -0.551  0.00  0.00    -0.046 A 
ATOM     36  C   UNL     1       1.516  -3.358   0.097  0.00  0.00    +0.007 A 
ATOM     37  C   UNL     1       1.462  -1.982   0.204  0.00  0.00    +0.046 A 
BRANCH  32  38
ATOM     38  O   UNL     1       2.414   0.150  -0.251  0.00  0.00    -0.492 OA
BRANCH  38  40
ATOM     39  C   UNL     1       3.253   2.385  -0.633  0.00  0.00    +0.048 C 
ATOM     40  C   UNL     1       3.485   0.887  -0.845  0.00  0.00    +0.225 C 
ENDBRANCH  38  40
ENDBRANCH  32  38
ENDBRANCH  31  35
ENDBRANCH  30  31
ENDBRANCH  26  30
ENDBRANCH   1  27
TORSDOF 9
