REMARK  Name = ZINC08997275
REMARK  9 active torsions:
REMARK  status: ('A' for Active; 'I' for Inactive)
REMARK    1  A    between atoms: C_1  and  C_2
REMARK    2  A    between atoms: C_2  and  N_3
REMARK    3  A    between atoms: N_3  and  C_4
REMARK    4  A    between atoms: N_3  and  C_7
REMARK    5  A    between atoms: C_4  and  C_5
REMARK    6  A    between atoms: C_5  and  O_6
REMARK    7  A    between atoms: C_10  and  N_13
REMARK    8  A    between atoms: C_17  and  C_18
REMARK    9  A    between atoms: C_32  and  O_36
REMARK                            x       y       z     vdW  Elec       q    Type
REMARK                         _______ _______ _______ _____ _____    ______ ____
ROOT
ATOM      1  N   UNL     1       0.874   1.524  -0.282  0.00  0.00    -0.188 N 
ATOM      2  C   UNL     1      -0.309   0.967   0.057  0.00  0.00    +0.263 C 
ATOM      3  O   UNL     1      -0.406  -0.231   0.252  0.00  0.00    -0.269 OA
ATOM      4  C   UNL     1      -1.479   1.853   0.176  0.00  0.00    +0.097 C 
ATOM      5  C   UNL     1      -2.735   1.350   0.515  0.00  0.00    +0.027 C 
ATOM      6  C   UNL     1      -1.278   3.242  -0.063  0.00  0.00    +0.218 C 
ATOM      7  N   UNL     1      -0.071   3.671  -0.387  0.00  0.00    -0.127 NA
ATOM      8  C   UNL     1       0.968   2.846  -0.494  0.00  0.00    +0.340 C 
ATOM      9  O   UNL     1       2.053   3.312  -0.797  0.00  0.00    -0.250 OA
ENDROOT
BRANCH   5  10
ATOM     10  C   UNL     1      -2.874   0.007   0.897  0.00  0.00    -0.009 A 
ATOM     11  C   UNL     1      -3.681  -0.921   0.104  0.00  0.00    -0.010 A 
ATOM     12  C   UNL     1      -4.327  -0.494  -1.062  0.00  0.00    +0.009 A 
ATOM     13  C   UNL     1      -5.069  -1.380  -1.787  0.00  0.00    +0.001 A 
ATOM     14  C   UNL     1      -5.190  -2.709  -1.385  0.00  0.00    +0.001 A 
ATOM     15  C   UNL     1      -4.573  -3.161  -0.261  0.00  0.00    +0.008 A 
ATOM     16  C   UNL     1      -3.796  -2.275   0.516  0.00  0.00    -0.017 A 
ATOM     17  C   UNL     1      -3.158  -2.724   1.674  0.00  0.00    +0.017 A 
ATOM     18  C   UNL     1      -2.384  -1.868   2.461  0.00  0.00    -0.017 A 
ATOM     19  C   UNL     1      -2.222  -0.504   2.103  0.00  0.00    -0.010 A 
ATOM     20  C   UNL     1      -1.440   0.335   2.907  0.00  0.00    +0.009 A 
ATOM     21  C   UNL     1      -0.842  -0.165   4.025  0.00  0.00    +0.001 A 
ATOM     22  C   UNL     1      -0.998  -1.503   4.382  0.00  0.00    +0.001 A 
ATOM     23  C   UNL     1      -1.748  -2.348   3.626  0.00  0.00    +0.008 A 
ENDBRANCH   5  10
BRANCH   1  27
ATOM     24  C   UNL     1       4.261  -0.883  -0.668  0.00  0.00    +0.030 A 
ATOM     25  C   UNL     1       4.173   0.032   0.374  0.00  0.00    +0.025 A 
ATOM     26  C   UNL     1       3.053   0.828   0.501  0.00  0.00    +0.026 A 
ATOM     27  C   UNL     1       2.013   0.715  -0.412  0.00  0.00    +0.046 A 
ATOM     28  C   UNL     1       2.098  -0.203  -1.450  0.00  0.00    +0.026 A 
ATOM     29  C   UNL     1       3.220  -0.996  -1.581  0.00  0.00    +0.025 A 
BRANCH  24  30
ATOM     30  N   UNL     1       5.395  -1.690  -0.797  0.00  0.00    -0.328 N 
BRANCH  30  32
ATOM     31  C   UNL     1       6.255  -2.533   1.332  0.00  0.00    +0.024 C 
ATOM     32  C   UNL     1       6.492  -1.571   0.167  0.00  0.00    +0.102 C 
ENDBRANCH  30  32
BRANCH  30  33
ATOM     33  C   UNL     1       5.487  -2.655  -1.896  0.00  0.00    +0.133 C 
BRANCH  33  34
ATOM     34  C   UNL     1       6.138  -1.986  -3.108  0.00  0.00    +0.174 C 
BRANCH  34  35
ATOM     35  O   UNL     1       7.489  -1.642  -2.794  0.00  0.00    -0.393 OA
ATOM     36  H   UNL     1       7.965  -1.213  -3.518  0.00  0.00    +0.209 HD
ENDBRANCH  34  35
ENDBRANCH  33  34
ENDBRANCH  30  33
ENDBRANCH  24  30
ENDBRANCH   1  27
BRANCH   6  37
ATOM     37  O   UNL     1      -2.309   4.109   0.036  0.00  0.00    -0.493 OA
ATOM     38  H   UNL     1      -2.069   5.027  -0.148  0.00  0.00    +0.294 HD
ENDBRANCH   6  37
TORSDOF 8
