REMARK  Name = ZINC23130080
REMARK  14 active torsions:
REMARK  status: ('A' for Active; 'I' for Inactive)
REMARK    1  A    between atoms: C_1  and  C_2
REMARK    2  A    between atoms: C_4  and  C_32
REMARK    3  A    between atoms: C_6  and  C_8
REMARK    4  A    between atoms: C_8  and  N_9
REMARK    5  A    between atoms: C_15  and  C_19
REMARK    6  A    between atoms: C_19  and  C_21
REMARK    7  A    between atoms: C_19  and  N_25
REMARK    8  A    between atoms: C_21  and  C_22
REMARK    9  A    between atoms: C_22  and  C_23
REMARK   10  A    between atoms: C_22  and  C_24
REMARK   11  A    between atoms: C_26  and  C_28
REMARK   12  A    between atoms: C_28  and  N_29
REMARK   13  A    between atoms: N_29  and  C_30
REMARK   14  A    between atoms: N_29  and  C_31
REMARK                            x       y       z     vdW  Elec       q    Type
REMARK                         _______ _______ _______ _____ _____    ______ ____
ROOT
ATOM      1  N   UNL     1       5.138  -2.134  -2.420  0.00  0.00    -0.296 NA
ATOM      2  C   UNL     1       4.183  -2.534  -3.455  0.00  0.00    +0.092 C 
ATOM      3  C   UNL     1       3.517  -1.289  -4.050  0.00  0.00    +0.091 C 
ATOM      4  C   UNL     1       2.300  -0.948  -3.229  0.00  0.00    +0.135 A 
ATOM      5  N   UNL     1       1.111  -0.640  -3.657  0.00  0.00    -0.134 NA
ATOM      6  N   UNL     1       0.344  -0.389  -2.654  0.00  0.00    -0.132 NA
ATOM      7  C   UNL     1       1.013  -0.532  -1.540  0.00  0.00    +0.154 A 
ATOM      8  N   UNL     1       2.268  -0.899  -1.874  0.00  0.00    -0.312 N 
ATOM      9  C   UNL     1       3.377  -1.222  -0.976  0.00  0.00    +0.140 C 
ATOM     10  C   UNL     1       4.701  -0.939  -1.691  0.00  0.00    +0.106 C 
ENDROOT
BRANCH   1  11
ATOM     11  C   UNL     1       5.408  -3.244  -1.496  0.00  0.00    +0.119 C 
BRANCH  11  17
ATOM     12  C   UNL     1       5.248  -7.451  -4.203  0.00  0.00    +0.044 C 
ATOM     13  C   UNL     1       6.043  -6.362  -3.528  0.00  0.00    -0.050 A 
ATOM     14  C   UNL     1       7.424  -6.378  -3.586  0.00  0.00    +0.006 A 
ATOM     15  C   UNL     1       8.153  -5.380  -2.966  0.00  0.00    -0.050 A 
ATOM     16  C   UNL     1       7.500  -4.366  -2.290  0.00  0.00    +0.008 A 
ATOM     17  C   UNL     1       6.119  -4.350  -2.234  0.00  0.00    -0.033 A 
ATOM     18  C   UNL     1       5.391  -5.351  -2.849  0.00  0.00    +0.008 A 
ATOM     19  C   UNL     1       9.658  -5.397  -3.029  0.00  0.00    +0.044 C 
ENDBRANCH  11  17
ENDBRANCH   1  11
BRANCH   7  20
ATOM     20  C   UNL     1       0.484  -0.322  -0.144  0.00  0.00    +0.141 C 
BRANCH  20  21
ATOM     21  N   UNL     1      -0.750  -1.092   0.032  0.00  0.00    -0.307 N 
ATOM     22  C   UNL     1      -1.149  -1.451   1.268  0.00  0.00    +0.197 C 
ATOM     23  O   UNL     1      -0.538  -1.060   2.240  0.00  0.00    -0.278 OA
ATOM     24  H   UNL     1      -1.350  -1.377  -0.845  0.00  0.00    +0.149 HD
BRANCH  22  25
ATOM     25  C   UNL     1      -2.356  -2.337   1.442  0.00  0.00    +0.018 C 
BRANCH  25  26
ATOM     26  N   UNL     1      -2.656  -2.480   2.873  0.00  0.00    +0.382 N 
ATOM     27  C   UNL     1      -3.300  -1.269   3.399  0.00  0.00    -0.096 C 
ATOM     28  C   UNL     1      -3.485  -3.667   3.120  0.00  0.00    -0.096 C 
ATOM     29  H   UNL     1      -1.703  -2.616   3.406  0.00  0.00    -0.082 HD
ENDBRANCH  25  26
ENDBRANCH  22  25
ENDBRANCH  20  21
BRANCH  20  30
ATOM     30  C   UNL     1       0.193   1.165   0.071  0.00  0.00    +0.033 C 
BRANCH  30  31
ATOM     31  C   UNL     1       1.504   1.952   0.033  0.00  0.00    -0.015 C 
ATOM     32  C   UNL     1       1.200   3.451   0.073  0.00  0.00    +0.007 C 
ATOM     33  C   UNL     1       2.362   1.573   1.242  0.00  0.00    +0.007 C 
ENDBRANCH  30  31
ENDBRANCH  20  30
ENDBRANCH   7  20
TORSDOF 8
