REMARK  Name = ZINC33312899
REMARK  9 active torsions:
REMARK  status: ('A' for Active; 'I' for Inactive)
REMARK    1  A    between atoms: C_1  and  C_2
REMARK    2  A    between atoms: C_2  and  C_3
REMARK    3  A    between atoms: C_6  and  C_9
REMARK    4  A    between atoms: C_9  and  C_11
REMARK    5  A    between atoms: C_9  and  N_12
REMARK    6  A    between atoms: C_13  and  C_15
REMARK    7  A    between atoms: C_15  and  N_16
REMARK    8  A    between atoms: C_25  and  C_27
REMARK    9  A    between atoms: C_32  and  C_35
REMARK                            x       y       z     vdW  Elec       q    Type
REMARK                         _______ _______ _______ _____ _____    ______ ____
ROOT
ATOM      1  N   UNL     1      -2.463   5.254  -0.123  0.00  0.00    +0.396 N 
ATOM      2  C   UNL     1      -1.488   5.549   0.940  0.00  0.00    -0.072 C 
ATOM      3  C   UNL     1      -0.117   5.042   0.493  0.00  0.00    +0.017 C 
ATOM      4  C   UNL     1      -0.223   3.613   0.027  0.00  0.00    -0.047 A 
ATOM      5  C   UNL     1       0.939   2.864  -0.083  0.00  0.00    +0.004 A 
ATOM      6  C   UNL     1       0.886   1.553  -0.510  0.00  0.00    +0.000 A 
ATOM      7  C   UNL     1      -0.331   0.983  -0.832  0.00  0.00    +0.000 A 
ATOM      8  C   UNL     1      -1.488   1.728  -0.729  0.00  0.00    +0.003 A 
ATOM      9  C   UNL     1      -1.438   3.044  -0.292  0.00  0.00    -0.049 A 
ATOM     10  C   UNL     1      -2.728   3.813  -0.183  0.00  0.00    +0.051 C 
ATOM     11  H   UNL     1      -2.036   5.567  -1.087  0.00  0.00    -0.080 HD
ENDROOT
BRANCH  10  12
ATOM     12  C   UNL     1      -3.586   3.516  -1.386  0.00  0.00    +0.206 C 
ATOM     13  O   UNL     1      -3.478   4.188  -2.390  0.00  0.00    -0.277 OA
ATOM     14  N   UNL     1      -4.474   2.503  -1.346  0.00  0.00    -0.303 N 
ATOM     15  C   UNL     1      -4.533   1.604  -0.185  0.00  0.00    +0.108 C 
ATOM     16  C   UNL     1      -5.979   1.571   0.334  0.00  0.00    +0.022 C 
ATOM     17  C   UNL     1      -6.917   1.182  -0.810  0.00  0.00    -0.011 C 
ATOM     18  C   UNL     1      -6.830   2.229  -1.923  0.00  0.00    +0.022 C 
ATOM     19  C   UNL     1      -5.398   2.272  -2.466  0.00  0.00    +0.108 C 
ATOM     20  C   UNL     1      -8.354   1.111  -0.288  0.00  0.00    +0.007 C 
ENDBRANCH  10  12
BRANCH   1  21
ATOM     21  C   UNL     1      -3.707   6.010   0.080  0.00  0.00    +0.020 C 
BRANCH  21  23
ATOM     22  N   UNL     1      -4.409   8.381   0.147  0.00  0.00    -0.310 N 
ATOM     23  C   UNL     1      -3.435   7.482  -0.096  0.00  0.00    +0.197 C 
ATOM     24  O   UNL     1      -2.339   7.857  -0.457  0.00  0.00    -0.278 OA
ATOM     25  H   UNL     1      -5.402   8.041   0.474  0.00  0.00    +0.149 HD
BRANCH  22  26
ATOM     26  C   UNL     1      -4.144   9.812  -0.024  0.00  0.00    +0.100 C 
ATOM     27  C   UNL     1      -3.512  10.370   1.252  0.00  0.00    +0.033 C 
BRANCH  26  31
ATOM     28  C   UNL     1      -7.813  11.854  -0.808  0.00  0.00    -0.048 A 
ATOM     29  C   UNL     1      -6.665  12.210  -1.490  0.00  0.00    +0.004 A 
ATOM     30  C   UNL     1      -5.477  11.549  -1.236  0.00  0.00    +0.006 A 
ATOM     31  C   UNL     1      -5.438  10.533  -0.300  0.00  0.00    -0.027 A 
ATOM     32  C   UNL     1      -6.588  10.173   0.378  0.00  0.00    +0.006 A 
ATOM     33  C   UNL     1      -7.774  10.837   0.128  0.00  0.00    +0.004 A 
BRANCH  28  35
ATOM     34  C   UNL     1      -9.860  11.858  -2.207  0.00  0.00    +0.009 C 
ATOM     35  C   UNL     1      -9.107  12.575  -1.084  0.00  0.00    +0.032 C 
ENDBRANCH  28  35
ENDBRANCH  26  31
ENDBRANCH  22  26
ENDBRANCH  21  23
ENDBRANCH   1  21
TORSDOF 6
