REMARK  Name = ZINC07982104
REMARK  6 active torsions:
REMARK  status: ('A' for Active; 'I' for Inactive)
REMARK    1  A    between atoms: C_1  and  N_48
REMARK    2  A    between atoms: C_2  and  C_3
REMARK    3  A    between atoms: C_2  and  N_48
REMARK    4  A    between atoms: C_15  and  C_16
REMARK    5  A    between atoms: C_15  and  N_48
REMARK    6  A    between atoms: N_18  and  C_19
REMARK                            x       y       z     vdW  Elec       q    Type
REMARK                         _______ _______ _______ _____ _____    ______ ____
ROOT
ATOM      1  C   UNL     1       1.518   5.885   1.262  0.00  0.00    -0.095 C 
ATOM      2  N   UNL     1       2.123   5.487  -0.026  0.00  0.00    +0.388 N 
ATOM      3  H   UNL     1       1.464   5.699  -0.784  0.00  0.00    -0.081 HD
ENDROOT
BRANCH   2   4
ATOM      4  C   UNL     1       2.403   4.036  -0.026  0.00  0.00    -0.003 C 
BRANCH   4   5
ATOM      5  C   UNL     1       1.094   3.288  -0.017  0.00  0.00    +0.094 A 
ATOM      6  N   UNL     1       1.127   1.930  -0.034  0.00  0.00    -0.312 N 
ATOM      7  H   UNL     1       2.008   1.456  -0.052  0.00  0.00    +0.170 HD
ATOM      8  C   UNL     1      -0.020   1.213  -0.028  0.00  0.00    +0.259 A 
ATOM      9  O   UNL     1      -0.005  -0.004  -0.043  0.00  0.00    -0.267 OA
ATOM     10  C   UNL     1      -1.286   1.961  -0.008  0.00  0.00    +0.065 A 
ATOM     11  C   UNL     1      -2.522   1.318   0.007  0.00  0.00    +0.015 A 
ATOM     12  C   UNL     1      -3.677   2.068   0.032  0.00  0.00    +0.001 A 
ATOM     13  C   UNL     1      -3.618   3.455   0.048  0.00  0.00    +0.002 A 
ATOM     14  C   UNL     1      -2.407   4.110   0.040  0.00  0.00    +0.028 A 
ATOM     15  C   UNL     1      -1.222   3.372   0.015  0.00  0.00    +0.078 A 
ATOM     16  N   UNL     1      -0.007   3.975   0.006  0.00  0.00    -0.236 NA
ENDBRANCH   4   5
ENDBRANCH   2   4
BRANCH   2  17
ATOM     17  C   UNL     1       3.373   6.242  -0.252  0.00  0.00    +0.019 C 
BRANCH  17  18
ATOM     18  C   UNL     1       3.032   7.694  -0.467  0.00  0.00    +0.201 C 
ATOM     19  O   UNL     1       1.876   8.059  -0.419  0.00  0.00    -0.278 OA
ATOM     20  N   UNL     1       4.011   8.588  -0.711  0.00  0.00    -0.287 N 
ATOM     21  H   UNL     1       4.940   8.312  -0.670  0.00  0.00    +0.155 HD
BRANCH  20  22
ATOM     22  C   UNL     1       3.688   9.909  -1.024  0.00  0.00    +0.041 A 
ATOM     23  C   UNL     1       2.463  10.213  -1.579  0.00  0.00    +0.024 A 
ATOM     24  C   UNL     1       2.131  11.527  -1.895  0.00  0.00    +0.002 A 
ATOM     25  C   UNL     1       3.003  12.547  -1.665  0.00  0.00    +0.008 A 
ATOM     26  C   UNL     1       4.262  12.280  -1.100  0.00  0.00    -0.016 A 
ATOM     27  C   UNL     1       4.609  10.947  -0.769  0.00  0.00    +0.003 A 
ATOM     28  C   UNL     1       5.869  10.681  -0.209  0.00  0.00    +0.010 A 
ATOM     29  C   UNL     1       6.735  11.707   0.018  0.00  0.00    +0.001 A 
ATOM     30  C   UNL     1       6.393  13.019  -0.302  0.00  0.00    +0.001 A 
ATOM     31  C   UNL     1       5.182  13.313  -0.851  0.00  0.00    +0.008 A 
ENDBRANCH  20  22
ENDBRANCH  17  18
ENDBRANCH   2  17
TORSDOF 5
