REMARK  Name = ZINC18152689
REMARK  8 active torsions:
REMARK  status: ('A' for Active; 'I' for Inactive)
REMARK    1  A    between atoms: C_1  and  O_2
REMARK    2  A    between atoms: O_2  and  C_3
REMARK    3  A    between atoms: C_6  and  C_10
REMARK    4  A    between atoms: C_7  and  O_9
REMARK    5  A    between atoms: C_11  and  O_16
REMARK    6  A    between atoms: O_16  and  C_17
REMARK    7  A    between atoms: C_22  and  O_23
REMARK    8  A    between atoms: O_23  and  C_24
REMARK                            x       y       z     vdW  Elec       q    Type
REMARK                         _______ _______ _______ _____ _____    ______ ____
ROOT
ATOM      1  C   UNL     1      -4.854  -2.866  -0.078  0.00  0.00    +0.111 A 
ATOM      2  C   UNL     1      -5.438  -3.479   1.011  0.00  0.00    +0.174 A 
ATOM      3  C   UNL     1      -6.740  -3.836   0.648  0.00  0.00    +0.181 A 
ATOM      4  N   UNL     1      -6.946  -3.465  -0.590  0.00  0.00    -0.178 NA
ATOM      5  N   UNL     1      -5.787  -2.848  -1.076  0.00  0.00    -0.273 N 
ATOM      6  H   UNL     1      -5.667  -2.476  -1.964  0.00  0.00    +0.189 HD
ENDROOT
BRANCH   1  10
ATOM      7  C   UNL     1      -0.901  -1.310  -0.286  0.00  0.00    +0.124 A 
ATOM      8  C   UNL     1      -1.991  -0.454  -0.377  0.00  0.00    +0.046 A 
ATOM      9  C   UNL     1      -3.274  -0.955  -0.310  0.00  0.00    +0.017 A 
ATOM     10  C   UNL     1      -3.480  -2.326  -0.151  0.00  0.00    +0.045 A 
ATOM     11  C   UNL     1      -2.380  -3.188  -0.059  0.00  0.00    +0.130 A 
ATOM     12  C   UNL     1      -1.096  -2.675  -0.132  0.00  0.00    +0.091 A 
BRANCH   7  14
ATOM     13  C   UNL     1       0.489   0.605  -0.511  0.00  0.00    +0.277 C 
ATOM     14  O   UNL     1       0.360  -0.810  -0.352  0.00  0.00    -0.495 OA
ENDBRANCH   7  14
BRANCH  11  15
ATOM     15  O   UNL     1      -2.572  -4.523   0.097  0.00  0.00    -0.506 OA
ATOM     16  H   UNL     1      -2.634  -5.011  -0.736  0.00  0.00    +0.292 HD
ENDBRANCH  11  15
ENDBRANCH   1  10
BRANCH   2  17
ATOM     17  O   UNL     1      -4.851  -3.698   2.221  0.00  0.00    -0.449 OA
BRANCH  17  18
ATOM     18  C   UNL     1      -5.544  -4.415   3.145  0.00  0.00    +0.170 A 
ATOM     19  C   UNL     1      -6.316  -3.762   4.094  0.00  0.00    +0.050 A 
ATOM     20  C   UNL     1      -7.020  -4.492   5.033  0.00  0.00    +0.004 A 
ATOM     21  C   UNL     1      -6.956  -5.873   5.029  0.00  0.00    +0.004 A 
ATOM     22  C   UNL     1      -6.189  -6.531   4.086  0.00  0.00    +0.049 A 
ATOM     23  C   UNL     1      -5.485  -5.805   3.138  0.00  0.00    +0.162 A 
BRANCH  23  24
ATOM     24  O   UNL     1      -4.734  -6.450   2.205  0.00  0.00    -0.491 OA
ATOM     25  C   UNL     1      -4.721  -7.878   2.258  0.00  0.00    +0.277 C 
ENDBRANCH  23  24
ENDBRANCH  17  18
ENDBRANCH   2  17
TORSDOF 6
