REMARK  Name = ZINC63697810
REMARK  11 active torsions:
REMARK  status: ('A' for Active; 'I' for Inactive)
REMARK    1  A    between atoms: C_1  and  C_2
REMARK    2  A    between atoms: C_2  and  O_3
REMARK    3  A    between atoms: O_3  and  C_4
REMARK    4  A    between atoms: C_8  and  C_10
REMARK    5  A    between atoms: C_25  and  C_27
REMARK    6  A    between atoms: C_29  and  O_37
REMARK    7  A    between atoms: C_30  and  O_35
REMARK    8  A    between atoms: C_31  and  O_33
REMARK    9  A    between atoms: O_33  and  C_34
REMARK   10  A    between atoms: O_35  and  C_36
REMARK   11  A    between atoms: O_37  and  C_38
REMARK                            x       y       z     vdW  Elec       q    Type
REMARK                         _______ _______ _______ _____ _____    ______ ____
ROOT
ATOM      1  C   UNL     1      -4.635  -4.451   0.170  0.00  0.00    +0.133 C 
ATOM      2  C   UNL     1      -5.401  -4.848   1.437  0.00  0.00    +0.131 C 
ATOM      3  C   UNL     1      -4.890  -6.226   1.839  0.00  0.00    -0.035 C 
ATOM      4  C   UNL     1      -4.458  -6.116   3.090  0.00  0.00    -0.001 A 
ATOM      5  C   UNL     1      -3.923  -7.112   4.033  0.00  0.00    +0.010 A 
ATOM      6  C   UNL     1      -3.559  -6.644   5.256  0.00  0.00    +0.001 A 
ATOM      7  C   UNL     1      -3.671  -5.302   5.631  0.00  0.00    +0.002 A 
ATOM      8  C   UNL     1      -4.156  -4.319   4.830  0.00  0.00    +0.026 A 
ATOM      9  C   UNL     1      -4.577  -4.689   3.519  0.00  0.00    +0.043 A 
ATOM     10  N   UNL     1      -5.103  -3.953   2.557  0.00  0.00    -0.375 N 
ATOM     11  C   UNL     1      -4.860  -7.391   0.880  0.00  0.00    +0.052 C 
ATOM     12  C   UNL     1      -4.160  -6.893  -0.398  0.00  0.00    +0.113 C 
ATOM     13  N   UNL     1      -4.700  -5.580  -0.770  0.00  0.00    -0.288 N 
ATOM     14  C   UNL     1      -5.262  -5.407  -1.983  0.00  0.00    +0.247 C 
ATOM     15  O   UNL     1      -5.643  -4.304  -2.325  0.00  0.00    -0.270 OA
ATOM     16  H   UNL     1      -5.261  -2.996   2.575  0.00  0.00    +0.160 HD
ENDROOT
BRANCH   1  21
ATOM     17  C   UNL     1      -1.080  -4.869   1.381  0.00  0.00    +0.121 A 
ATOM     18  C   UNL     1      -0.559  -3.605   1.143  0.00  0.00    +0.045 A 
ATOM     19  C   UNL     1      -1.358  -2.622   0.593  0.00  0.00    +0.004 A 
ATOM     20  C   UNL     1      -2.677  -2.897   0.278  0.00  0.00    +0.006 A 
ATOM     21  C   UNL     1      -3.198  -4.155   0.514  0.00  0.00    -0.021 A 
ATOM     22  C   UNL     1      -2.401  -5.144   1.059  0.00  0.00    +0.051 A 
BRANCH  17  23
ATOM     23  O   UNL     1      -0.296  -5.838   1.922  0.00  0.00    -0.492 OA
BRANCH  23  25
ATOM     24  C   UNL     1       1.776  -6.694   2.824  0.00  0.00    +0.048 C 
ATOM     25  C   UNL     1       1.054  -5.484   2.227  0.00  0.00    +0.225 C 
ENDBRANCH  23  25
ENDBRANCH  17  23
ENDBRANCH   1  21
BRANCH  14  26
ATOM     26  C   UNL     1      -5.415  -6.557  -2.896  0.00  0.00    +0.044 A 
ATOM     27  C   UNL     1      -6.609  -6.739  -3.599  0.00  0.00    +0.062 A 
ATOM     28  C   UNL     1      -6.750  -7.816  -4.453  0.00  0.00    +0.166 A 
ATOM     29  C   UNL     1      -5.704  -8.720  -4.614  0.00  0.00    +0.204 A 
ATOM     30  C   UNL     1      -4.513  -8.541  -3.915  0.00  0.00    +0.166 A 
ATOM     31  C   UNL     1      -4.365  -7.463  -3.064  0.00  0.00    +0.062 A 
BRANCH  30  32
ATOM     32  O   UNL     1      -3.493  -9.427  -4.074  0.00  0.00    -0.491 OA
ATOM     33  C   UNL     1      -2.300  -9.183  -3.326  0.00  0.00    +0.277 C 
ENDBRANCH  30  32
BRANCH  29  34
ATOM     34  O   UNL     1      -5.845  -9.778  -5.455  0.00  0.00    -0.488 OA
ATOM     35  C   UNL     1      -5.454  -9.582  -6.816  0.00  0.00    +0.277 C 
ENDBRANCH  29  34
BRANCH  28  36
ATOM     36  O   UNL     1      -7.912  -7.993  -5.137  0.00  0.00    -0.491 OA
ATOM     37  C   UNL     1      -8.944  -7.027  -4.924  0.00  0.00    +0.277 C 
ENDBRANCH  28  36
ENDBRANCH  14  26
TORSDOF 7
