REMARK  Name = ZINC08448852
REMARK  5 active torsions:
REMARK  status: ('A' for Active; 'I' for Inactive)
REMARK    1  A    between atoms: C_1  and  N_51
REMARK    2  A    between atoms: C_12  and  C_15
REMARK    3  A    between atoms: C_18  and  O_21
REMARK    4  A    between atoms: O_21  and  C_22
REMARK    5  A    between atoms: C_22  and  C_24
REMARK                            x       y       z     vdW  Elec       q    Type
REMARK                         _______ _______ _______ _____ _____    ______ ____
ROOT
ATOM      1  C   UNL     1       9.371   7.503   8.068  0.00  0.00    -0.096 C 
ATOM      2  C   UNL     1       8.066   8.706   6.420  0.00  0.00    -0.074 C 
ATOM      3  C   UNL     1       8.161   9.393   5.054  0.00  0.00    +0.018 C 
ATOM      4  C   UNL     1       8.466   8.328   4.006  0.00  0.00    -0.027 A 
ATOM      5  C   UNL     1       8.951   7.123   4.388  0.00  0.00    -0.021 A 
ATOM      6  S   UNL     1       9.157   6.216   2.880  0.00  0.00    -0.080 S 
ATOM      7  C   UNL     1       8.616   7.407   1.774  0.00  0.00    +0.080 A 
ATOM      8  C   UNL     1       8.269   8.504   2.578  0.00  0.00    +0.068 A 
ATOM      9  C   UNL     1       7.755   9.715   1.897  0.00  0.00    +0.248 C 
ATOM     10  O   UNL     1       7.547  10.746   2.510  0.00  0.00    -0.270 OA
ATOM     11  N   UNL     1       7.527   9.629   0.571  0.00  0.00    -0.289 N 
ATOM     12  C   UNL     1       7.534   8.370  -0.168  0.00  0.00    +0.190 C 
ATOM     13  N   UNL     1       8.502   7.418   0.408  0.00  0.00    -0.316 N 
ATOM     14  C   UNL     1       9.242   6.685   5.788  0.00  0.00    -0.036 C 
ATOM     15  H   UNL     1       7.348  10.447   0.081  0.00  0.00    +0.151 HD
ATOM     16  H   UNL     1       9.032   6.829  -0.152  0.00  0.00    +0.149 HD
ATOM     17  N   UNL     1       9.280   7.894   6.645  0.00  0.00    +0.381 N 
ATOM     18  H   UNL     1      10.106   8.453   6.399  0.00  0.00    -0.082 HD
ENDROOT
BRANCH  12  19
ATOM     19  C   UNL     1       6.156   7.761  -0.120  0.00  0.00    -0.009 A 
ATOM     20  C   UNL     1       5.044   8.578  -0.033  0.00  0.00    +0.010 A 
ATOM     21  C   UNL     1       3.780   8.023   0.011  0.00  0.00    +0.047 A 
ATOM     22  C   UNL     1       3.627   6.645  -0.033  0.00  0.00    +0.132 A 
ATOM     23  C   UNL     1       4.744   5.827  -0.116  0.00  0.00    +0.047 A 
ATOM     24  C   UNL     1       6.006   6.388  -0.164  0.00  0.00    +0.010 A 
BRANCH  22  25
ATOM     25  O   UNL     1       2.384   6.096   0.011  0.00  0.00    -0.422 OA
BRANCH  25  26
ATOM     26  C   UNL     1       1.656   6.139  -1.123  0.00  0.00    +0.344 C 
ATOM     27  O   UNL     1       2.082   6.729  -2.095  0.00  0.00    -0.245 OA
BRANCH  26  28
ATOM     28  C   UNL     1       0.342   5.468  -1.182  0.00  0.00    +0.060 A 
ATOM     29  C   UNL     1      -0.150   4.788  -0.065  0.00  0.00    +0.015 A 
ATOM     30  C   UNL     1      -1.378   4.164  -0.127  0.00  0.00    +0.002 A 
ATOM     31  C   UNL     1      -2.126   4.214  -1.291  0.00  0.00    +0.015 A 
ATOM     32  C   UNL     1      -1.642   4.881  -2.403  0.00  0.00    +0.019 A 
ATOM     33  C   UNL     1      -0.414   5.510  -2.355  0.00  0.00    +0.030 A 
ATOM     34 BR   UNL     1      -2.669   4.937  -3.990  0.00  0.00    -0.050 Br
ENDBRANCH  26  28
ENDBRANCH  25  26
ENDBRANCH  22  25
ENDBRANCH  12  19
TORSDOF 4
