REMARK  Name = ZINC57781429
REMARK  10 active torsions:
REMARK  status: ('A' for Active; 'I' for Inactive)
REMARK    1  A    between atoms: C_1  and  C_2
REMARK    2  A    between atoms: C_2  and  O_3
REMARK    3  A    between atoms: O_3  and  C_4
REMARK    4  A    between atoms: C_4  and  C_5
REMARK    5  A    between atoms: C_5  and  C_6
REMARK    6  A    between atoms: C_6  and  N_7
REMARK    7  A    between atoms: C_20  and  S_21
REMARK    8  A    between atoms: S_21  and  C_22
REMARK    9  A    between atoms: C_22  and  C_23
REMARK   10  A    between atoms: C_25  and  C_28
REMARK                            x       y       z     vdW  Elec       q    Type
REMARK                         _______ _______ _______ _____ _____    ______ ____
ROOT
ATOM      1  N   UNL     1      -4.415  -4.263   0.021  0.00  0.00    -0.277 N 
ATOM      2  C   UNL     1      -5.044  -4.444   1.200  0.00  0.00    +0.263 A 
ATOM      3  O   UNL     1      -4.451  -4.280   2.250  0.00  0.00    -0.267 OA
ATOM      4  C   UNL     1      -6.463  -4.843   1.195  0.00  0.00    +0.064 A 
ATOM      5  C   UNL     1      -7.163  -5.043   2.384  0.00  0.00    +0.015 A 
ATOM      6  C   UNL     1      -8.490  -5.415   2.339  0.00  0.00    +0.001 A 
ATOM      7  C   UNL     1      -9.127  -5.591   1.120  0.00  0.00    +0.002 A 
ATOM      8  C   UNL     1      -8.445  -5.396  -0.064  0.00  0.00    +0.027 A 
ATOM      9  C   UNL     1      -7.110  -5.020  -0.037  0.00  0.00    +0.064 A 
ATOM     10  N   UNL     1      -6.399  -4.816  -1.217  0.00  0.00    -0.256 N 
ATOM     11  C   UNL     1      -5.083  -4.441  -1.180  0.00  0.00    +0.240 A 
ATOM     12  N   UNL     1      -4.667  -4.315  -2.421  0.00  0.00    -0.109 NA
ATOM     13  N   UNL     1      -5.739  -4.610  -3.272  0.00  0.00    -0.120 NA
ATOM     14  C   UNL     1      -6.774  -4.918  -2.530  0.00  0.00    +0.198 A 
ENDROOT
BRANCH   1  15
ATOM     15  C   UNL     1      -3.005  -3.866   0.010  0.00  0.00    +0.130 C 
BRANCH  15  16
ATOM     16  C   UNL     1      -2.905  -2.339   0.017  0.00  0.00    +0.050 C 
BRANCH  16  17
ATOM     17  C   UNL     1      -1.432  -1.925   0.005  0.00  0.00    +0.161 C 
BRANCH  17  18
ATOM     18  O   UNL     1      -1.339  -0.499   0.012  0.00  0.00    -0.380 OA
BRANCH  18  20
ATOM     19  C   UNL     1      -0.019   1.526   0.010  0.00  0.00    +0.034 C 
ATOM     20  C   UNL     1       0.002  -0.004   0.002  0.00  0.00    +0.156 C 
ENDBRANCH  18  20
ENDBRANCH  17  18
ENDBRANCH  16  17
ENDBRANCH  15  16
ENDBRANCH   1  15
BRANCH  14  21
ATOM     21  S   UNL     1      -8.373  -5.366  -3.118  0.00  0.00    -0.079 S 
BRANCH  21  22
ATOM     22  C   UNL     1      -8.208  -5.313  -4.923  0.00  0.00    +0.136 C 
BRANCH  22  23
ATOM     23  C   UNL     1      -9.523  -5.682  -5.560  0.00  0.00    +0.094 A 
ATOM     24  C   UNL     1      -9.938  -6.980  -5.907  0.00  0.00    +0.071 A 
ATOM     25  C   UNL     1     -11.168  -6.896  -6.449  0.00  0.00    +0.134 A 
ATOM     26  O   UNL     1     -11.533  -5.605  -6.452  0.00  0.00    -0.360 OA
ATOM     27  N   UNL     1     -10.478  -4.854  -5.879  0.00  0.00    -0.082 NA
ATOM     28  C   UNL     1     -11.991  -8.050  -6.962  0.00  0.00    +0.089 C 
ENDBRANCH  22  23
ENDBRANCH  21  22
ENDBRANCH  14  21
TORSDOF 8
