REMARK  Name = ZINC38627000
REMARK  10 active torsions:
REMARK  status: ('A' for Active; 'I' for Inactive)
REMARK    1  A    between atoms: C_1  and  O_2
REMARK    2  A    between atoms: O_2  and  C_3
REMARK    3  A    between atoms: C_6  and  C_15
REMARK    4  A    between atoms: C_8  and  C_9
REMARK    5  A    between atoms: C_9  and  N_10
REMARK    6  A    between atoms: N_16  and  N_17
REMARK    7  A    between atoms: C_24  and  O_34
REMARK    8  A    between atoms: C_25  and  O_32
REMARK    9  A    between atoms: O_32  and  C_33
REMARK   10  A    between atoms: O_34  and  C_35
REMARK                            x       y       z     vdW  Elec       q    Type
REMARK                         _______ _______ _______ _____ _____    ______ ____
ROOT
ATOM      1  N   UNL     1       3.734  -2.388  -6.337  0.00  0.00    -0.104 N 
ATOM      2  C   UNL     1       3.064  -3.122  -7.255  0.00  0.00    +0.294 C 
ATOM      3  O   UNL     1       1.857  -3.256  -7.199  0.00  0.00    -0.266 OA
ATOM      4  C   UNL     1       3.857  -3.753  -8.328  0.00  0.00    +0.152 C 
ATOM      5  N   UNL     1       3.585  -4.506  -9.355  0.00  0.00    -0.240 NA
ATOM      6  C   UNL     1       4.681  -4.843 -10.067  0.00  0.00    +0.078 A 
ATOM      7  C   UNL     1       4.833  -5.622 -11.221  0.00  0.00    +0.077 A 
ATOM      8  C   UNL     1       6.095  -5.820 -11.767  0.00  0.00    +0.164 A 
ATOM      9  C   UNL     1       7.217  -5.248 -11.175  0.00  0.00    +0.162 A 
ATOM     10  C   UNL     1       7.079  -4.467 -10.023  0.00  0.00    +0.061 A 
ATOM     11  C   UNL     1       5.829  -4.265  -9.473  0.00  0.00    +0.029 A 
ATOM     12  C   UNL     1       5.326  -3.522  -8.300  0.00  0.00    +0.098 C 
ATOM     13  N   UNL     1       5.835  -2.789  -7.350  0.00  0.00    -0.159 NA
ATOM     14  C   UNL     1       5.064  -2.234  -6.401  0.00  0.00    +0.353 C 
ATOM     15  O   UNL     1       5.604  -1.556  -5.547  0.00  0.00    -0.248 OA
ENDROOT
BRANCH   1  17
ATOM     16  C   UNL     1       2.429  -2.494  -4.400  0.00  0.00    +0.139 C 
ATOM     17  N   UNL     1       3.021  -1.771  -5.301  0.00  0.00    -0.176 NA
BRANCH  16  21
ATOM     18  C   UNL     1      -0.001  -0.642  -1.452  0.00  0.00    +0.121 A 
ATOM     19  C   UNL     1       0.633   0.134  -2.415  0.00  0.00    +0.046 A 
ATOM     20  C   UNL     1       1.422  -0.463  -3.373  0.00  0.00    +0.013 A 
ATOM     21  C   UNL     1       1.586  -1.851  -3.376  0.00  0.00    -0.005 A 
ATOM     22  C   UNL     1       0.947  -2.627  -2.405  0.00  0.00    +0.014 A 
ATOM     23  C   UNL     1       0.163  -2.021  -1.448  0.00  0.00    -0.022 A 
BRANCH  18  25
ATOM     24  C   UNL     1      -0.903   1.373  -0.572  0.00  0.00    +0.277 C 
ATOM     25  O   UNL     1      -0.778  -0.050  -0.509  0.00  0.00    -0.495 OA
ENDBRANCH  18  25
BRANCH  23  26
ATOM     26  C   UNL     1      -0.521  -2.857  -0.397  0.00  0.00    -0.039 C 
BRANCH  26  27
ATOM     27  N   UNL     1      -1.926  -3.062  -0.773  0.00  0.00    +0.382 N 
ATOM     28  C   UNL     1      -2.014  -3.938  -1.969  0.00  0.00    -0.078 C 
ATOM     29  C   UNL     1      -3.456  -4.500  -1.891  0.00  0.00    -0.020 C 
ATOM     30  C   UNL     1      -3.664  -4.710  -0.374  0.00  0.00    -0.020 C 
ATOM     31  C   UNL     1      -2.644  -3.777   0.305  0.00  0.00    -0.078 C 
ATOM     32  H   UNL     1      -2.370  -2.174  -0.957  0.00  0.00    -0.081 HD
ENDBRANCH  26  27
ENDBRANCH  23  26
ENDBRANCH  16  21
ENDBRANCH   1  17
BRANCH   9  33
ATOM     33  O   UNL     1       8.445  -5.448 -11.717  0.00  0.00    -0.491 OA
ATOM     34  C   UNL     1       9.553  -4.830 -11.058  0.00  0.00    +0.277 C 
ENDBRANCH   9  33
BRANCH   8  35
ATOM     35  O   UNL     1       6.235  -6.577 -12.886  0.00  0.00    -0.491 OA
ATOM     36  C   UNL     1       5.044  -7.136 -13.444  0.00  0.00    +0.277 C 
ENDBRANCH   8  35
TORSDOF 7
