REMARK  Name = ZINC12636617
REMARK  6 active torsions:
REMARK  status: ('A' for Active; 'I' for Inactive)
REMARK    1  A    between atoms: C_1  and  C_2
REMARK    2  A    between atoms: C_8  and  C_10
REMARK    3  A    between atoms: C_10  and  S_11
REMARK    4  A    between atoms: S_11  and  C_12
REMARK    5  A    between atoms: C_19  and  C_21
REMARK    6  A    between atoms: C_32  and  C_36
REMARK                            x       y       z     vdW  Elec       q    Type
REMARK                         _______ _______ _______ _____ _____    ______ ____
ROOT
ATOM      1  C   UNL     1       2.378   1.308  -0.015  0.00  0.00    +0.109 A 
ATOM      2  C   UNL     1       1.175   2.068   0.002  0.00  0.00    +0.043 A 
ATOM      3  C   UNL     1       1.010   3.522   0.012  0.00  0.00    -0.025 A 
ATOM      4  C   UNL     1      -0.253   3.994   0.025  0.00  0.00    -0.004 A 
ATOM      5  S   UNL     1      -1.286   2.553   0.021  0.00  0.00    -0.073 S 
ATOM      6  C   UNL     1      -0.016   1.315   0.009  0.00  0.00    +0.113 A 
ATOM      7  N   UNL     1       0.002  -0.004   0.002  0.00  0.00    -0.224 NA
ATOM      8  C   UNL     1       1.150  -0.654  -0.013  0.00  0.00    +0.138 A 
ATOM      9  N   UNL     1       2.305  -0.014  -0.022  0.00  0.00    -0.225 NA
ATOM     10  C   UNL     1      -0.685   5.429   0.037  0.00  0.00    +0.046 C 
ATOM     11  C   UNL     1       0.526   6.297   0.407  0.00  0.00    -0.009 C 
ATOM     12  C   UNL     1       1.722   5.859  -0.443  0.00  0.00    +0.008 C 
ATOM     13  C   UNL     1       2.200   4.478   0.007  0.00  0.00    +0.037 C 
ATOM     14  C   UNL     1       0.208   7.768   0.126  0.00  0.00    +0.008 C 
ENDROOT
BRANCH   8  15
ATOM     15  C   UNL     1       1.142  -2.161  -0.021  0.00  0.00    +0.031 C 
ATOM     16  C   UNL     1       0.406  -2.661  -1.266  0.00  0.00    +0.018 C 
ATOM     17  C   UNL     1       0.398  -4.191  -1.274  0.00  0.00    -0.010 C 
ATOM     18  C   UNL     1       1.838  -4.708  -1.292  0.00  0.00    +0.007 C 
ATOM     19  C   UNL     1       2.575  -4.208  -0.048  0.00  0.00    -0.010 C 
ATOM     20  C   UNL     1       2.582  -2.678  -0.039  0.00  0.00    +0.018 C 
ATOM     21  C   UNL     1       1.864  -4.721   1.206  0.00  0.00    +0.007 C 
ATOM     22  C   UNL     1       0.424  -4.205   1.224  0.00  0.00    -0.010 C 
ATOM     23  C   UNL     1      -0.312  -4.704  -0.020  0.00  0.00    +0.007 C 
ATOM     24  C   UNL     1       0.432  -2.675   1.232  0.00  0.00    +0.018 C 
ENDBRANCH   8  15
BRANCH   1  25
ATOM     25  S   UNL     1       3.945   2.115  -0.026  0.00  0.00    -0.096 S 
BRANCH  25  26
ATOM     26  C   UNL     1       5.041   0.675  -0.045  0.00  0.00    +0.172 C 
BRANCH  26  34
ATOM     27  C   UNL     1      11.619   3.000  -0.096  0.00  0.00    +0.089 C 
ATOM     28  C   UNL     1      10.614   1.877  -0.094  0.00  0.00    +0.136 A 
ATOM     29  C   UNL     1       9.267   1.998  -0.080  0.00  0.00    +0.091 A 
ATOM     30  C   UNL     1       8.802   0.656  -0.083  0.00  0.00    +0.168 A 
ATOM     31  N   UNL     1       9.869  -0.099  -0.093  0.00  0.00    -0.063 NA
ATOM     32  O   UNL     1      10.880   0.563  -0.104  0.00  0.00    -0.358 OA
ATOM     33  N   UNL     1       7.474   0.230  -0.072  0.00  0.00    -0.267 N 
ATOM     34  C   UNL     1       6.475   1.135  -0.057  0.00  0.00    +0.229 C 
ATOM     35  O   UNL     1       6.732   2.321  -0.052  0.00  0.00    -0.275 OA
ATOM     36  H   UNL     1       7.269  -0.718  -0.076  0.00  0.00    +0.156 HD
ENDBRANCH  26  34
ENDBRANCH  25  26
ENDBRANCH   1  25
TORSDOF 4
