REMARK  Name = ZINC32387293
REMARK  6 active torsions:
REMARK  status: ('A' for Active; 'I' for Inactive)
REMARK    1  A    between atoms: C_1  and  C_2
REMARK    2  A    between atoms: C_11  and  N_32
REMARK    3  A    between atoms: C_13  and  S_15
REMARK    4  A    between atoms: S_15  and  C_16
REMARK    5  A    between atoms: C_16  and  C_17
REMARK    6  A    between atoms: N_22  and  C_23
REMARK                            x       y       z     vdW  Elec       q    Type
REMARK                         _______ _______ _______ _____ _____    ______ ____
ROOT
ATOM      1  S   UNL     1      -4.533  -4.924  -0.133  0.00  0.00    -0.077 S 
ENDROOT
BRANCH   1  13
ATOM      2  C   UNL     1     -13.532  -9.262  -2.346  0.00  0.00    +0.008 C 
ATOM      3  C   UNL     1     -12.260  -8.413  -2.299  0.00  0.00    -0.009 C 
ATOM      4  C   UNL     1     -12.414  -7.316  -1.241  0.00  0.00    +0.008 C 
ATOM      5  C   UNL     1     -11.260  -6.319  -1.356  0.00  0.00    +0.037 C 
ATOM      6  C   UNL     1      -9.941  -7.086  -1.323  0.00  0.00    -0.025 A 
ATOM      7  C   UNL     1      -9.906  -8.408  -1.581  0.00  0.00    -0.004 A 
ATOM      8  S   UNL     1      -8.200  -8.865  -1.431  0.00  0.00    -0.073 S 
ATOM      9  C   UNL     1      -7.532  -7.273  -1.022  0.00  0.00    +0.115 A 
ATOM     10  C   UNL     1      -8.665  -6.435  -1.014  0.00  0.00    +0.051 A 
ATOM     11  C   UNL     1      -8.416  -5.069  -0.708  0.00  0.00    +0.129 A 
ATOM     12  N   UNL     1      -7.179  -4.679  -0.451  0.00  0.00    -0.207 NA
ATOM     13  C   UNL     1      -6.154  -5.522  -0.480  0.00  0.00    +0.191 A 
ATOM     14  N   UNL     1      -6.327  -6.807  -0.760  0.00  0.00    -0.214 NA
ATOM     15  C   UNL     1     -11.064  -9.297  -1.921  0.00  0.00    +0.046 C 
BRANCH  11  16
ATOM     16  N   UNL     1      -9.457  -4.159  -0.673  0.00  0.00    -0.343 N 
ATOM     17  H   UNL     1      -9.258  -3.103  -0.435  0.00  0.00    +0.144 HD
ATOM     18  H   UNL     1     -10.485  -4.490  -0.883  0.00  0.00    +0.144 HD
ENDBRANCH  11  16
ENDBRANCH   1  13
BRANCH   1  19
ATOM     19  C   UNL     1      -4.899  -3.176   0.163  0.00  0.00    +0.173 C 
BRANCH  19  20
ATOM     20  C   UNL     1      -3.623  -2.443   0.487  0.00  0.00    +0.231 C 
ATOM     21  O   UNL     1      -2.570  -3.043   0.516  0.00  0.00    -0.274 OA
ATOM     22  N   UNL     1      -3.653  -1.121   0.746  0.00  0.00    -0.239 N 
ATOM     23  C   UNL     1      -2.512  -0.465   1.037  0.00  0.00    +0.310 C 
ATOM     24  O   UNL     1      -1.456  -1.067   1.065  0.00  0.00    -0.252 OA
ATOM     25  N   UNL     1      -2.541   0.857   1.296  0.00  0.00    -0.269 N 
ATOM     26  H   UNL     1      -4.609  -0.577   0.720  0.00  0.00    +0.159 HD
ATOM     27  H   UNL     1      -3.505   1.384   1.356  0.00  0.00    +0.156 HD
BRANCH  25  28
ATOM     28  C   UNL     1      -1.345   1.560   1.488  0.00  0.00    +0.038 A 
ATOM     29  C   UNL     1      -0.202   1.188   0.793  0.00  0.00    +0.027 A 
ATOM     30  C   UNL     1       0.978   1.885   0.978  0.00  0.00    +0.051 A 
ATOM     31  C   UNL     1       1.025   2.951   1.861  0.00  0.00    +0.166 A 
ATOM     32  C   UNL     1      -0.119   3.322   2.563  0.00  0.00    +0.168 A 
ATOM     33  C   UNL     1      -1.300   2.624   2.378  0.00  0.00    +0.073 A 
ATOM     34  O   UNL     1       0.185   4.390   3.359  0.00  0.00    -0.453 OA
ATOM     35  C   UNL     1       1.414   4.924   2.832  0.00  0.00    +0.466 C 
ATOM     36  O   UNL     1       2.046   3.786   2.216  0.00  0.00    -0.453 OA
ENDBRANCH  25  28
ENDBRANCH  19  20
ENDBRANCH   1  19
TORSDOF 5
