REMARK  Name = ZINC00649285
REMARK  11 active torsions:
REMARK  status: ('A' for Active; 'I' for Inactive)
REMARK    1  A    between atoms: C_1  and  C_2
REMARK    2  A    between atoms: C_2  and  O_3
REMARK    3  A    between atoms: O_3  and  C_4
REMARK    4  A    between atoms: C_4  and  C_6
REMARK    5  A    between atoms: C_7  and  C_35
REMARK    6  A    between atoms: C_11  and  C_13
REMARK    7  A    between atoms: C_16  and  C_18
REMARK    8  A    between atoms: C_18  and  O_19
REMARK    9  A    between atoms: O_19  and  C_20
REMARK   10  A    between atoms: C_31  and  C_33
REMARK   11  A    between atoms: C_31  and  C_34
REMARK                            x       y       z     vdW  Elec       q    Type
REMARK                         _______ _______ _______ _____ _____    ______ ____
ROOT
ATOM      1  C   UNL     1      -6.924   3.084   2.526  0.00  0.00    +0.068 C 
ATOM      2  C   UNL     1      -6.577   2.857   3.804  0.00  0.00    +0.016 C 
ATOM      3  N   UNL     1      -5.554   3.559   4.379  0.00  0.00    -0.321 N 
ATOM      4  C   UNL     1      -5.133   4.745   3.840  0.00  0.00    +0.016 C 
ATOM      5  C   UNL     1      -5.423   5.057   2.559  0.00  0.00    +0.027 C 
ATOM      6  C   UNL     1      -6.204   4.102   1.692  0.00  0.00    +0.128 C 
ATOM      7  C   UNL     1      -5.010   6.278   1.998  0.00  0.00    +0.162 C 
ATOM      8  O   UNL     1      -5.280   6.524   0.839  0.00  0.00    -0.292 OA
ATOM      9  C   UNL     1      -4.240   7.286   2.807  0.00  0.00    +0.086 C 
ATOM     10  C   UNL     1      -4.618   7.134   4.284  0.00  0.00    -0.023 C 
ATOM     11  C   UNL     1      -4.341   5.690   4.710  0.00  0.00    +0.058 C 
ATOM     12  C   UNL     1      -6.104   7.449   4.470  0.00  0.00    +0.011 C 
ATOM     13  C   UNL     1      -3.780   8.090   5.135  0.00  0.00    +0.011 C 
ATOM     14  C   UNL     1      -7.319   1.821   4.609  0.00  0.00    +0.061 C 
ATOM     15  H   UNL     1      -5.062   3.173   5.284  0.00  0.00    +0.152 HD
ENDROOT
BRANCH   6  16
ATOM     16  C   UNL     1      -5.256   3.395   0.758  0.00  0.00    +0.118 A 
ATOM     17  C   UNL     1      -5.302   3.431  -0.586  0.00  0.00    +0.046 A 
ATOM     18  C   UNL     1      -4.230   2.637  -1.055  0.00  0.00    +0.048 A 
ATOM     19  C   UNL     1      -3.598   2.156   0.031  0.00  0.00    +0.142 A 
ATOM     20  O   UNL     1      -4.222   2.620   1.126  0.00  0.00    -0.460 OA
BRANCH  19  21
ATOM     21  C   UNL     1      -2.391   1.253   0.020  0.00  0.00    +0.303 C 
BRANCH  21  22
ATOM     22  O   UNL     1      -1.203   2.047   0.019  0.00  0.00    -0.483 OA
BRANCH  22  23
ATOM     23  C   UNL     1      -0.017   1.383   0.010  0.00  0.00    +0.140 A 
ATOM     24  C   UNL     1       0.002  -0.004   0.002  0.00  0.00    +0.050 A 
ATOM     25  C   UNL     1       1.208  -0.678  -0.013  0.00  0.00    +0.042 A 
ATOM     26  C   UNL     1       2.398   0.030  -0.021  0.00  0.00    +0.125 A 
ATOM     27  C   UNL     1       2.382   1.414  -0.013  0.00  0.00    +0.062 A 
ATOM     28  C   UNL     1       1.177   2.091   0.002  0.00  0.00    +0.085 A 
ATOM     29 CL   UNL     1       1.156   3.827   0.011  0.00  0.00    -0.080 Cl
ATOM     30  F   UNL     1       3.576  -0.631  -0.035  0.00  0.00    -0.205 F 
ENDBRANCH  22  23
ENDBRANCH  21  22
ENDBRANCH  19  21
ENDBRANCH   6  16
BRANCH   1  31
ATOM     31  C   UNL     1      -7.990   2.349   1.956  0.00  0.00    +0.338 C 
ATOM     32  O   UNL     1      -8.583   1.521   2.622  0.00  0.00    -0.245 OA
BRANCH  31  33
ATOM     33  O   UNL     1      -8.350   2.566   0.674  0.00  0.00    -0.462 OA
BRANCH  33  35
ATOM     34  C   UNL     1      -9.696   2.172  -1.294  0.00  0.00    +0.048 C 
ATOM     35  C   UNL     1      -9.435   1.789   0.164  0.00  0.00    +0.229 C 
ENDBRANCH  33  35
ENDBRANCH  31  33
ENDBRANCH   1  31
TORSDOF 7
