REMARK  Name = ZINC12566763
REMARK  8 active torsions:
REMARK  status: ('A' for Active; 'I' for Inactive)
REMARK    1  A    between atoms: C_1  and  C_2
REMARK    2  A    between atoms: C_2  and  C_3
REMARK    3  A    between atoms: C_6  and  N_9
REMARK    4  A    between atoms: C_19  and  S_20
REMARK    5  A    between atoms: S_20  and  C_21
REMARK    6  A    between atoms: C_27  and  N_29
REMARK    7  A    between atoms: N_29  and  S_30
REMARK    8  A    between atoms: S_30  and  C_33
REMARK                            x       y       z     vdW  Elec       q    Type
REMARK                         _______ _______ _______ _____ _____    ______ ____
ROOT
ATOM      1  N   UNL     1      -1.238   2.070   0.019  0.00  0.00    -0.255 N 
ATOM      2  C   UNL     1      -2.397   1.378  -0.087  0.00  0.00    +0.267 A 
ATOM      3  O   UNL     1      -2.401   0.166  -0.191  0.00  0.00    -0.267 OA
ATOM      4  C   UNL     1      -3.650   2.144  -0.067  0.00  0.00    +0.065 A 
ATOM      5  C   UNL     1      -4.894   1.524  -0.166  0.00  0.00    +0.015 A 
ATOM      6  C   UNL     1      -6.030   2.285  -0.148  0.00  0.00    +0.001 A 
ATOM      7  C   UNL     1      -5.957   3.667  -0.032  0.00  0.00    +0.002 A 
ATOM      8  C   UNL     1      -4.750   4.301   0.066  0.00  0.00    +0.028 A 
ATOM      9  C   UNL     1      -3.571   3.551   0.051  0.00  0.00    +0.079 A 
ATOM     10  N   UNL     1      -2.355   4.138   0.145  0.00  0.00    -0.223 NA
ATOM     11  C   UNL     1      -1.251   3.433   0.130  0.00  0.00    +0.177 A 
ENDROOT
BRANCH   1  15
ATOM     12  C   UNL     1       2.391   0.021  -0.010  0.00  0.00    -0.047 A 
ATOM     13  C   UNL     1       1.744   0.261   1.188  0.00  0.00    +0.005 A 
ATOM     14  C   UNL     1       0.542   0.942   1.201  0.00  0.00    +0.026 A 
ATOM     15  C   UNL     1      -0.017   1.384   0.010  0.00  0.00    +0.052 A 
ATOM     16  C   UNL     1       0.635   1.141  -1.192  0.00  0.00    +0.026 A 
ATOM     17  C   UNL     1       1.837   0.460  -1.199  0.00  0.00    +0.005 A 
BRANCH  12  19
ATOM     18  C   UNL     1       3.436  -2.223  -0.157  0.00  0.00    +0.009 C 
ATOM     19  C   UNL     1       3.702  -0.722  -0.021  0.00  0.00    +0.032 C 
ENDBRANCH  12  19
ENDBRANCH   1  15
BRANCH  11  20
ATOM     20  S   UNL     1       0.289   4.279   0.259  0.00  0.00    -0.082 S 
BRANCH  20  21
ATOM     21  C   UNL     1      -0.300   5.987   0.376  0.00  0.00    +0.073 C 
ATOM     22  C   UNL     1      -0.992   6.378  -0.932  0.00  0.00    +0.016 C 
ATOM     23  C   UNL     1      -1.490   7.822  -0.833  0.00  0.00    +0.001 C 
ATOM     24  C   UNL     1      -0.303   8.755  -0.584  0.00  0.00    +0.002 C 
ATOM     25  C   UNL     1       0.388   8.363   0.723  0.00  0.00    +0.021 C 
ATOM     26  C   UNL     1       0.886   6.920   0.625  0.00  0.00    +0.090 C 
BRANCH  26  27
ATOM     27  N   UNL     1       1.548   6.545   1.877  0.00  0.00    -0.186 NA
ATOM     28  H   UNL     1       1.024   6.215   2.623  0.00  0.00    +0.148 HD
BRANCH  27  29
ATOM     29  S   UNL     1       3.192   6.685   2.018  0.00  0.00    +0.059 S 
ATOM     30  O   UNL     1       3.523   6.276   3.338  0.00  0.00    -0.153 OA
ATOM     31  O   UNL     1       3.753   6.069   0.867  0.00  0.00    -0.153 OA
BRANCH  29  32
ATOM     32  C   UNL     1       3.580   8.401   1.911  0.00  0.00    +0.105 A 
ATOM     33  C   UNL     1       3.849   8.973   0.681  0.00  0.00    +0.028 A 
ATOM     34  C   UNL     1       4.149  10.320   0.596  0.00  0.00    +0.002 A 
ATOM     35  C   UNL     1       4.189  11.092   1.742  0.00  0.00    +0.000 A 
ATOM     36  C   UNL     1       3.926  10.519   2.972  0.00  0.00    +0.002 A 
ATOM     37  C   UNL     1       3.622   9.173   3.056  0.00  0.00    +0.028 A 
ENDBRANCH  29  32
ENDBRANCH  27  29
ENDBRANCH  26  27
ENDBRANCH  20  21
ENDBRANCH  11  20
TORSDOF 7
