REMARK  Name = ZINC09608123
REMARK  6 active torsions:
REMARK  status: ('A' for Active; 'I' for Inactive)
REMARK    1  A    between atoms: C_1  and  N_2
REMARK    2  A    between atoms: C_11  and  S_12
REMARK    3  A    between atoms: S_12  and  C_13
REMARK    4  A    between atoms: C_13  and  C_14
REMARK    5  A    between atoms: N_16  and  C_17
REMARK    6  A    between atoms: C_18  and  C_25
REMARK                            x       y       z     vdW  Elec       q    Type
REMARK                         _______ _______ _______ _____ _____    ______ ____
ROOT
ATOM      1  C   UNL     1      -4.607   1.903   0.221  0.00  0.00    +0.173 C 
ENDROOT
BRANCH   1   2
ATOM      2  C   UNL     1      -5.566   1.717  -0.926  0.00  0.00    +0.228 C 
ATOM      3  O   UNL     1      -5.159   1.329  -2.000  0.00  0.00    -0.275 OA
ATOM      4  N   UNL     1      -6.877   1.982  -0.758  0.00  0.00    -0.279 N 
ATOM      5  H   UNL     1      -7.203   2.293   0.101  0.00  0.00    +0.155 HD
BRANCH   4   6
ATOM      6  C   UNL     1      -7.760   1.812  -1.814  0.00  0.00    +0.084 A 
ATOM      7  C   UNL     1      -9.127   2.024  -1.835  0.00  0.00    +0.068 A 
ATOM      8  C   UNL     1      -9.833   1.770  -3.090  0.00  0.00    -0.023 A 
ATOM      9  C   UNL     1      -9.060   1.341  -4.103  0.00  0.00    -0.004 A 
ATOM     10  S   UNL     1      -7.420   1.274  -3.424  0.00  0.00    -0.077 S 
ATOM     11  C   UNL     1      -9.855   1.099  -5.357  0.00  0.00    +0.043 C 
ATOM     12  C   UNL     1     -11.185   1.850  -5.125  0.00  0.00    +0.010 C 
ATOM     13  C   UNL     1     -11.277   1.857  -3.586  0.00  0.00    +0.037 C 
BRANCH   7  14
ATOM     14  C   UNL     1      -9.842   2.490  -0.642  0.00  0.00    +0.244 C 
ATOM     15  O   UNL     1      -9.979   3.683  -0.442  0.00  0.00    -0.270 OA
ATOM     16  N   UNL     1     -10.347   1.598   0.233  0.00  0.00    -0.325 N 
ATOM     17  H   UNL     1     -10.237   0.647   0.074  0.00  0.00    +0.145 HD
ATOM     18  H   UNL     1     -10.819   1.906   1.022  0.00  0.00    +0.145 HD
ENDBRANCH   7  14
ENDBRANCH   4   6
ENDBRANCH   1   2
BRANCH   1  19
ATOM     19  S   UNL     1      -2.934   1.468  -0.315  0.00  0.00    -0.078 S 
BRANCH  19  30
ATOM     20  C   UNL     1      -0.013   1.086   0.008  0.00  0.00    +0.154 C 
ATOM     21  N   UNL     1      -0.698   1.558   1.213  0.00  0.00    -0.290 N 
ATOM     22  C   UNL     1       0.014   1.782   2.333  0.00  0.00    +0.263 A 
ATOM     23  O   UNL     1       1.218   1.593   2.348  0.00  0.00    -0.267 OA
ATOM     24  C   UNL     1      -0.662   2.244   3.506  0.00  0.00    +0.076 A 
ATOM     25  C   UNL     1      -0.093   2.550   4.820  0.00  0.00    -0.023 A 
ATOM     26  C   UNL     1      -0.946   2.974   5.774  0.00  0.00    -0.004 A 
ATOM     27  S   UNL     1      -2.537   2.993   4.992  0.00  0.00    -0.073 S 
ATOM     28  C   UNL     1      -2.050   2.428   3.381  0.00  0.00    +0.117 A 
ATOM     29  N   UNL     1      -2.694   2.189   2.245  0.00  0.00    -0.216 NA
ATOM     30  C   UNL     1      -2.046   1.769   1.178  0.00  0.00    +0.173 A 
ATOM     31  C   UNL     1      -0.616   3.348   7.186  0.00  0.00    +0.043 C 
ATOM     32  C   UNL     1       0.790   2.824   7.510  0.00  0.00    +0.005 C 
ATOM     33  C   UNL     1       1.734   3.212   6.368  0.00  0.00    +0.005 C 
ATOM     34  C   UNL     1       1.397   2.401   5.117  0.00  0.00    +0.037 C 
ENDBRANCH  19  30
ENDBRANCH   1  19
TORSDOF 5
