REMARK  Name = ZINC20693871
REMARK  5 active torsions:
REMARK  status: ('A' for Active; 'I' for Inactive)
REMARK    1  A    between atoms: C_1  and  O_2
REMARK    2  A    between atoms: O_2  and  C_3
REMARK    3  A    between atoms: C_7  and  C_10
REMARK    4  A    between atoms: C_8  and  O_9
REMARK    5  A    between atoms: C_21  and  C_26
REMARK                            x       y       z     vdW  Elec       q    Type
REMARK                         _______ _______ _______ _____ _____    ______ ____
ROOT
ATOM      1  C   UNL     1      -2.590   5.254   0.049  0.00  0.00    +0.109 C 
ATOM      2  C   UNL     1      -1.380   5.735   0.830  0.00  0.00    +0.029 C 
ATOM      3  C   UNL     1      -1.119   7.246   0.859  0.00  0.00    +0.033 C 
ATOM      4  C   UNL     1       0.403   7.293   1.010  0.00  0.00    -0.030 C 
ATOM      5  C   UNL     1       0.942   6.184   0.516  0.00  0.00    -0.023 C 
ATOM      6  C   UNL     1      -0.143   5.304  -0.015  0.00  0.00    +0.049 C 
ATOM      7  C   UNL     1      -0.070   3.827   0.012  0.00  0.00    -0.019 A 
ATOM      8  C   UNL     1       1.125   3.150   0.007  0.00  0.00    +0.019 A 
ATOM      9  C   UNL     1       1.142   1.753  -0.000  0.00  0.00    +0.037 A 
ATOM     10  C   UNL     1      -0.064   1.046  -0.002  0.00  0.00    +0.015 A 
ATOM     11  C   UNL     1      -1.259   1.726   0.004  0.00  0.00    +0.024 A 
ATOM     12  C   UNL     1      -1.281   3.119   0.023  0.00  0.00    +0.031 A 
ATOM     13  N   UNL     1      -2.509   3.778   0.056  0.00  0.00    -0.336 N 
ATOM     14  H   UNL     1      -3.430   3.177   0.087  0.00  0.00    +0.147 HD
ENDROOT
BRANCH   1  19
ATOM     15  C   UNL     1      -3.042   7.476  -2.983  0.00  0.00    +0.162 A 
ATOM     16  C   UNL     1      -2.431   6.717  -3.969  0.00  0.00    +0.049 A 
ATOM     17  C   UNL     1      -1.875   5.492  -3.652  0.00  0.00    +0.004 A 
ATOM     18  C   UNL     1      -1.927   5.020  -2.354  0.00  0.00    +0.009 A 
ATOM     19  C   UNL     1      -2.535   5.772  -1.366  0.00  0.00    +0.018 A 
ATOM     20  C   UNL     1      -3.099   6.999  -1.677  0.00  0.00    +0.163 A 
BRANCH  15  22
ATOM     21  C   UNL     1      -3.499   9.105  -4.654  0.00  0.00    +0.277 C 
ATOM     22  O   UNL     1      -3.590   8.682  -3.292  0.00  0.00    -0.491 OA
ENDBRANCH  15  22
BRANCH  20  23
ATOM     23  O   UNL     1      -3.702   7.737  -0.707  0.00  0.00    -0.503 OA
ATOM     24  H   UNL     1      -3.746   7.359   0.325  0.00  0.00    +0.292 HD
ENDBRANCH  20  23
ENDBRANCH   1  19
BRANCH   9  25
ATOM     25  C   UNL     1       2.427   1.027  -0.006  0.00  0.00    +0.242 C 
ATOM     26  O   UNL     1       3.474   1.645  -0.004  0.00  0.00    -0.270 OA
ATOM     27  N   UNL     1       2.439  -0.321  -0.012  0.00  0.00    -0.325 N 
ATOM     28  H   UNL     1       3.397  -0.862  -0.016  0.00  0.00    +0.145 HD
ATOM     29  H   UNL     1       1.491  -0.879  -0.013  0.00  0.00    +0.145 HD
ENDBRANCH   9  25
TORSDOF 4
