REMARK  Name = ZINC36073715
REMARK  10 active torsions:
REMARK  status: ('A' for Active; 'I' for Inactive)
REMARK    1  A    between atoms: C_1  and  C_2
REMARK    2  A    between atoms: C_2  and  C_4
REMARK    3  A    between atoms: C_2  and  N_10
REMARK    4  A    between atoms: C_11  and  C_13
REMARK    5  A    between atoms: C_16  and  C_18
REMARK    6  A    between atoms: C_18  and  N_19
REMARK    7  A    between atoms: N_19  and  C_20
REMARK    8  A    between atoms: N_19  and  C_27
REMARK    9  A    between atoms: C_20  and  C_21
REMARK   10  A    between atoms: C_27  and  C_28
REMARK                            x       y       z     vdW  Elec       q    Type
REMARK                         _______ _______ _______ _____ _____    ______ ____
ROOT
ATOM      1  N   UNL     1       2.623  -3.734   5.899  0.00  0.00    +0.391 N 
ATOM      2  H   UNL     1       3.182  -4.469   5.493  0.00  0.00    -0.080 HD
ENDROOT
BRANCH   1   3
ATOM      3  C   UNL     1       3.255  -2.435   5.633  0.00  0.00    +0.020 C 
BRANCH   3   7
ATOM      4  C   UNL     1       6.826  -2.697   6.181  0.00  0.00    +0.163 A 
ATOM      5  C   UNL     1       6.419  -2.291   7.414  0.00  0.00    +0.230 A 
ATOM      6  O   UNL     1       5.085  -2.150   7.359  0.00  0.00    -0.449 OA
ATOM      7  C   UNL     1       4.681  -2.462   6.119  0.00  0.00    +0.179 A 
ATOM      8  N   UNL     1       5.714  -2.787   5.402  0.00  0.00    -0.210 NA
BRANCH   4  10
ATOM      9  N   UNL     1       8.482  -3.281   4.480  0.00  0.00    -0.303 N 
ATOM     10  C   UNL     1       8.212  -2.981   5.766  0.00  0.00    +0.266 C 
ATOM     11  O   UNL     1       9.111  -2.944   6.584  0.00  0.00    -0.268 OA
ATOM     12  H   UNL     1       7.757  -3.390   3.845  0.00  0.00    +0.150 HD
BRANCH   9  14
ATOM     13  C   UNL     1      10.458  -2.073   3.693  0.00  0.00    +0.033 C 
ATOM     14  C   UNL     1       9.871  -3.442   4.042  0.00  0.00    +0.100 C 
BRANCH  14  15
ATOM     15  C   UNL     1       9.914  -4.332   2.826  0.00  0.00    -0.027 A 
ATOM     16  C   UNL     1       8.952  -4.204   1.841  0.00  0.00    +0.005 A 
ATOM     17  C   UNL     1       8.992  -5.020   0.726  0.00  0.00    +0.000 A 
ATOM     18  C   UNL     1       9.993  -5.964   0.596  0.00  0.00    +0.000 A 
ATOM     19  C   UNL     1      10.955  -6.092   1.580  0.00  0.00    +0.000 A 
ATOM     20  C   UNL     1      10.918  -5.273   2.693  0.00  0.00    +0.005 A 
ENDBRANCH  14  15
ENDBRANCH   9  14
ENDBRANCH   4  10
ENDBRANCH   3   7
ENDBRANCH   1   3
BRANCH   1  21
ATOM     21  C   UNL     1       1.279  -3.756   5.305  0.00  0.00    -0.042 C 
BRANCH  21  22
ATOM     22  C   UNL     1       1.392  -3.665   3.805  0.00  0.00    -0.064 A 
ATOM     23  C   UNL     1       1.272  -2.440   3.175  0.00  0.00    +0.002 A 
ATOM     24  C   UNL     1       1.376  -2.357   1.799  0.00  0.00    +0.000 A 
ATOM     25  C   UNL     1       1.600  -3.499   1.053  0.00  0.00    +0.000 A 
ATOM     26  C   UNL     1       1.720  -4.724   1.682  0.00  0.00    +0.000 A 
ATOM     27  C   UNL     1       1.621  -4.806   3.059  0.00  0.00    +0.002 A 
ENDBRANCH  21  22
ENDBRANCH   1  21
BRANCH   1  28
ATOM     28  C   UNL     1       2.520  -3.941   7.349  0.00  0.00    -0.042 C 
BRANCH  28  29
ATOM     29  C   UNL     1       1.985  -5.323   7.623  0.00  0.00    -0.060 A 
ATOM     30  C   UNL     1       0.621  -5.527   7.724  0.00  0.00    +0.005 A 
ATOM     31  C   UNL     1       0.126  -6.793   7.975  0.00  0.00    +0.050 A 
ATOM     32  C   UNL     1       0.996  -7.861   8.125  0.00  0.00    +0.166 A 
ATOM     33  C   UNL     1       2.369  -7.655   8.023  0.00  0.00    +0.166 A 
ATOM     34  C   UNL     1       2.858  -6.385   7.766  0.00  0.00    +0.051 A 
ATOM     35  O   UNL     1       3.004  -8.850   8.207  0.00  0.00    -0.453 OA
ATOM     36  C   UNL     1       2.031  -9.711   8.827  0.00  0.00    +0.466 C 
ATOM     37  O   UNL     1       0.770  -9.184   8.373  0.00  0.00    -0.453 OA
ENDBRANCH  28  29
ENDBRANCH   1  28
TORSDOF 9
