REMARK  Name = ZINC38712786
REMARK  10 active torsions:
REMARK  status: ('A' for Active; 'I' for Inactive)
REMARK    1  A    between atoms: C_1  and  C_2
REMARK    2  A    between atoms: C_2  and  C_3
REMARK    3  A    between atoms: C_2  and  C_4
REMARK    4  A    between atoms: C_2  and  C_5
REMARK    5  A    between atoms: C_8  and  C_11
REMARK    6  A    between atoms: N_30  and  C_31
REMARK    7  A    between atoms: C_31  and  C_32
REMARK    8  A    between atoms: C_32  and  N_33
REMARK    9  A    between atoms: N_33  and  C_34
REMARK   10  A    between atoms: N_33  and  C_35
REMARK                            x       y       z     vdW  Elec       q    Type
REMARK                         _______ _______ _______ _____ _____    ______ ____
ROOT
ATOM      1  C   UNL     1       2.707  -1.868  -4.752  0.00  0.00    +0.144 C 
ATOM      2  C   UNL     1       2.788  -0.772  -5.763  0.00  0.00    +0.072 A 
ATOM      3  C   UNL     1       1.742  -0.019  -6.461  0.00  0.00    +0.199 A 
ATOM      4  O   UNL     1       0.562  -0.082  -6.161  0.00  0.00    -0.287 OA
ATOM      5  C   UNL     1       2.254   0.826  -7.567  0.00  0.00    +0.065 A 
ATOM      6  C   UNL     1       1.355   1.441  -8.456  0.00  0.00    +0.016 A 
ATOM      7  C   UNL     1       1.806   2.210  -9.476  0.00  0.00    +0.009 A 
ATOM      8  C   UNL     1       3.192   2.404  -9.657  0.00  0.00    -0.014 A 
ATOM      9  C   UNL     1       3.675   3.195 -10.712  0.00  0.00    +0.008 A 
ATOM     10  C   UNL     1       5.017   3.370 -10.865  0.00  0.00    +0.001 A 
ATOM     11  C   UNL     1       5.922   2.777  -9.989  0.00  0.00    +0.001 A 
ATOM     12  C   UNL     1       5.487   2.002  -8.955  0.00  0.00    +0.012 A 
ATOM     13  C   UNL     1       4.112   1.799  -8.770  0.00  0.00    +0.025 A 
ATOM     14  C   UNL     1       3.634   0.995  -7.706  0.00  0.00    +0.147 A 
ATOM     15  O   UNL     1       4.523   0.427  -6.864  0.00  0.00    -0.449 OA
ATOM     16  C   UNL     1       4.110  -0.520  -5.999  0.00  0.00    +0.199 A 
ATOM     17  C   UNL     1       4.910  -1.435  -5.169  0.00  0.00    +0.283 C 
ATOM     18  O   UNL     1       6.125  -1.473  -5.146  0.00  0.00    -0.267 OA
ATOM     19  N   UNL     1       4.099  -2.228  -4.436  0.00  0.00    -0.285 N 
ENDROOT
BRANCH   1  23
ATOM     20  C   UNL     1       0.707  -0.490  -1.238  0.00  0.00    -0.042 A 
ATOM     21  C   UNL     1       0.036  -1.284  -2.148  0.00  0.00    +0.004 A 
ATOM     22  C   UNL     1       0.683  -1.730  -3.286  0.00  0.00    +0.006 A 
ATOM     23  C   UNL     1       2.001  -1.381  -3.513  0.00  0.00    -0.022 A 
ATOM     24  C   UNL     1       2.672  -0.586  -2.603  0.00  0.00    +0.006 A 
ATOM     25  C   UNL     1       2.024  -0.137  -1.467  0.00  0.00    +0.004 A 
BRANCH  20  27
ATOM     26  C   UNL     1      -0.019   1.526   0.010  0.00  0.00    +0.015 C 
ATOM     27  C   UNL     1       0.002  -0.004   0.002  0.00  0.00    -0.013 C 
ATOM     28  C   UNL     1       0.742  -0.511   1.242  0.00  0.00    +0.015 C 
ATOM     29  C   UNL     1      -1.433  -0.534   0.013  0.00  0.00    +0.015 C 
ENDBRANCH  20  27
ENDBRANCH   1  23
BRANCH  19  30
ATOM     30  C   UNL     1       4.527  -3.263  -3.491  0.00  0.00    +0.090 C 
BRANCH  30  31
ATOM     31  C   UNL     1       4.666  -4.598  -4.226  0.00  0.00    -0.060 C 
BRANCH  31  32
ATOM     32  N   UNL     1       5.096  -5.635  -3.279  0.00  0.00    +0.377 N 
ATOM     33  C   UNL     1       5.113  -6.939  -3.956  0.00  0.00    -0.097 C 
ATOM     34  C   UNL     1       6.443  -5.321  -2.786  0.00  0.00    -0.097 C 
ATOM     35  H   UNL     1       4.452  -5.669  -2.502  0.00  0.00    -0.083 HD
ENDBRANCH  31  32
ENDBRANCH  30  31
ENDBRANCH  19  30
TORSDOF 5
