REMARK  Name = ZINC33468028
REMARK  7 active torsions:
REMARK  status: ('A' for Active; 'I' for Inactive)
REMARK    1  A    between atoms: C_1  and  C_2
REMARK    2  A    between atoms: C_9  and  N_30
REMARK    3  A    between atoms: C_10  and  C_13
REMARK    4  A    between atoms: N_17  and  C_21
REMARK    5  A    between atoms: C_21  and  C_22
REMARK    6  A    between atoms: C_25  and  O_28
REMARK    7  A    between atoms: O_28  and  C_29
REMARK                            x       y       z     vdW  Elec       q    Type
REMARK                         _______ _______ _______ _____ _____    ______ ____
ROOT
ATOM      1  C   UNL     1       0.620   0.675  -0.153  0.00  0.00    +0.047 C 
ATOM      2  C   UNL     1       0.391  -0.795   0.085  0.00  0.00    -0.007 A 
ATOM      3  C   UNL     1       1.451  -1.643   0.209  0.00  0.00    +0.008 A 
ATOM      4  C   UNL     1       1.222  -3.008   0.431  0.00  0.00    +0.019 A 
ATOM      5  C   UNL     1      -0.042  -3.478   0.519  0.00  0.00    +0.096 A 
ATOM      6  N   UNL     1      -1.109  -2.638   0.396  0.00  0.00    -0.267 N 
ATOM      7  C   UNL     1      -0.917  -1.301   0.185  0.00  0.00    +0.145 A 
ATOM      8  N   UNL     1      -1.948  -0.465   0.057  0.00  0.00    -0.213 NA
ATOM      9  C   UNL     1      -3.201  -0.888   0.138  0.00  0.00    +0.136 A 
ATOM     10  C   UNL     1      -3.461  -2.261   0.360  0.00  0.00    +0.081 A 
ATOM     11  C   UNL     1      -2.359  -3.140   0.490  0.00  0.00    +0.267 A 
ATOM     12  O   UNL     1      -2.536  -4.331   0.683  0.00  0.00    -0.267 OA
ENDROOT
BRANCH  10  13
ATOM     13  C   UNL     1      -4.787  -2.742   0.452  0.00  0.00    +0.037 C 
ATOM     14  C   UNL     1      -5.249  -3.647  -0.460  0.00  0.00    +0.077 C 
ATOM     15  C   UNL     1      -4.625  -4.144  -1.639  0.00  0.00    +0.259 C 
ATOM     16  O   UNL     1      -3.514  -3.766  -1.966  0.00  0.00    -0.269 OA
ATOM     17  N   UNL     1      -5.285  -5.027  -2.368  0.00  0.00    -0.251 N 
ATOM     18  C   UNL     1      -6.517  -5.447  -2.004  0.00  0.00    +0.121 C 
ATOM     19  S   UNL     1      -7.543  -6.572  -2.787  0.00  0.00    -0.027 S 
ATOM     20  S   UNL     1      -6.800  -4.536  -0.494  0.00  0.00    -0.061 S 
BRANCH  17  21
ATOM     21  C   UNL     1      -4.671  -5.560  -3.587  0.00  0.00    +0.150 C 
BRANCH  21  22
ATOM     22  C   UNL     1      -3.880  -6.798  -3.252  0.00  0.00    -0.029 A 
ATOM     23  C   UNL     1      -2.545  -6.692  -2.909  0.00  0.00    +0.009 A 
ATOM     24  C   UNL     1      -1.818  -7.824  -2.596  0.00  0.00    +0.046 A 
ATOM     25  C   UNL     1      -2.427  -9.070  -2.636  0.00  0.00    +0.120 A 
ATOM     26  C   UNL     1      -3.766  -9.175  -2.986  0.00  0.00    +0.046 A 
ATOM     27  C   UNL     1      -4.489  -8.039  -3.293  0.00  0.00    +0.009 A 
BRANCH  25  28
ATOM     28  O   UNL     1      -1.714 -10.187  -2.333  0.00  0.00    -0.495 OA
ATOM     29  C   UNL     1      -0.341 -10.004  -1.982  0.00  0.00    +0.277 C 
ENDBRANCH  25  28
ENDBRANCH  21  22
ENDBRANCH  17  21
ENDBRANCH  10  13
BRANCH   9  30
ATOM     30  N   UNL     1      -4.244   0.003   0.007  0.00  0.00    -0.315 N 
ATOM     31  C   UNL     1      -5.091  -0.340  -1.157  0.00  0.00    +0.106 C 
ATOM     32  C   UNL     1      -6.074   0.745  -1.504  0.00  0.00    +0.019 C 
ATOM     33  C   UNL     1      -5.443   1.650  -2.583  0.00  0.00    +0.002 C 
ATOM     34  C   UNL     1      -4.481   2.591  -2.019  0.00  0.00    +0.002 C 
ATOM     35  C   UNL     1      -3.300   1.874  -1.331  0.00  0.00    +0.019 C 
ATOM     36  C   UNL     1      -3.753   1.400   0.022  0.00  0.00    +0.106 C 
ENDBRANCH   9  30
TORSDOF 5
