REMARK  Name = ZINC09077117
REMARK  6 active torsions:
REMARK  status: ('A' for Active; 'I' for Inactive)
REMARK    1  A    between atoms: C_1  and  C_2
REMARK    2  A    between atoms: C_2  and  C_3
REMARK    3  A    between atoms: C_2  and  C_4
REMARK    4  A    between atoms: C_4  and  C_6
REMARK    5  A    between atoms: C_4  and  N_17
REMARK    6  A    between atoms: N_20  and  C_21
REMARK                            x       y       z     vdW  Elec       q    Type
REMARK                         _______ _______ _______ _____ _____    ______ ____
ROOT
ATOM      1  C   UNL     1       1.236  -2.178  -0.026  0.00  0.00    +0.107 C 
ENDROOT
BRANCH   1   2
ATOM      2  C   UNL     1       1.204  -0.672  -0.023  0.00  0.00    -0.023 A 
ATOM      3  C   UNL     1       2.388   0.043  -0.038  0.00  0.00    +0.009 A 
ATOM      4  C   UNL     1       2.366   1.426  -0.037  0.00  0.00    +0.050 A 
ATOM      5  C   UNL     1       1.153   2.094  -0.021  0.00  0.00    +0.162 A 
ATOM      6  C   UNL     1      -0.035   1.377  -0.006  0.00  0.00    +0.162 A 
ATOM      7  C   UNL     1      -0.010  -0.008  -0.007  0.00  0.00    +0.055 A 
ATOM      8  O   UNL     1      -1.225   2.044   0.004  0.00  0.00    -0.488 OA
ATOM      9  C   UNL     1      -1.522   2.765   1.207  0.00  0.00    +0.232 C 
ATOM     10  C   UNL     1      -0.878   4.142   1.181  0.00  0.00    +0.082 C 
ATOM     11  C   UNL     1       0.641   4.071   1.178  0.00  0.00    +0.232 C 
ATOM     12  O   UNL     1       1.117   3.458  -0.022  0.00  0.00    -0.488 OA
ENDBRANCH   1   2
BRANCH   1  13
ATOM     13  N   UNL     1       2.293  -2.643  -0.927  0.00  0.00    -0.292 N 
ATOM     14  C   UNL     1       2.212  -3.866  -1.488  0.00  0.00    +0.304 C 
ATOM     15  O   UNL     1       1.261  -4.584  -1.244  0.00  0.00    -0.252 OA
ATOM     16  N   UNL     1       3.184  -4.293  -2.317  0.00  0.00    -0.269 N 
ATOM     17  H   UNL     1       3.052  -2.070  -1.121  0.00  0.00    +0.151 HD
ATOM     18  H   UNL     1       3.908  -3.696  -2.564  0.00  0.00    +0.156 HD
BRANCH  16  19
ATOM     19  C   UNL     1       3.150  -5.598  -2.823  0.00  0.00    +0.035 A 
ATOM     20  C   UNL     1       4.332  -6.295  -3.031  0.00  0.00    +0.023 A 
ATOM     21  C   UNL     1       4.295  -7.584  -3.525  0.00  0.00    +0.002 A 
ATOM     22  C   UNL     1       3.081  -8.177  -3.822  0.00  0.00    +0.000 A 
ATOM     23  C   UNL     1       1.902  -7.483  -3.621  0.00  0.00    +0.002 A 
ATOM     24  C   UNL     1       1.933  -6.196  -3.123  0.00  0.00    +0.023 A 
ENDBRANCH  16  19
ENDBRANCH   1  13
BRANCH   1  26
ATOM     25  C   UNL     1       0.412  -2.200   2.333  0.00  0.00    +0.009 C 
ATOM     26  C   UNL     1       1.516  -2.685   1.391  0.00  0.00    +0.008 C 
ATOM     27  C   UNL     1       1.548  -4.214   1.389  0.00  0.00    +0.009 C 
ENDBRANCH   1  26
TORSDOF 4
