REMARK  Name = ZINC59034385
REMARK  11 active torsions:
REMARK  status: ('A' for Active; 'I' for Inactive)
REMARK    1  A    between atoms: C_1  and  C_2
REMARK    2  A    between atoms: C_2  and  O_3
REMARK    3  A    between atoms: O_3  and  C_4
REMARK    4  A    between atoms: C_6  and  C_19
REMARK    5  A    between atoms: C_9  and  O_10
REMARK    6  A    between atoms: O_10  and  C_11
REMARK    7  A    between atoms: C_11  and  C_12
REMARK    8  A    between atoms: N_20  and  N_21
REMARK    9  A    between atoms: C_22  and  C_24
REMARK   10  A    between atoms: C_24  and  S_25
REMARK   11  A    between atoms: S_25  and  C_26
REMARK                            x       y       z     vdW  Elec       q    Type
REMARK                         _______ _______ _______ _____ _____    ______ ____
ROOT
ATOM      1  C   UNL     1      -1.498  -1.849   0.006  0.00  0.00    +0.163 A 
ATOM      2  C   UNL     1      -0.391  -2.676  -0.003  0.00  0.00    +0.059 A 
ATOM      3  C   UNL     1      -0.559  -4.063  -0.008  0.00  0.00    -0.002 A 
ATOM      4  C   UNL     1      -1.846  -4.608  -0.004  0.00  0.00    +0.013 A 
ATOM      5  C   UNL     1      -2.946  -3.776   0.005  0.00  0.00    +0.050 A 
ATOM      6  C   UNL     1      -2.779  -2.399   0.016  0.00  0.00    +0.162 A 
ENDROOT
BRANCH   3   7
ATOM      7  C   UNL     1       0.619  -4.950  -0.019  0.00  0.00    +0.138 C 
ATOM      8  N   UNL     1       0.461  -6.238  -0.024  0.00  0.00    -0.188 NA
BRANCH   8   9
ATOM      9  N   UNL     1       1.580  -7.081  -0.033  0.00  0.00    -0.206 N 
ATOM     10  C   UNL     1       1.416  -8.419  -0.039  0.00  0.00    +0.243 C 
ATOM     11  O   UNL     1       0.299  -8.893  -0.035  0.00  0.00    -0.273 OA
ATOM     12  H   UNL     1       2.473  -6.702  -0.036  0.00  0.00    +0.177 HD
BRANCH  10  13
ATOM     13  C   UNL     1       2.620  -9.326  -0.049  0.00  0.00    +0.176 C 
BRANCH  13  14
ATOM     14  S   UNL     1       2.074 -11.056  -0.054  0.00  0.00    -0.058 S 
BRANCH  14  15
ATOM     15  C   UNL     1       3.576 -11.977  -0.066  0.00  0.00    +0.258 A 
ATOM     16  N   UNL     1       4.776 -11.454  -0.065  0.00  0.00    -0.203 NA
ATOM     17  C   UNL     1       5.691 -12.462  -0.075  0.00  0.00    +0.110 A 
ATOM     18  C   UNL     1       7.086 -12.498  -0.079  0.00  0.00    +0.031 A 
ATOM     19  C   UNL     1       7.739 -13.711  -0.091  0.00  0.00    +0.002 A 
ATOM     20  C   UNL     1       7.018 -14.895  -0.100  0.00  0.00    +0.004 A 
ATOM     21  C   UNL     1       5.638 -14.874  -0.096  0.00  0.00    +0.048 A 
ATOM     22  C   UNL     1       4.965 -13.663  -0.084  0.00  0.00    +0.156 A 
ATOM     23  O   UNL     1       3.657 -13.319  -0.073  0.00  0.00    -0.431 OA
ENDBRANCH  14  15
ENDBRANCH  13  14
ENDBRANCH  10  13
ENDBRANCH   8   9
ENDBRANCH   3   7
BRANCH   1  24
ATOM     24  O   UNL     1      -1.339  -0.499   0.012  0.00  0.00    -0.489 OA
BRANCH  24  26
ATOM     25  C   UNL     1      -0.019   1.526   0.010  0.00  0.00    +0.048 C 
ATOM     26  C   UNL     1       0.002  -0.004   0.002  0.00  0.00    +0.226 C 
ENDBRANCH  24  26
ENDBRANCH   1  24
BRANCH   6  27
ATOM     27  O   UNL     1      -3.866  -1.584   0.030  0.00  0.00    -0.484 OA
BRANCH  27  28
ATOM     28  C   UNL     1      -5.149  -2.214   0.039  0.00  0.00    +0.266 C 
BRANCH  28  29
ATOM     29  C   UNL     1      -6.226  -1.161   0.055  0.00  0.00    +0.008 A 
ATOM     30  C   UNL     1      -5.883   0.179   0.053  0.00  0.00    +0.008 A 
ATOM     31  C   UNL     1      -6.871   1.145   0.068  0.00  0.00    +0.000 A 
ATOM     32  C   UNL     1      -8.203   0.773   0.085  0.00  0.00    +0.001 A 
ATOM     33  C   UNL     1      -8.547  -0.565   0.086  0.00  0.00    +0.020 A 
ATOM     34  C   UNL     1      -7.558  -1.533   0.066  0.00  0.00    +0.047 A 
ATOM     35 CL   UNL     1      -7.990  -3.215   0.062  0.00  0.00    -0.083 Cl
ENDBRANCH  28  29
ENDBRANCH  27  28
ENDBRANCH   6  27
TORSDOF 10
