REMARK  Name = ZINC38890337
REMARK  6 active torsions:
REMARK  status: ('A' for Active; 'I' for Inactive)
REMARK    1  A    between atoms: C_4  and  C_7
REMARK    2  A    between atoms: C_7  and  C_9
REMARK    3  A    between atoms: C_10  and  N_11
REMARK    4  A    between atoms: N_11  and  C_12
REMARK    5  A    between atoms: C_15  and  S_18
REMARK    6  A    between atoms: S_18  and  N_21
REMARK                            x       y       z     vdW  Elec       q    Type
REMARK                         _______ _______ _______ _____ _____    ______ ____
ROOT
ATOM      1  C   UNL     1       7.277  -2.722  -0.397  0.00  0.00    +0.031 A 
ATOM      2  C   UNL     1       7.285  -4.094  -0.619  0.00  0.00    +0.025 A 
ATOM      3  C   UNL     1       8.480  -4.749  -0.842  0.00  0.00    +0.031 A 
ATOM      4  C   UNL     1       9.668  -4.042  -0.844  0.00  0.00    +0.113 A 
ATOM      5  C   UNL     1       9.664  -2.676  -0.623  0.00  0.00    +0.031 A 
ATOM      6  C   UNL     1       8.472  -2.014  -0.405  0.00  0.00    +0.025 A 
ENDROOT
BRANCH   4   7
ATOM      7  S   UNL     1      11.190  -4.881  -1.130  0.00  0.00    +0.100 S 
ATOM      8  O   UNL     1      12.210  -4.086  -0.541  0.00  0.00    -0.146 OA
ATOM      9  O   UNL     1      10.979  -6.239  -0.767  0.00  0.00    -0.146 OA
BRANCH   7  10
ATOM     10  N   UNL     1      11.460  -4.864  -2.763  0.00  0.00    -0.112 NA
ATOM     11  C   UNL     1      12.528  -5.423  -3.252  0.00  0.00    +0.170 C 
ATOM     12  C   UNL     1      13.527  -6.097  -2.339  0.00  0.00    +0.191 C 
ATOM     13  N   UNL     1      14.715  -6.711  -2.954  0.00  0.00    -0.376 N 
ATOM     14  C   UNL     1      14.849  -6.646  -4.249  0.00  0.00    +0.061 A 
ATOM     15  C   UNL     1      16.017  -7.243  -4.912  0.00  0.00    +0.027 A 
ATOM     16  C   UNL     1      16.121  -7.155  -6.257  0.00  0.00    +0.002 A 
ATOM     17  C   UNL     1      15.144  -6.509  -7.032  0.00  0.00    +0.002 A 
ATOM     18  C   UNL     1      14.045  -5.937  -6.495  0.00  0.00    +0.030 A 
ATOM     19  C   UNL     1      13.833  -5.970  -5.093  0.00  0.00    +0.089 A 
ATOM     20  N   UNL     1      12.757  -5.415  -4.575  0.00  0.00    -0.227 NA
ATOM     21  H   UNL     1      15.383  -7.155  -2.408  0.00  0.00    +0.160 HD
ENDBRANCH   7  10
ENDBRANCH   4   7
BRANCH   1  22
ATOM     22  N   UNL     1       6.070  -2.056  -0.171  0.00  0.00    -0.320 N 
ATOM     23  H   UNL     1       6.065  -1.098  -0.020  0.00  0.00    +0.152 HD
BRANCH  22  25
ATOM     24  C   UNL     1       3.741  -2.132   0.169  0.00  0.00    +0.066 C 
ATOM     25  C   UNL     1       4.896  -2.754  -0.163  0.00  0.00    +0.076 C 
BRANCH  24  26
ATOM     26  C   UNL     1       3.770  -0.814   0.674  0.00  0.00    +0.187 C 
ATOM     27  O   UNL     1       4.836  -0.278   0.918  0.00  0.00    -0.287 OA
BRANCH  26  31
ATOM     28  C   UNL     1       0.135   1.283   1.343  0.00  0.00    +0.000 A 
ATOM     29  C   UNL     1       1.345   1.895   1.622  0.00  0.00    +0.001 A 
ATOM     30  C   UNL     1       2.528   1.219   1.407  0.00  0.00    +0.012 A 
ATOM     31  C   UNL     1       2.504  -0.084   0.908  0.00  0.00    +0.022 A 
ATOM     32  C   UNL     1       1.281  -0.695   0.629  0.00  0.00    +0.012 A 
ATOM     33  C   UNL     1       0.104  -0.009   0.848  0.00  0.00    +0.001 A 
ENDBRANCH  26  31
ENDBRANCH  24  26
ENDBRANCH  22  25
ENDBRANCH   1  22
TORSDOF 6
