REMARK  Name = ZINC18257559
REMARK  8 active torsions:
REMARK  status: ('A' for Active; 'I' for Inactive)
REMARK    1  A    between atoms: C_1  and  C_2
REMARK    2  A    between atoms: C_2  and  N_3
REMARK    3  A    between atoms: C_4  and  C_28
REMARK    4  A    between atoms: C_7  and  S_8
REMARK    5  A    between atoms: S_8  and  C_9
REMARK    6  A    between atoms: C_9  and  C_11
REMARK    7  A    between atoms: C_9  and  C_12
REMARK    8  A    between atoms: C_18  and  C_23
REMARK                            x       y       z     vdW  Elec       q    Type
REMARK                         _______ _______ _______ _____ _____    ______ ____
ROOT
ATOM      1  C   UNL     1      -1.203   1.615   0.017  0.00  0.00    +0.124 A 
ATOM      2  N   UNL     1      -0.011   0.966   0.007  0.00  0.00    -0.309 N 
ATOM      3  H   UNL     1       0.002  -0.004   0.002  0.00  0.00    +0.170 HD
ATOM      4  C   UNL     1       1.153   1.641  -0.000  0.00  0.00    +0.260 A 
ATOM      5  O   UNL     1       2.215   1.044  -0.014  0.00  0.00    -0.267 OA
ATOM      6  C   UNL     1       1.125   3.072   0.008  0.00  0.00    +0.083 A 
ATOM      7  C   UNL     1       2.236   4.017   0.002  0.00  0.00    +0.039 A 
ATOM      8  C   UNL     1       1.961   5.346   0.011  0.00  0.00    +0.059 A 
ATOM      9  S   UNL     1       0.179   5.398   0.029  0.00  0.00    -0.076 S 
ATOM     10  C   UNL     1      -0.153   3.655   0.023  0.00  0.00    +0.116 A 
ATOM     11  N   UNL     1      -1.261   2.920   0.029  0.00  0.00    -0.225 NA
ENDROOT
BRANCH   7  12
ATOM     12  C   UNL     1       3.633   3.537  -0.014  0.00  0.00    +0.136 A 
ATOM     13  C   UNL     1       4.609   3.948  -0.868  0.00  0.00    +0.050 A 
ATOM     14  C   UNL     1       5.776   3.236  -0.524  0.00  0.00    +0.042 A 
ATOM     15  C   UNL     1       5.456   2.429   0.506  0.00  0.00    +0.196 A 
ATOM     16  O   UNL     1       4.160   2.613   0.812  0.00  0.00    -0.463 OA
ENDBRANCH   7  12
BRANCH   1  17
ATOM     17  C   UNL     1      -2.482   0.817   0.018  0.00  0.00    +0.117 C 
ATOM     18  C   UNL     1      -2.988   0.661  -1.417  0.00  0.00    +0.027 C 
BRANCH  17  19
ATOM     19  S   UNL     1      -3.729   1.678   1.008  0.00  0.00    -0.075 S 
BRANCH  19  24
ATOM     20  N   UNL     1      -6.250   0.600   1.568  0.00  0.00    -0.300 N 
ATOM     21  C   UNL     1      -6.923  -0.562   1.260  0.00  0.00    +0.200 A 
ATOM     22  N   UNL     1      -6.112  -1.294   0.528  0.00  0.00    -0.125 NA
ATOM     23  N   UNL     1      -4.998  -0.677   0.357  0.00  0.00    -0.122 NA
ATOM     24  C   UNL     1      -5.027   0.487   0.967  0.00  0.00    +0.193 A 
BRANCH  21  25
ATOM     25  C   UNL     1      -8.288  -0.919   1.676  0.00  0.00    +0.172 A 
ATOM     26  C   UNL     1      -8.843  -2.162   1.620  0.00  0.00    +0.053 A 
ATOM     27  C   UNL     1     -10.155  -2.043   2.117  0.00  0.00    +0.042 A 
ATOM     28  C   UNL     1     -10.340  -0.748   2.441  0.00  0.00    +0.196 A 
ATOM     29  O   UNL     1      -9.211  -0.071   2.173  0.00  0.00    -0.460 OA
ENDBRANCH  21  25
BRANCH  20  31
ATOM     30  C   UNL     1      -7.443   2.732   1.457  0.00  0.00    +0.027 C 
ATOM     31  C   UNL     1      -6.742   1.723   2.369  0.00  0.00    +0.122 C 
ENDBRANCH  20  31
ENDBRANCH  19  24
ENDBRANCH  17  19
ENDBRANCH   1  17
TORSDOF 6
