REMARK  Name = ZINC33259668
REMARK  7 active torsions:
REMARK  status: ('A' for Active; 'I' for Inactive)
REMARK    1  A    between atoms: C_1  and  C_2
REMARK    2  A    between atoms: C_5  and  C_8
REMARK    3  A    between atoms: C_8  and  N_9
REMARK    4  A    between atoms: C_10  and  C_12
REMARK    5  A    between atoms: N_22  and  C_30
REMARK    6  A    between atoms: C_30  and  C_31
REMARK    7  A    between atoms: C_34  and  C_37
REMARK                            x       y       z     vdW  Elec       q    Type
REMARK                         _______ _______ _______ _____ _____    ______ ____
ROOT
ATOM      1  C   UNL     1      -0.188  -4.090  -0.282  0.00  0.00    +0.092 C 
ATOM      2  C   UNL     1       0.516  -4.699   0.934  0.00  0.00    +0.016 C 
ATOM      3  C   UNL     1       1.921  -4.100   1.053  0.00  0.00    +0.020 C 
ATOM      4  C   UNL     1       1.813  -2.578   1.166  0.00  0.00    +0.107 C 
ATOM      5  N   UNL     1       1.133  -2.044  -0.021  0.00  0.00    -0.310 N 
ATOM      6  C   UNL     1      -0.234  -2.568  -0.130  0.00  0.00    +0.119 C 
ATOM      7  C   UNL     1       1.135  -0.661  -0.013  0.00  0.00    +0.188 A 
ATOM      8  C   UNL     1       2.412   0.077  -0.021  0.00  0.00    +0.293 A 
ATOM      9  O   UNL     1       3.470  -0.525  -0.036  0.00  0.00    -0.264 OA
ATOM     10  N   UNL     1       2.394   1.427  -0.014  0.00  0.00    -0.284 N 
ATOM     11  C   UNL     1       1.180   2.084   0.002  0.00  0.00    +0.162 A 
ATOM     12  C   UNL     1      -0.016   1.344   0.009  0.00  0.00    +0.109 A 
ATOM     13  N   UNL     1       0.002  -0.004   0.002  0.00  0.00    -0.224 NA
ATOM     14  C   UNL     1      -1.239   2.032   0.031  0.00  0.00    +0.033 A 
ATOM     15  C   UNL     1      -1.213   3.413   0.033  0.00  0.00    +0.022 A 
ATOM     16  C   UNL     1       0.006   4.072   0.026  0.00  0.00    +0.113 A 
ATOM     17  N   UNL     1       1.144   3.409   0.011  0.00  0.00    -0.236 NA
ENDROOT
BRANCH   1  19
ATOM     18  N   UNL     1      -1.797  -5.955  -0.511  0.00  0.00    -0.311 N 
ATOM     19  C   UNL     1      -1.592  -4.630  -0.372  0.00  0.00    +0.218 C 
ATOM     20  O   UNL     1      -2.538  -3.872  -0.320  0.00  0.00    -0.275 OA
ATOM     21  H   UNL     1      -0.940  -6.642  -0.558  0.00  0.00    +0.149 HD
BRANCH  18  22
ATOM     22  C   UNL     1      -3.162  -6.479  -0.599  0.00  0.00    +0.139 C 
BRANCH  22  27
ATOM     23  C   UNL     1      -2.983 -12.227  -1.173  0.00  0.00    +0.044 C 
ATOM     24  C   UNL     1      -3.031 -10.728  -1.023  0.00  0.00    -0.050 A 
ATOM     25  C   UNL     1      -3.083 -10.160   0.236  0.00  0.00    +0.003 A 
ATOM     26  C   UNL     1      -3.125  -8.786   0.374  0.00  0.00    +0.005 A 
ATOM     27  C   UNL     1      -3.116  -7.978  -0.749  0.00  0.00    -0.030 A 
ATOM     28  C   UNL     1      -3.070  -8.546  -2.008  0.00  0.00    +0.005 A 
ATOM     29  C   UNL     1      -3.022  -9.921  -2.145  0.00  0.00    +0.003 A 
ENDBRANCH  22  27
ENDBRANCH  18  22
ENDBRANCH   1  19
BRANCH  10  30
ATOM     30  C   UNL     1       3.648   2.185  -0.023  0.00  0.00    +0.162 C 
BRANCH  30  31
ATOM     31  C   UNL     1       4.063   2.453  -1.447  0.00  0.00    -0.028 A 
ATOM     32  C   UNL     1       4.877   1.554  -2.110  0.00  0.00    +0.005 A 
ATOM     33  C   UNL     1       5.255   1.798  -3.417  0.00  0.00    +0.004 A 
ATOM     34  C   UNL     1       4.825   2.944  -4.058  0.00  0.00    -0.050 A 
ATOM     35  C   UNL     1       4.014   3.845  -3.394  0.00  0.00    +0.004 A 
ATOM     36  C   UNL     1       3.634   3.600  -2.088  0.00  0.00    +0.005 A 
ATOM     37  C   UNL     1       5.241   3.212  -5.482  0.00  0.00    +0.044 C 
ENDBRANCH  30  31
ENDBRANCH  10  30
TORSDOF 5
