REMARK  Name = ZINC13063516
REMARK  9 active torsions:
REMARK  status: ('A' for Active; 'I' for Inactive)
REMARK    1  A    between atoms: C_1  and  C_2
REMARK    2  A    between atoms: C_2  and  N_59
REMARK    3  A    between atoms: C_3  and  C_4
REMARK    4  A    between atoms: C_3  and  N_59
REMARK    5  A    between atoms: C_5  and  C_7
REMARK    6  A    between atoms: C_5  and  C_28
REMARK    7  A    between atoms: C_5  and  N_59
REMARK    8  A    between atoms: C_7  and  N_8
REMARK    9  A    between atoms: C_9  and  C_11
REMARK                            x       y       z     vdW  Elec       q    Type
REMARK                         _______ _______ _______ _____ _____    ______ ____
ROOT
ATOM      1  N   UNL     1       4.337  10.508  -2.443  0.00  0.00    -0.313 N 
ATOM      2  C   UNL     1       3.014  10.326  -2.627  0.00  0.00    +0.244 C 
ATOM      3  O   UNL     1       2.365  11.157  -3.231  0.00  0.00    -0.270 OA
ATOM      4  H   UNL     1       4.869   9.812  -2.026  0.00  0.00    +0.149 HD
ENDROOT
BRANCH   2   5
ATOM      5  C   UNL     1       2.353   9.113  -2.095  0.00  0.00    +0.039 A 
ATOM      6  C   UNL     1       3.113   8.105  -1.500  0.00  0.00    +0.014 A 
ATOM      7  C   UNL     1       2.497   6.979  -1.005  0.00  0.00    +0.014 A 
ATOM      8  C   UNL     1       1.105   6.837  -1.095  0.00  0.00    +0.048 A 
ATOM      9  C   UNL     1       0.350   7.845  -1.691  0.00  0.00    +0.105 A 
ATOM     10  C   UNL     1       0.968   8.974  -2.187  0.00  0.00    +0.041 A 
ATOM     11  S   UNL     1      -1.400   7.688  -1.819  0.00  0.00    +0.026 S 
ATOM     12  O   UNL     1      -1.954   8.416  -0.731  0.00  0.00    -0.164 OA
ATOM     13  O   UNL     1      -1.736   7.966  -3.171  0.00  0.00    -0.164 OA
ATOM     14  C   UNL     1      -1.790   5.992  -1.541  0.00  0.00    +0.104 A 
ATOM     15  C   UNL     1      -3.031   5.509  -1.905  0.00  0.00    +0.028 A 
ATOM     16  C   UNL     1      -3.349   4.179  -1.700  0.00  0.00    +0.002 A 
ATOM     17  C   UNL     1      -2.427   3.326  -1.118  0.00  0.00    +0.001 A 
ATOM     18  C   UNL     1      -1.185   3.796  -0.750  0.00  0.00    +0.013 A 
ATOM     19  C   UNL     1      -0.853   5.141  -0.958  0.00  0.00    +0.047 A 
ATOM     20  C   UNL     1       0.476   5.620  -0.553  0.00  0.00    +0.197 C 
ATOM     21  O   UNL     1       1.091   4.977   0.274  0.00  0.00    -0.287 OA
ENDBRANCH   2   5
BRANCH   1  22
ATOM     22  C   UNL     1       4.971  11.757  -2.872  0.00  0.00    +0.094 C 
BRANCH  22  23
ATOM     23  C   UNL     1       6.484  11.658  -2.664  0.00  0.00    -0.020 C 
BRANCH  23  24
ATOM     24  C   UNL     1       7.152  12.872  -3.256  0.00  0.00    -0.059 A 
ATOM     25  C   UNL     1       6.786  13.320  -4.512  0.00  0.00    +0.002 A 
ATOM     26  C   UNL     1       7.396  14.436  -5.053  0.00  0.00    +0.000 A 
ATOM     27  C   UNL     1       8.379  15.099  -4.342  0.00  0.00    +0.000 A 
ATOM     28  C   UNL     1       8.749  14.649  -3.089  0.00  0.00    +0.000 A 
ATOM     29  C   UNL     1       8.136  13.535  -2.546  0.00  0.00    +0.002 A 
ENDBRANCH  23  24
BRANCH  23  30
ATOM     30  N   UNL     1       6.970  10.429  -3.325  0.00  0.00    +0.385 N 
ATOM     31  H   UNL     1       6.227   9.720  -3.300  0.00  0.00    -0.081 HD
BRANCH  30  33
ATOM     32  C   UNL     1       6.039  10.616  -5.576  0.00  0.00    -0.017 C 
ATOM     33  C   UNL     1       7.313  10.714  -4.734  0.00  0.00    -0.081 C 
ENDBRANCH  30  33
BRANCH  30  34
ATOM     34  C   UNL     1       8.155   9.908  -2.612  0.00  0.00    -0.081 C 
ATOM     35  C   UNL     1       7.694   9.236  -1.318  0.00  0.00    -0.017 C 
ENDBRANCH  30  34
ENDBRANCH  23  30
ENDBRANCH  22  23
ENDBRANCH   1  22
TORSDOF 7
