REMARK  Name = ZINC15219300
REMARK  9 active torsions:
REMARK  status: ('A' for Active; 'I' for Inactive)
REMARK    1  A    between atoms: C_1  and  C_2
REMARK    2  A    between atoms: C_4  and  N_36
REMARK    3  A    between atoms: C_7  and  N_12
REMARK    4  A    between atoms: N_12  and  N_13
REMARK    5  A    between atoms: C_14  and  C_16
REMARK    6  A    between atoms: C_16  and  N_27
REMARK    7  A    between atoms: C_17  and  C_18
REMARK    8  A    between atoms: C_21  and  N_24
REMARK    9  A    between atoms: C_28  and  C_30
REMARK                            x       y       z     vdW  Elec       q    Type
REMARK                         _______ _______ _______ _____ _____    ______ ____
ROOT
ATOM      1  N   UNL     1       1.070  -5.134   2.058  0.00  0.00    -0.231 N 
ATOM      2  C   UNL     1       0.566  -6.298   2.514  0.00  0.00    +0.274 C 
ATOM      3  O   UNL     1       0.244  -6.406   3.682  0.00  0.00    -0.267 OA
ATOM      4  H   UNL     1       1.393  -5.070   1.146  0.00  0.00    +0.173 HD
ENDROOT
BRANCH   1   5
ATOM      5  N   UNL     1       1.126  -4.017   2.901  0.00  0.00    -0.259 N 
ATOM      6  H   UNL     1       0.875  -4.101   3.835  0.00  0.00    +0.170 HD
BRANCH   5  13
ATOM      7  C   UNL     1       2.886   1.680   1.673  0.00  0.00    +0.046 C 
ATOM      8  C   UNL     1       2.442   0.625   2.652  0.00  0.00    -0.026 A 
ATOM      9  C   UNL     1       2.318   0.937   3.996  0.00  0.00    +0.038 A 
ATOM     10  C   UNL     1       1.913  -0.019   4.914  0.00  0.00    +0.127 A 
ATOM     11  C   UNL     1       1.623  -1.304   4.500  0.00  0.00    +0.044 A 
ATOM     12  C   UNL     1       1.742  -1.640   3.146  0.00  0.00    +0.026 A 
ATOM     13  C   UNL     1       1.525  -2.837   2.421  0.00  0.00    +0.116 C 
ATOM     14  C   UNL     1       1.843  -2.490   0.992  0.00  0.00    +0.264 C 
ATOM     15  O   UNL     1       1.783  -3.245   0.038  0.00  0.00    -0.268 OA
ATOM     16  N   UNL     1       2.197  -1.218   0.960  0.00  0.00    -0.280 N 
ATOM     17  C   UNL     1       2.152  -0.661   2.203  0.00  0.00    +0.046 A 
ATOM     18  H   UNL     1       2.454  -0.741   0.155  0.00  0.00    +0.155 HD
BRANCH  10  19
ATOM     19  N   UNL     1       1.789   0.339   6.345  0.00  0.00    +0.056 N 
ATOM     20  O   UNL     1       2.132   1.434   6.726  0.00  0.00    -0.126 OA
ATOM     21  O   UNL     1       1.345  -0.463   7.133  0.00  0.00    -0.126 OA
ENDBRANCH  10  19
ENDBRANCH   5  13
ENDBRANCH   1   5
BRANCH   2  22
ATOM     22  C   UNL     1       0.406  -7.439   1.599  0.00  0.00    +0.098 C 
ATOM     23  C   UNL     1      -0.201  -8.569   2.027  0.00  0.00    +0.036 C 
BRANCH  23  24
ATOM     24  C   UNL     1      -0.220  -9.764   1.169  0.00  0.00    -0.023 A 
ATOM     25  C   UNL     1       0.693  -9.889   0.117  0.00  0.00    +0.010 A 
ATOM     26  C   UNL     1       0.668 -11.011  -0.683  0.00  0.00    +0.033 A 
ATOM     27  C   UNL     1      -0.257 -12.014  -0.447  0.00  0.00    +0.126 A 
ATOM     28  C   UNL     1      -1.163 -11.898   0.592  0.00  0.00    +0.033 A 
ATOM     29  C   UNL     1      -1.148 -10.784   1.404  0.00  0.00    +0.010 A 
BRANCH  27  30
ATOM     30  N   UNL     1      -0.277 -13.216  -1.311  0.00  0.00    +0.056 N 
ATOM     31  O   UNL     1       0.514 -13.320  -2.220  0.00  0.00    -0.126 OA
ATOM     32  O   UNL     1      -1.083 -14.093  -1.108  0.00  0.00    -0.126 OA
ENDBRANCH  27  30
ENDBRANCH  23  24
BRANCH  22  33
ATOM     33  N   UNL     1       0.880  -7.354   0.287  0.00  0.00    -0.277 N 
ATOM     34  C   UNL     1       2.166  -7.023   0.055  0.00  0.00    +0.248 C 
ATOM     35  O   UNL     1       2.936  -6.885   0.987  0.00  0.00    -0.270 OA
ATOM     36  H   UNL     1       0.284  -7.533  -0.457  0.00  0.00    +0.155 HD
BRANCH  34  37
ATOM     37  C   UNL     1       2.641  -6.828  -1.331  0.00  0.00    +0.037 A 
ATOM     38  C   UNL     1       1.737  -6.866  -2.393  0.00  0.00    +0.013 A 
ATOM     39  C   UNL     1       2.187  -6.684  -3.685  0.00  0.00    +0.001 A 
ATOM     40  C   UNL     1       3.531  -6.463  -3.928  0.00  0.00    +0.000 A 
ATOM     41  C   UNL     1       4.433  -6.425  -2.879  0.00  0.00    +0.001 A 
ATOM     42  C   UNL     1       3.995  -6.600  -1.582  0.00  0.00    +0.013 A 
ENDBRANCH  34  37
ENDBRANCH  22  33
ENDBRANCH   2  22
TORSDOF 8
