REMARK  Name = ZINC27574195
REMARK  12 active torsions:
REMARK  status: ('A' for Active; 'I' for Inactive)
REMARK    1  A    between atoms: C_1  and  C_2
REMARK    2  A    between atoms: C_2  and  O_3
REMARK    3  A    between atoms: O_3  and  C_4
REMARK    4  A    between atoms: C_6  and  C_15
REMARK    5  A    between atoms: C_7  and  N_12
REMARK    6  A    between atoms: C_9  and  O_10
REMARK    7  A    between atoms: O_10  and  C_11
REMARK    8  A    between atoms: N_17  and  C_18
REMARK    9  A    between atoms: C_18  and  C_19
REMARK   10  A    between atoms: C_19  and  C_21
REMARK   11  A    between atoms: C_19  and  N_26
REMARK   12  A    between atoms: C_29  and  C_32
REMARK                            x       y       z     vdW  Elec       q    Type
REMARK                         _______ _______ _______ _____ _____    ______ ____
ROOT
ATOM      1  C   UNL     1       3.911  -0.442   3.974  0.00  0.00    +0.246 C 
ATOM      2  O   UNL     1       4.644  -0.820   4.867  0.00  0.00    -0.270 OA
ATOM      3  N   UNL     1       4.190  -0.761   2.694  0.00  0.00    -0.312 N 
ATOM      4  H   UNL     1       3.527  -0.420   1.885  0.00  0.00    +0.149 HD
ENDROOT
BRANCH   1   7
ATOM      5  C   UNL     1       1.416   2.365   3.983  0.00  0.00    +0.163 A 
ATOM      6  C   UNL     1       2.532   1.610   3.679  0.00  0.00    +0.064 A 
ATOM      7  C   UNL     1       2.717   0.366   4.289  0.00  0.00    +0.070 A 
ATOM      8  C   UNL     1       1.767  -0.113   5.195  0.00  0.00    +0.142 A 
ATOM      9  C   UNL     1       0.653   0.643   5.489  0.00  0.00    +0.082 A 
ATOM     10  C   UNL     1       0.472   1.881   4.887  0.00  0.00    +0.164 A 
BRANCH   8  11
ATOM     11  N   UNL     1       1.957  -1.432   5.838  0.00  0.00    +0.057 N 
ATOM     12  O   UNL     1       1.192  -1.799   6.712  0.00  0.00    -0.126 OA
ATOM     13  O   UNL     1       2.879  -2.150   5.494  0.00  0.00    -0.126 OA
ENDBRANCH   8  11
BRANCH  10  14
ATOM     14  O   UNL     1      -0.628   2.622   5.180  0.00  0.00    -0.491 OA
ATOM     15  C   UNL     1      -1.555   2.066   6.115  0.00  0.00    +0.277 C 
ENDBRANCH  10  14
BRANCH   5  16
ATOM     16  O   UNL     1       1.235   3.578   3.395  0.00  0.00    -0.489 OA
BRANCH  16  18
ATOM     17  C   UNL     1       1.869   5.387   1.924  0.00  0.00    +0.048 C 
ATOM     18  C   UNL     1       2.243   4.011   2.479  0.00  0.00    +0.226 C 
ENDBRANCH  16  18
ENDBRANCH   5  16
ENDBRANCH   1   7
BRANCH   3  19
ATOM     19  C   UNL     1       5.375  -1.564   2.381  0.00  0.00    +0.094 C 
BRANCH  19  20
ATOM     20  C   UNL     1       5.458  -1.782   0.868  0.00  0.00    -0.013 C 
BRANCH  20  21
ATOM     21  N   UNL     1       5.432  -0.482   0.184  0.00  0.00    +0.386 N 
ATOM     22  C   UNL     1       6.354   0.467   0.822  0.00  0.00    -0.078 C 
ATOM     23  C   UNL     1       6.196   1.846   0.178  0.00  0.00    -0.015 C 
ATOM     24  C   UNL     1       6.496   1.742  -1.320  0.00  0.00    -0.018 C 
ATOM     25  C   UNL     1       5.554   0.713  -1.951  0.00  0.00    -0.015 C 
ATOM     26  C   UNL     1       5.732  -0.634  -1.245  0.00  0.00    -0.078 C 
ATOM     27  C   UNL     1       6.280   3.105  -1.980  0.00  0.00    +0.007 C 
ATOM     28  H   UNL     1       4.416  -0.071   0.272  0.00  0.00    -0.081 HD
ENDBRANCH  20  21
BRANCH  20  29
ATOM     29  C   UNL     1       6.739  -2.500   0.534  0.00  0.00    -0.022 A 
ATOM     30  C   UNL     1       6.936  -3.815   0.270  0.00  0.00    +0.009 A 
ATOM     31  C   UNL     1       8.215  -4.257  -0.016  0.00  0.00    +0.008 A 
ATOM     32  C   UNL     1       9.233  -3.362  -0.024  0.00  0.00    +0.045 A 
ATOM     33  S   UNL     1       8.390  -1.840   0.375  0.00  0.00    -0.103 S 
ENDBRANCH  20  29
ENDBRANCH  19  20
ENDBRANCH   3  19
TORSDOF 9
