REMARK  Name = ZINC39711321
REMARK  10 active torsions:
REMARK  status: ('A' for Active; 'I' for Inactive)
REMARK    1  A    between atoms: C_1  and  O_2
REMARK    2  A    between atoms: O_2  and  C_3
REMARK    3  A    between atoms: C_3  and  C_4
REMARK    4  A    between atoms: C_4  and  N_5
REMARK    5  A    between atoms: C_6  and  C_10
REMARK    6  A    between atoms: C_10  and  C_12
REMARK    7  A    between atoms: C_10  and  N_26
REMARK    8  A    between atoms: C_17  and  O_24
REMARK    9  A    between atoms: O_24  and  C_25
REMARK   10  A    between atoms: N_29  and  C_32
REMARK                            x       y       z     vdW  Elec       q    Type
REMARK                         _______ _______ _______ _____ _____    ______ ____
ROOT
ATOM      1  C   UNL     1      -2.659  -2.675   2.675  0.00  0.00    +0.142 C 
ENDROOT
BRANCH   1   2
ATOM      2  C   UNL     1      -3.490  -1.531   3.259  0.00  0.00    +0.123 C 
ATOM      3  C   UNL     1      -3.142  -0.267   2.497  0.00  0.00    -0.003 C 
ATOM      4  C   UNL     1      -4.161   0.386   1.870  0.00  0.00    -0.003 A 
ATOM      5  C   UNL     1      -3.912   1.614   1.114  0.00  0.00    +0.055 A 
ATOM      6  C   UNL     1      -4.960   2.233   0.504  0.00  0.00    +0.121 A 
ATOM      7  C   UNL     1      -6.259   1.717   0.590  0.00  0.00    +0.047 A 
ATOM      8  C   UNL     1      -6.551   0.583   1.277  0.00  0.00    +0.027 A 
ATOM      9  C   UNL     1      -5.538  -0.132   1.942  0.00  0.00    +0.041 A 
ATOM     10  N   UNL     1      -5.839  -1.245   2.612  0.00  0.00    -0.284 N 
ATOM     11  C   UNL     1      -4.939  -1.964   3.260  0.00  0.00    +0.226 C 
ATOM     12  O   UNL     1      -5.275  -2.970   3.854  0.00  0.00    -0.275 OA
ATOM     13  H   UNL     1      -6.763  -1.540   2.626  0.00  0.00    +0.155 HD
BRANCH   6  14
ATOM     14  O   UNL     1      -4.742   3.374  -0.202  0.00  0.00    -0.495 OA
ATOM     15  C   UNL     1      -5.877   3.982  -0.821  0.00  0.00    +0.277 C 
ENDBRANCH   6  14
ENDBRANCH   1   2
BRANCH   1  16
ATOM     16  N   UNL     1      -2.857  -3.886   3.482  0.00  0.00    -0.289 NA
ATOM     17  C   UNL     1      -2.537  -3.635   4.894  0.00  0.00    +0.104 C 
ATOM     18  C   UNL     1      -2.927  -4.860   5.728  0.00  0.00    +0.120 C 
ATOM     19  N   UNL     1      -2.281  -6.046   5.146  0.00  0.00    -0.325 N 
ATOM     20  C   UNL     1      -2.442  -6.289   3.704  0.00  0.00    +0.120 C 
ATOM     21  C   UNL     1      -2.072  -5.008   2.950  0.00  0.00    +0.104 C 
BRANCH  19  22
ATOM     22  C   UNL     1      -1.533  -6.919   5.942  0.00  0.00    +0.065 A 
ATOM     23  C   UNL     1      -2.149  -8.004   6.553  0.00  0.00    +0.026 A 
ATOM     24  C   UNL     1      -1.407  -8.865   7.338  0.00  0.00    +0.002 A 
ATOM     25  C   UNL     1      -0.053  -8.649   7.517  0.00  0.00    +0.003 A 
ATOM     26  C   UNL     1       0.564  -7.571   6.912  0.00  0.00    +0.040 A 
ATOM     27  C   UNL     1      -0.170  -6.707   6.119  0.00  0.00    +0.144 A 
ATOM     28  F   UNL     1       0.435  -5.657   5.522  0.00  0.00    -0.204 F 
ENDBRANCH  19  22
ENDBRANCH   1  16
BRANCH   1  30
ATOM     29  N   UNL     1      -2.357  -2.771   0.144  0.00  0.00    -0.225 N 
ATOM     30  C   UNL     1      -3.095  -2.940   1.257  0.00  0.00    +0.170 A 
ATOM     31  N   UNL     1      -4.267  -3.381   0.868  0.00  0.00    -0.112 NA
ATOM     32  N   UNL     1      -4.250  -3.477  -0.416  0.00  0.00    -0.023 NA
ATOM     33  N   UNL     1      -3.099  -3.105  -0.858  0.00  0.00    -0.044 NA
BRANCH  29  34
ATOM     34  C   UNL     1      -0.974  -2.293   0.081  0.00  0.00    +0.175 C 
BRANCH  34  35
ATOM     35  C   UNL     1      -0.967  -0.788  -0.196  0.00  0.00    +0.183 C 
BRANCH  35  37
ATOM     36  C   UNL     1       0.495   1.101  -0.395  0.00  0.00    +0.194 C 
ATOM     37  O   UNL     1       0.376  -0.302  -0.148  0.00  0.00    -0.381 OA
ENDBRANCH  35  37
ENDBRANCH  34  35
ENDBRANCH  29  34
ENDBRANCH   1  30
TORSDOF 8
