REMARK  Name = ZINC09804962
REMARK  15 active torsions:
REMARK  status: ('A' for Active; 'I' for Inactive)
REMARK    1  A    between atoms: C_1  and  C_2
REMARK    2  A    between atoms: C_3  and  C_30
REMARK    3  A    between atoms: C_4  and  C_20
REMARK    4  A    between atoms: C_10  and  C_15
REMARK    5  A    between atoms: C_23  and  O_28
REMARK    6  A    between atoms: C_24  and  O_26
REMARK    7  A    between atoms: O_26  and  C_27
REMARK    8  A    between atoms: O_28  and  C_29
REMARK    9  A    between atoms: C_30  and  O_32
REMARK   10  A    between atoms: O_32  and  C_33
REMARK   11  A    between atoms: C_33  and  C_34
REMARK   12  A    between atoms: C_34  and  O_35
REMARK   13  A    between atoms: O_35  and  C_36
REMARK   14  A    between atoms: C_36  and  C_37
REMARK   15  A    between atoms: C_36  and  C_38
REMARK                            x       y       z     vdW  Elec       q    Type
REMARK                         _______ _______ _______ _____ _____    ______ ____
ROOT
ATOM      1  C   UNL     1      -3.400   5.601   0.705  0.00  0.00    +0.061 C 
ATOM      2  C   UNL     1      -2.542   4.362   0.680  0.00  0.00    +0.031 C 
ATOM      3  C   UNL     1      -2.438   3.599   1.781  0.00  0.00    +0.154 C 
ATOM      4  C   UNL     1      -1.591   2.362   1.795  0.00  0.00    +0.073 C 
ATOM      5  C   UNL     1      -1.275   1.906   0.392  0.00  0.00    +0.025 C 
ATOM      6  C   UNL     1      -1.422   2.745  -0.654  0.00  0.00    +0.049 C 
ATOM      7  N   UNL     1      -1.873   4.023  -0.463  0.00  0.00    -0.260 NA
ATOM      8  C   UNL     1      -1.097   2.299  -2.059  0.00  0.00    +0.065 C 
ATOM      9  C   UNL     1      -1.362   0.798  -2.197  0.00  0.00    +0.039 C 
ATOM     10  C   UNL     1      -0.508   0.056  -1.164  0.00  0.00    +0.088 C 
ATOM     11  C   UNL     1      -0.825   0.585   0.208  0.00  0.00    +0.162 C 
ATOM     12  O   UNL     1      -0.692  -0.141   1.173  0.00  0.00    -0.292 OA
ENDROOT
BRANCH   4  13
ATOM     13  C   UNL     1      -0.303   2.660   2.519  0.00  0.00    -0.035 A 
ATOM     14  C   UNL     1       0.588   3.576   1.993  0.00  0.00    +0.008 A 
ATOM     15  C   UNL     1       1.768   3.857   2.657  0.00  0.00    +0.050 A 
ATOM     16  C   UNL     1       2.064   3.211   3.847  0.00  0.00    +0.162 A 
ATOM     17  C   UNL     1       1.169   2.284   4.373  0.00  0.00    +0.162 A 
ATOM     18  C   UNL     1      -0.014   2.011   3.706  0.00  0.00    +0.053 A 
BRANCH  17  19
ATOM     19  O   UNL     1       1.456   1.647   5.540  0.00  0.00    -0.491 OA
ATOM     20  C   UNL     1       0.547   0.629   5.963  0.00  0.00    +0.277 C 
ENDBRANCH  17  19
BRANCH  16  21
ATOM     21  O   UNL     1       3.227   3.481   4.498  0.00  0.00    -0.491 OA
ATOM     22  C   UNL     1       4.097   4.443   3.899  0.00  0.00    +0.277 C 
ENDBRANCH  16  21
ENDBRANCH   4  13
BRANCH   9  23
ATOM     23  C   UNL     1      -0.992   0.340  -3.584  0.00  0.00    -0.006 A 
ATOM     24  C   UNL     1      -1.769  -0.255  -4.522  0.00  0.00    +0.011 A 
ATOM     25  C   UNL     1      -1.210  -0.589  -5.741  0.00  0.00    +0.008 A 
ATOM     26  C   UNL     1       0.101  -0.323  -5.958  0.00  0.00    +0.045 A 
ATOM     27  S   UNL     1       0.586   0.430  -4.414  0.00  0.00    -0.101 S 
ENDBRANCH   9  23
BRANCH   3  28
ATOM     28  C   UNL     1      -3.145   3.968   2.950  0.00  0.00    +0.317 C 
ATOM     29  O   UNL     1      -4.167   3.381   3.253  0.00  0.00    -0.250 OA
BRANCH  28  30
ATOM     30  O   UNL     1      -2.686   4.971   3.728  0.00  0.00    -0.462 OA
BRANCH  30  31
ATOM     31  C   UNL     1      -3.378   5.207   4.956  0.00  0.00    +0.260 C 
BRANCH  31  32
ATOM     32  C   UNL     1      -2.784   6.436   5.647  0.00  0.00    +0.201 C 
BRANCH  32  33
ATOM     33  O   UNL     1      -3.031   7.596   4.850  0.00  0.00    -0.374 OA
BRANCH  33  34
ATOM     34  C   UNL     1      -2.422   8.787   5.354  0.00  0.00    +0.112 C 
ATOM     35  C   UNL     1      -1.022   8.937   4.755  0.00  0.00    +0.037 C 
ATOM     36  C   UNL     1      -3.274   9.998   4.967  0.00  0.00    +0.037 C 
ENDBRANCH  33  34
ENDBRANCH  32  33
ENDBRANCH  31  32
ENDBRANCH  30  31
ENDBRANCH  28  30
ENDBRANCH   3  28
TORSDOF 10
