REMARK  Name = ZINC36595291
REMARK  15 active torsions:
REMARK  status: ('A' for Active; 'I' for Inactive)
REMARK    1  A    between atoms: C_1  and  C_2
REMARK    2  A    between atoms: C_2  and  C_3
REMARK    3  A    between atoms: C_3  and  C_4
REMARK    4  A    between atoms: C_4  and  N_5
REMARK    5  A    between atoms: C_6  and  C_8
REMARK    6  A    between atoms: C_8  and  C_10
REMARK    7  A    between atoms: C_8  and  N_19
REMARK    8  A    between atoms: C_11  and  O_18
REMARK    9  A    between atoms: C_13  and  O_17
REMARK   10  A    between atoms: C_15  and  O_16
REMARK   11  A    between atoms: N_19  and  C_20
REMARK   12  A    between atoms: C_20  and  C_21
REMARK   13  A    between atoms: C_24  and  C_26
REMARK   14  A    between atoms: C_27  and  C_29
REMARK   15  A    between atoms: C_34  and  O_35
REMARK                            x       y       z     vdW  Elec       q    Type
REMARK                         _______ _______ _______ _____ _____    ______ ____
ROOT
ATOM      1  C   UNL     1       2.594  -4.263   3.842  0.00  0.00    +0.200 C 
ENDROOT
BRANCH   1   2
ATOM      2  C   UNL     1       1.493  -3.595   4.625  0.00  0.00    +0.065 A 
ATOM      3  C   UNL     1       0.185  -4.035   4.496  0.00  0.00    +0.129 A 
ATOM      4  C   UNL     1      -0.828  -3.421   5.216  0.00  0.00    +0.091 A 
ATOM      5  C   UNL     1      -0.532  -2.366   6.067  0.00  0.00    +0.124 A 
ATOM      6  C   UNL     1       0.776  -1.927   6.198  0.00  0.00    +0.091 A 
ATOM      7  C   UNL     1       1.790  -2.544   5.480  0.00  0.00    +0.129 A 
BRANCH   7   8
ATOM      8  O   UNL     1       3.073  -2.116   5.612  0.00  0.00    -0.506 OA
ATOM      9  H   UNL     1       3.321  -1.420   4.988  0.00  0.00    +0.292 HD
ENDBRANCH   7   8
BRANCH   5  10
ATOM     10  O   UNL     1      -1.525  -1.764   6.773  0.00  0.00    -0.507 OA
ATOM     11  H   UNL     1      -1.687  -2.160   7.640  0.00  0.00    +0.292 HD
ENDBRANCH   5  10
BRANCH   3  12
ATOM     12  O   UNL     1      -0.105  -5.068   3.662  0.00  0.00    -0.506 OA
ATOM     13  H   UNL     1      -0.029  -5.940   4.074  0.00  0.00    +0.292 HD
ENDBRANCH   3  12
ENDBRANCH   1   2
BRANCH   1  15
ATOM     14  N   UNL     1       3.010  -2.060   2.795  0.00  0.00    -0.313 N 
ATOM     15  C   UNL     1       2.965  -3.401   2.663  0.00  0.00    +0.238 C 
ATOM     16  O   UNL     1       3.224  -3.913   1.594  0.00  0.00    -0.273 OA
ATOM     17  H   UNL     1       2.803  -1.650   3.649  0.00  0.00    +0.149 HD
BRANCH  14  18
ATOM     18  C   UNL     1       3.370  -1.222   1.649  0.00  0.00    +0.104 C 
BRANCH  18  19
ATOM     19  C   UNL     1       3.346   0.250   2.065  0.00  0.00    +0.018 C 
BRANCH  19  21
ATOM     20  C   UNL     1       3.698   2.597   1.284  0.00  0.00    +0.004 C 
ATOM     21  C   UNL     1       3.723   1.125   0.868  0.00  0.00    -0.002 C 
ENDBRANCH  19  21
ENDBRANCH  18  19
ENDBRANCH  14  18
ENDBRANCH   1  15
BRANCH   1  22
ATOM     22  N   UNL     1       2.132  -5.569   3.366  0.00  0.00    -0.274 N 
ATOM     23  C   UNL     1       2.377  -6.676   4.094  0.00  0.00    +0.251 C 
ATOM     24  O   UNL     1       1.940  -7.751   3.730  0.00  0.00    -0.270 OA
BRANCH  23  25
ATOM     25  C   UNL     1       3.175  -6.585   5.331  0.00  0.00    +0.078 A 
ATOM     26  C   UNL     1       3.180  -5.404   6.078  0.00  0.00    +0.017 A 
ATOM     27  C   UNL     1       3.927  -5.324   7.233  0.00  0.00    +0.001 A 
ATOM     28  C   UNL     1       4.673  -6.411   7.658  0.00  0.00    +0.004 A 
ATOM     29  C   UNL     1       4.677  -7.584   6.930  0.00  0.00    +0.046 A 
ATOM     30  C   UNL     1       3.927  -7.683   5.768  0.00  0.00    +0.129 A 
BRANCH  30  31
ATOM     31  O   UNL     1       3.925  -8.837   5.054  0.00  0.00    -0.506 OA
ATOM     32  H   UNL     1       4.617  -8.883   4.380  0.00  0.00    +0.292 HD
ENDBRANCH  30  31
ENDBRANCH  23  25
BRANCH  22  33
ATOM     33  C   UNL     1       1.403  -5.671   2.099  0.00  0.00    +0.183 C 
BRANCH  33  34
ATOM     34  C   UNL     1       2.141  -6.598   1.169  0.00  0.00    +0.122 A 
ATOM     35  C   UNL     1       1.956  -7.927   1.073  0.00  0.00    +0.046 A 
ATOM     36  C   UNL     1       2.851  -8.395   0.083  0.00  0.00    +0.045 A 
ATOM     37  C   UNL     1       3.529  -7.324  -0.367  0.00  0.00    +0.102 A 
ATOM     38  O   UNL     1       3.091  -6.237   0.290  0.00  0.00    -0.463 OA
ATOM     39  C   UNL     1       4.596  -7.339  -1.431  0.00  0.00    +0.086 C 
ENDBRANCH  33  34
ENDBRANCH  22  33
ENDBRANCH   1  22
TORSDOF 13
