REMARK  Name = ZINC63373465
REMARK  8 active torsions:
REMARK  status: ('A' for Active; 'I' for Inactive)
REMARK    1  A    between atoms: C_7  and  C_10
REMARK    2  A    between atoms: C_10  and  C_11
REMARK    3  A    between atoms: C_11  and  C_13
REMARK    4  A    between atoms: C_11  and  N_28
REMARK    5  A    between atoms: N_15  and  CA_16
REMARK    6  A    between atoms: CA_16  and  C_18
REMARK    7  A    between atoms: CA_16  and  C_25
REMARK    8  A    between atoms: C_21  and  O_24
REMARK                            x       y       z     vdW  Elec       q    Type
REMARK                         _______ _______ _______ _____ _____    ______ ____
ROOT
ATOM      1  C   UNL     1       0.457  -3.653  -1.462  0.00  0.00    +0.175 C 
ENDROOT
BRANCH   1   2
ATOM      2  N   UNL     1      -0.238  -2.603  -2.210  0.00  0.00    -0.211 N 
ATOM      3  C   UNL     1       0.341  -2.072  -3.306  0.00  0.00    +0.236 C 
ATOM      4  O   UNL     1       1.401  -2.507  -3.703  0.00  0.00    -0.274 OA
ATOM      5  C   UNL     1      -0.326  -0.948  -4.032  0.00  0.00    +0.144 C 
ATOM      6  C   UNL     1      -0.159  -1.018  -5.514  0.00  0.00    -0.008 C 
ATOM      7  C   UNL     1      -1.125  -0.605  -6.337  0.00  0.00    -0.003 C 
ATOM      8  C   UNL     1      -2.348  -0.095  -5.842  0.00  0.00    +0.001 C 
ATOM      9  C   UNL     1      -2.673  -0.212  -4.527  0.00  0.00    +0.022 C 
ATOM     10  C   UNL     1      -1.773  -0.841  -3.657  0.00  0.00    +0.051 C 
ATOM     11  N   UNL     1      -2.218  -1.391  -2.548  0.00  0.00    -0.166 NA
ATOM     12  C   UNL     1      -1.447  -2.184  -1.799  0.00  0.00    +0.333 C 
ATOM     13  O   UNL     1      -1.851  -2.535  -0.706  0.00  0.00    -0.250 OA
ENDBRANCH   1   2
BRANCH   1  14
ATOM     14  C   UNL     1      -0.385  -4.904  -1.452  0.00  0.00    +0.235 C 
ATOM     15  O   UNL     1      -1.459  -4.916  -2.016  0.00  0.00    -0.274 OA
ATOM     16  N   UNL     1       0.057  -6.008  -0.819  0.00  0.00    -0.297 N 
ATOM     17  H   UNL     1       0.915  -5.998  -0.368  0.00  0.00    +0.150 HD
BRANCH  16  18
ATOM     18  CA  UNL     1      -0.761  -7.224  -0.810  0.00  0.00    +0.217 C 
BRANCH  18  19
ATOM     19  C   UNL     1      -0.407  -8.059   0.394  0.00  0.00    -0.016 A 
ATOM     20  C   UNL     1       0.913  -8.174   0.790  0.00  0.00    +0.009 A 
ATOM     21  C   UNL     1       1.240  -8.939   1.892  0.00  0.00    +0.046 A 
ATOM     22  C   UNL     1       0.243  -9.592   2.603  0.00  0.00    +0.117 A 
ATOM     23  C   UNL     1      -1.080  -9.474   2.204  0.00  0.00    +0.046 A 
ATOM     24  C   UNL     1      -1.403  -8.704   1.104  0.00  0.00    +0.009 A 
BRANCH  22  25
ATOM     25  O   UNL     1       0.563 -10.345   3.688  0.00  0.00    -0.507 OA
ATOM     26  H   UNL     1       0.562  -9.855   4.521  0.00  0.00    +0.292 HD
ENDBRANCH  22  25
ENDBRANCH  18  19
BRANCH  18  27
ATOM     27  C   UNL     1      -0.499  -8.015  -2.065  0.00  0.00    +0.380 C 
ATOM     28  O   UNL     1       0.594  -7.960  -2.603  0.00  0.00    -0.244 OA
ATOM     29  OXT UNL     1      -1.379  -8.710  -2.543  0.00  0.00    -0.244 OA
ENDBRANCH  18  27
ENDBRANCH  16  18
ENDBRANCH   1  14
BRANCH   1  30
ATOM     30  C   UNL     1       0.691  -3.186  -0.024  0.00  0.00    +0.065 C 
BRANCH  30  37
ATOM     31  C   UNL     1      -0.016   1.348   0.009  0.00  0.00    +0.001 A 
ATOM     32  C   UNL     1       1.166   2.101   0.002  0.00  0.00    +0.002 A 
ATOM     33  C   UNL     1       2.391   1.535  -0.013  0.00  0.00    +0.026 A 
ATOM     34  C   UNL     1       2.529   0.120  -0.022  0.00  0.00    +0.043 A 
ATOM     35  N   UNL     1       3.587  -0.654  -0.037  0.00  0.00    -0.380 N 
ATOM     36  C   UNL     1       3.143  -2.053  -0.041  0.00  0.00    +0.144 C 
ATOM     37  C   UNL     1       1.631  -2.008  -0.025  0.00  0.00    -0.039 C 
ATOM     38  C   UNL     1       1.295  -0.698  -0.014  0.00  0.00    -0.001 A 
ATOM     39  C   UNL     1       0.002  -0.004   0.002  0.00  0.00    +0.010 A 
ATOM     40  H   UNL     1       4.509  -0.353  -0.045  0.00  0.00    +0.160 HD
ENDBRANCH  30  37
ENDBRANCH   1  30
TORSDOF 8
