REMARK  Name = ZINC32125474
REMARK  7 active torsions:
REMARK  status: ('A' for Active; 'I' for Inactive)
REMARK    1  A    between atoms: C_4  and  C_7
REMARK    2  A    between atoms: C_9  and  C_27
REMARK    3  A    between atoms: C_10  and  C_21
REMARK    4  A    between atoms: N_11  and  C_12
REMARK    5  A    between atoms: C_15  and  N_18
REMARK    6  A    between atoms: N_28  and  N_29
REMARK    7  A    between atoms: C_30  and  C_32
REMARK                            x       y       z     vdW  Elec       q    Type
REMARK                         _______ _______ _______ _____ _____    ______ ____
ROOT
ATOM      1  C   UNL     1      -0.984   2.573   1.506  0.00  0.00    +0.055 A 
ATOM      2  C   UNL     1      -0.462   1.316   1.216  0.00  0.00    +0.038 A 
ATOM      3  C   UNL     1       0.699   1.498   0.467  0.00  0.00    +0.021 A 
ATOM      4  C   UNL     1       0.867   2.968   0.315  0.00  0.00    +0.063 A 
ATOM      5  N   UNL     1      -0.175   3.554   0.965  0.00  0.00    -0.308 N 
ENDROOT
BRANCH   1   9
ATOM      6  C   UNL     1      -4.524   3.286   3.726  0.00  0.00    +0.000 A 
ATOM      7  C   UNL     1      -4.341   2.066   3.094  0.00  0.00    +0.001 A 
ATOM      8  C   UNL     1      -3.195   1.825   2.371  0.00  0.00    +0.010 A 
ATOM      9  C   UNL     1      -2.209   2.820   2.274  0.00  0.00    -0.001 A 
ATOM     10  C   UNL     1      -2.400   4.051   2.922  0.00  0.00    +0.010 A 
ATOM     11  C   UNL     1      -3.556   4.275   3.636  0.00  0.00    +0.001 A 
ENDBRANCH   1   9
BRANCH   5  12
ATOM     12  C   UNL     1      -0.396   4.933   1.065  0.00  0.00    +0.047 A 
ATOM     13  C   UNL     1       0.491   5.730   1.778  0.00  0.00    +0.028 A 
ATOM     14  C   UNL     1       0.273   7.091   1.870  0.00  0.00    +0.035 A 
ATOM     15  C   UNL     1      -0.832   7.658   1.263  0.00  0.00    +0.126 A 
ATOM     16  C   UNL     1      -1.720   6.867   0.558  0.00  0.00    +0.035 A 
ATOM     17  C   UNL     1      -1.505   5.506   0.457  0.00  0.00    +0.028 A 
BRANCH  15  18
ATOM     18  N   UNL     1      -1.066   9.116   1.369  0.00  0.00    +0.056 N 
ATOM     19  O   UNL     1      -2.118   9.658   0.791  0.00  0.00    -0.126 OA
ATOM     20  O   UNL     1      -0.221   9.871   2.040  0.00  0.00    -0.126 OA
ENDBRANCH  15  18
ENDBRANCH   5  12
BRANCH   4  21
ATOM     21  C   UNL     1       1.909   3.630  -0.372  0.00  0.00    -0.001 A 
ATOM     22  C   UNL     1       1.617   4.690  -1.255  0.00  0.00    +0.010 A 
ATOM     23  C   UNL     1       2.634   5.326  -1.909  0.00  0.00    +0.001 A 
ATOM     24  C   UNL     1       3.948   4.924  -1.718  0.00  0.00    +0.000 A 
ATOM     25  C   UNL     1       4.247   3.878  -0.856  0.00  0.00    +0.001 A 
ATOM     26  C   UNL     1       3.249   3.231  -0.186  0.00  0.00    +0.010 A 
ENDBRANCH   4  21
BRANCH   3  27
ATOM     27  C   UNL     1       1.543   0.493  -0.043  0.00  0.00    +0.140 C 
ATOM     28  N   UNL     1       1.169  -0.768   0.005  0.00  0.00    -0.187 NA
BRANCH  28  29
ATOM     29  N   UNL     1      -0.081  -1.066   0.115  0.00  0.00    -0.203 N 
ATOM     30  C   UNL     1      -0.454  -2.345   0.314  0.00  0.00    +0.265 C 
ATOM     31  O   UNL     1       0.389  -3.204   0.484  0.00  0.00    -0.268 OA
ATOM     32  H   UNL     1      -0.843  -0.275   0.045  0.00  0.00    +0.178 HD
BRANCH  30  33
ATOM     33  C   UNL     1      -1.887  -2.704   0.325  0.00  0.00    +0.056 A 
ATOM     34  C   UNL     1      -2.292  -4.008   0.638  0.00  0.00    +0.016 A 
ATOM     35  C   UNL     1      -3.647  -4.291   0.640  0.00  0.00    +0.020 A 
ATOM     36  C   UNL     1      -4.548  -3.289   0.326  0.00  0.00    +0.111 A 
ATOM     37  N   UNL     1      -4.137  -2.071   0.030  0.00  0.00    -0.263 NA
ATOM     38  C   UNL     1      -2.860  -1.751   0.019  0.00  0.00    +0.123 A 
ENDBRANCH  30  33
ENDBRANCH  28  29
ENDBRANCH   3  27
TORSDOF 7
