REMARK  Name = ZINC62960566
REMARK  4 active torsions:
REMARK  status: ('A' for Active; 'I' for Inactive)
REMARK    1  A    between atoms: C_1  and  C_2
REMARK    2  A    between atoms: C_2  and  C_4
REMARK    3  A    between atoms: C_2  and  C_8
REMARK    4  A    between atoms: N_5  and  O_6
REMARK                            x       y       z     vdW  Elec       q    Type
REMARK                         _______ _______ _______ _____ _____    ______ ____
ROOT
ATOM      1  C   UNL     1       0.810  -0.560   1.146  0.00  0.00    +0.226 C 
ATOM      2  O   UNL     1       1.826  -1.185   0.924  0.00  0.00    -0.275 OA
ATOM      3  N   UNL     1       0.404  -0.363   2.416  0.00  0.00    -0.301 N 
ATOM      4  C   UNL     1      -0.881   0.290   2.698  0.00  0.00    +0.108 C 
ATOM      5  C   UNL     1      -0.636   1.476   3.638  0.00  0.00    +0.026 C 
ATOM      6  C   UNL     1       0.119   0.994   4.875  0.00  0.00    -0.026 C 
ATOM      7  C   UNL     1       0.330   2.163   5.849  0.00  0.00    +0.007 C 
ATOM      8  C   UNL     1      -0.391   1.778   7.158  0.00  0.00    +0.001 C 
ATOM      9  C   UNL     1      -0.454   0.230   7.117  0.00  0.00    +0.001 C 
ATOM     10  C   UNL     1      -0.720  -0.062   5.618  0.00  0.00    +0.007 C 
ATOM     11  C   UNL     1       1.467   0.397   4.477  0.00  0.00    +0.026 C 
ATOM     12  C   UNL     1       1.236  -0.803   3.544  0.00  0.00    +0.108 C 
ENDROOT
BRANCH   1  14
ATOM     13  C   UNL     1       0.370   1.465  -0.216  0.00  0.00    +0.025 C 
ATOM     14  C   UNL     1       0.002  -0.004   0.002  0.00  0.00    +0.138 C 
BRANCH  14  15
ATOM     15  C   UNL     1       0.299  -0.788  -1.250  0.00  0.00    +0.143 C 
ATOM     16  N   UNL     1       1.193  -0.364  -2.081  0.00  0.00    -0.076 NA
ATOM     17  N   UNL     1      -0.383  -1.956  -1.509  0.00  0.00    -0.343 N 
ATOM     18  H   UNL     1      -1.054  -2.275  -0.886  0.00  0.00    +0.144 HD
ATOM     19  H   UNL     1      -0.192  -2.461  -2.315  0.00  0.00    +0.144 HD
BRANCH  16  20
ATOM     20  O   UNL     1       1.472  -1.101  -3.257  0.00  0.00    -0.408 OA
ATOM     21  H   UNL     1       2.156  -0.706  -3.816  0.00  0.00    +0.328 HD
ENDBRANCH  16  20
ENDBRANCH  14  15
ENDBRANCH   1  14
TORSDOF 3
