REMARK  Name = ZINC20243649
REMARK  13 active torsions:
REMARK  status: ('A' for Active; 'I' for Inactive)
REMARK    1  A    between atoms: C_1  and  C_2
REMARK    2  A    between atoms: C_6  and  C_32
REMARK    3  A    between atoms: C_7  and  N_8
REMARK    4  A    between atoms: C_9  and  C_31
REMARK    5  A    between atoms: C_10  and  C_15
REMARK    6  A    between atoms: C_12  and  C_13
REMARK    7  A    between atoms: N_16  and  N_17
REMARK    8  A    between atoms: C_18  and  C_20
REMARK    9  A    between atoms: C_20  and  S_21
REMARK   10  A    between atoms: S_21  and  C_22
REMARK   11  A    between atoms: C_22  and  C_23
REMARK   12  A    between atoms: C_25  and  C_30
REMARK   13  A    between atoms: C_27  and  C_29
REMARK                            x       y       z     vdW  Elec       q    Type
REMARK                         _______ _______ _______ _____ _____    ______ ____
ROOT
ATOM      1  C   UNL     1       1.628   1.631   5.247  0.00  0.00    +0.141 C 
ATOM      2  N   UNL     1       1.111   2.209   6.288  0.00  0.00    -0.188 NA
ENDROOT
BRANCH   1   5
ATOM      3  N   UNL     1       0.026  -0.013   2.419  0.00  0.00    -0.315 N 
ATOM      4  C   UNL     1       1.141   0.391   3.084  0.00  0.00    +0.031 A 
ATOM      5  C   UNL     1       0.751   1.030   4.226  0.00  0.00    +0.030 A 
ATOM      6  C   UNL     1      -0.715   0.999   4.234  0.00  0.00    +0.048 A 
ATOM      7  C   UNL     1      -1.092   0.359   3.111  0.00  0.00    +0.036 A 
ATOM      8  C   UNL     1      -2.514   0.094   2.688  0.00  0.00    +0.065 C 
ATOM      9 BR   UNL     1      -1.854   1.723   5.558  0.00  0.00    -0.048 Br
ATOM     10  C   UNL     1       2.564   0.172   2.637  0.00  0.00    +0.064 C 
BRANCH   3  17
ATOM     11  C   UNL     1      -0.018   1.503   0.010  0.00  0.00    +0.046 C 
ATOM     12  C   UNL     1       0.002  -0.004   0.002  0.00  0.00    -0.026 A 
ATOM     13  C   UNL     1       0.006  -0.689  -1.198  0.00  0.00    +0.005 A 
ATOM     14  C   UNL     1       0.024  -2.071  -1.206  0.00  0.00    +0.001 A 
ATOM     15  C   UNL     1       0.039  -2.773  -0.014  0.00  0.00    +0.005 A 
ATOM     16  C   UNL     1       0.035  -2.094   1.188  0.00  0.00    -0.026 A 
ATOM     17  C   UNL     1       0.023  -0.705   1.200  0.00  0.00    +0.052 A 
ATOM     18  C   UNL     1       0.051  -2.859   2.487  0.00  0.00    +0.046 C 
ENDBRANCH   3  17
ENDBRANCH   1   5
BRANCH   2  19
ATOM     19  N   UNL     1       1.944   2.780   7.258  0.00  0.00    -0.206 N 
ATOM     20  C   UNL     1       1.407   3.381   8.339  0.00  0.00    +0.242 C 
ATOM     21  O   UNL     1       0.202   3.427   8.471  0.00  0.00    -0.273 OA
ATOM     22  H   UNL     1       2.908   2.743   7.153  0.00  0.00    +0.177 HD
BRANCH  20  23
ATOM     23  C   UNL     1       2.304   3.995   9.383  0.00  0.00    +0.166 C 
BRANCH  23  24
ATOM     24  S   UNL     1       1.289   4.719  10.701  0.00  0.00    -0.147 S 
BRANCH  24  25
ATOM     25  C   UNL     1       2.503   5.406  11.861  0.00  0.00    +0.104 C 
BRANCH  25  26
ATOM     26  C   UNL     1       1.783   6.047  13.020  0.00  0.00    -0.037 A 
ATOM     27  C   UNL     1       1.423   7.380  12.958  0.00  0.00    +0.007 A 
ATOM     28  C   UNL     1       0.763   7.967  14.021  0.00  0.00    -0.050 A 
ATOM     29  C   UNL     1       0.462   7.222  15.146  0.00  0.00    +0.006 A 
ATOM     30  C   UNL     1       0.821   5.888  15.207  0.00  0.00    -0.050 A 
ATOM     31  C   UNL     1       1.478   5.300  14.142  0.00  0.00    +0.007 A 
ATOM     32  C   UNL     1       0.494   5.075  16.433  0.00  0.00    +0.044 C 
ATOM     33  C   UNL     1       0.371   9.421  13.954  0.00  0.00    +0.044 C 
ENDBRANCH  25  26
ENDBRANCH  24  25
ENDBRANCH  23  24
ENDBRANCH  20  23
ENDBRANCH   2  19
TORSDOF 7
