REMARK  Name = ZINC03085242
REMARK  9 active torsions:
REMARK  status: ('A' for Active; 'I' for Inactive)
REMARK    1  A    between atoms: C_4  and  C_7
REMARK    2  A    between atoms: C_7  and  C_8
REMARK    3  A    between atoms: C_8  and  N_9
REMARK    4  A    between atoms: C_10  and  C_11
REMARK    5  A    between atoms: C_14  and  O_20
REMARK    6  A    between atoms: C_15  and  N_17
REMARK    7  A    between atoms: O_20  and  C_21
REMARK    8  A    between atoms: C_21  and  C_23
REMARK    9  A    between atoms: C_24  and  C_25
REMARK                            x       y       z     vdW  Elec       q    Type
REMARK                         _______ _______ _______ _____ _____    ______ ____
ROOT
ATOM      1  C   UNL     1       1.176   2.086   0.004  0.00  0.00    -0.007 A 
ATOM      2  C   UNL     1       2.384   1.401  -0.157  0.00  0.00    +0.013 A 
ATOM      3  C   UNL     1       2.396   0.024  -0.165  0.00  0.00    +0.049 A 
ATOM      4  C   UNL     1       1.210  -0.684  -0.013  0.00  0.00    +0.162 A 
ATOM      5  C   UNL     1       0.008  -0.007   0.147  0.00  0.00    +0.169 A 
ATOM      6  C   UNL     1      -0.014   1.370   0.156  0.00  0.00    +0.045 A 
ENDROOT
BRANCH   1   8
ATOM      7  N   UNL     1       2.261   4.223  -0.130  0.00  0.00    -0.389 N 
ATOM      8  C   UNL     1       1.158   3.561   0.012  0.00  0.00    +0.086 C 
ATOM      9  H   UNL     1       3.212   3.685  -0.256  0.00  0.00    +0.159 HD
BRANCH   7  10
ATOM     10  C   UNL     1       2.242   5.687  -0.121  0.00  0.00    +0.117 C 
BRANCH  10  11
ATOM     11  C   UNL     1       3.010   6.200   1.099  0.00  0.00    +0.056 C 
BRANCH  11  15
ATOM     12  C   UNL     1       2.956  10.472   1.123  0.00  0.00    +0.000 A 
ATOM     13  C   UNL     1       1.955   9.764   1.761  0.00  0.00    +0.000 A 
ATOM     14  C   UNL     1       1.972   8.382   1.753  0.00  0.00    +0.004 A 
ATOM     15  C   UNL     1       2.991   7.707   1.107  0.00  0.00    -0.046 A 
ATOM     16  C   UNL     1       3.995   8.414   0.474  0.00  0.00    +0.004 A 
ATOM     17  C   UNL     1       3.975   9.797   0.477  0.00  0.00    +0.000 A 
ENDBRANCH  11  15
ENDBRANCH  10  11
ENDBRANCH   7  10
ENDBRANCH   1   8
BRANCH   5  18
ATOM     18  N   UNL     1      -1.252  -0.767   0.309  0.00  0.00    +0.060 N 
ATOM     19  O   UNL     1      -2.307  -0.175   0.449  0.00  0.00    -0.126 OA
ATOM     20  O   UNL     1      -1.234  -1.985   0.301  0.00  0.00    -0.126 OA
ENDBRANCH   5  18
BRANCH   4  21
ATOM     21  O   UNL     1       1.227  -2.042  -0.021  0.00  0.00    -0.420 OA
BRANCH  21  22
ATOM     22  C   UNL     1       1.016  -2.671  -1.196  0.00  0.00    +0.337 C 
ATOM     23  O   UNL     1       0.911  -2.026  -2.221  0.00  0.00    -0.245 OA
BRANCH  22  24
ATOM     24  C   UNL     1       0.913  -4.129  -1.236  0.00  0.00    +0.092 C 
ATOM     25  C   UNL     1       0.701  -4.758  -2.411  0.00  0.00    +0.015 C 
BRANCH  25  26
ATOM     26  C   UNL     1       0.597  -6.225  -2.451  0.00  0.00    -0.025 A 
ATOM     27  C   UNL     1       0.723  -6.971  -1.275  0.00  0.00    +0.009 A 
ATOM     28  C   UNL     1       0.619  -8.345  -1.320  0.00  0.00    +0.016 A 
ATOM     29  C   UNL     1       0.401  -8.988  -2.527  0.00  0.00    +0.018 A 
ATOM     30  C   UNL     1       0.282  -8.256  -3.697  0.00  0.00    +0.016 A 
ATOM     31  C   UNL     1       0.378  -6.881  -3.667  0.00  0.00    +0.009 A 
ATOM     32 BR   UNL     1       0.268 -10.873  -2.579  0.00  0.00    -0.050 Br
ENDBRANCH  25  26
ENDBRANCH  22  24
ENDBRANCH  21  22
ENDBRANCH   4  21
TORSDOF 9
