REMARK  Name = ZINC15913429
REMARK  10 active torsions:
REMARK  status: ('A' for Active; 'I' for Inactive)
REMARK    1  A    between atoms: C_1  and  C_2
REMARK    2  A    between atoms: C_5  and  C_8
REMARK    3  A    between atoms: N_12  and  C_13
REMARK    4  A    between atoms: C_15  and  C_20
REMARK    5  A    between atoms: C_18  and  C_19
REMARK    6  A    between atoms: N_21  and  N_22
REMARK    7  A    between atoms: C_23  and  C_24
REMARK    8  A    between atoms: C_26  and  C_37
REMARK    9  A    between atoms: N_27  and  C_30
REMARK   10  A    between atoms: C_28  and  C_29
REMARK                            x       y       z     vdW  Elec       q    Type
REMARK                         _______ _______ _______ _____ _____    ______ ____
ROOT
ATOM      1  C   UNL     1       0.276   2.106  -0.917  0.00  0.00    +0.082 A 
ATOM      2  C   UNL     1       1.579   2.393  -0.713  0.00  0.00    +0.077 A 
ATOM      3  S   UNL     1       2.320   0.769  -0.670  0.00  0.00    -0.058 S 
ATOM      4  C   UNL     1       0.834  -0.188  -0.929  0.00  0.00    +0.173 A 
ATOM      5  N   UNL     1       0.688  -1.497  -1.004  0.00  0.00    -0.334 N 
ATOM      6  N   UNL     1      -0.119   0.801  -1.029  0.00  0.00    -0.209 N 
ATOM      7  H   UNL     1       1.554  -2.157  -0.847  0.00  0.00    +0.168 HD
ENDROOT
BRANCH   5   8
ATOM      8  C   UNL     1      -0.539  -2.034  -1.277  0.00  0.00    +0.044 A 
ATOM      9  C   UNL     1      -0.984  -2.133  -2.598  0.00  0.00    +0.029 A 
ATOM     10  C   UNL     1      -2.221  -2.680  -2.866  0.00  0.00    -0.048 A 
ATOM     11  C   UNL     1      -3.026  -3.120  -1.830  0.00  0.00    +0.004 A 
ATOM     12  C   UNL     1      -2.595  -3.020  -0.519  0.00  0.00    +0.005 A 
ATOM     13  C   UNL     1      -1.357  -2.480  -0.236  0.00  0.00    -0.027 A 
ATOM     14  C   UNL     1      -0.889  -2.373   1.192  0.00  0.00    +0.046 C 
ATOM     15  C   UNL     1      -2.700  -2.793  -4.290  0.00  0.00    +0.044 C 
ENDBRANCH   5   8
BRANCH   1  20
ATOM     16  C   UNL     1      -3.592   6.346  -1.336  0.00  0.00    +0.044 C 
ATOM     17  C   UNL     1      -2.579   5.236  -1.227  0.00  0.00    -0.050 A 
ATOM     18  C   UNL     1      -1.336   5.376  -1.818  0.00  0.00    +0.004 A 
ATOM     19  C   UNL     1      -0.404   4.364  -1.721  0.00  0.00    +0.010 A 
ATOM     20  C   UNL     1      -0.718   3.195  -1.025  0.00  0.00    +0.001 A 
ATOM     21  C   UNL     1      -1.976   3.057  -0.436  0.00  0.00    +0.010 A 
ATOM     22  C   UNL     1      -2.896   4.080  -0.535  0.00  0.00    +0.004 A 
ENDBRANCH   1  20
BRANCH   6  23
ATOM     23  N   UNL     1      -1.465   0.477  -1.241  0.00  0.00    -0.172 NA
ATOM     24  C   UNL     1      -2.114   1.015  -2.229  0.00  0.00    +0.143 C 
BRANCH  24  25
ATOM     25  C   UNL     1      -3.567   0.803  -2.358  0.00  0.00    +0.016 A 
ATOM     26  C   UNL     1      -4.424   1.236  -3.467  0.00  0.00    +0.032 A 
ATOM     27  C   UNL     1      -5.672   0.830  -3.169  0.00  0.00    +0.022 A 
ATOM     28  N   UNL     1      -5.652   0.191  -1.963  0.00  0.00    -0.317 N 
ATOM     29  C   UNL     1      -4.386   0.171  -1.467  0.00  0.00    +0.030 A 
ATOM     30  C   UNL     1      -3.959  -0.444  -0.159  0.00  0.00    +0.064 C 
ATOM     31  C   UNL     1      -6.892   1.049  -4.026  0.00  0.00    +0.064 C 
BRANCH  28  32
ATOM     32  C   UNL     1      -6.773  -0.364  -1.329  0.00  0.00    +0.047 A 
ATOM     33  C   UNL     1      -6.855  -1.737  -1.138  0.00  0.00    +0.027 A 
ATOM     34  C   UNL     1      -7.958  -2.280  -0.508  0.00  0.00    +0.022 A 
ATOM     35  C   UNL     1      -8.985  -1.459  -0.077  0.00  0.00    +0.041 A 
ATOM     36  C   UNL     1      -8.908  -0.091  -0.272  0.00  0.00    +0.022 A 
ATOM     37  C   UNL     1      -7.805   0.458  -0.896  0.00  0.00    +0.027 A 
ATOM     38 CL   UNL     1     -10.372  -2.146   0.708  0.00  0.00    -0.084 Cl
ENDBRANCH  28  32
ENDBRANCH  24  25
ENDBRANCH   6  23
TORSDOF 5
