REMARK  Name = ZINC02224475
REMARK  8 active torsions:
REMARK  status: ('A' for Active; 'I' for Inactive)
REMARK    1  A    between atoms: C_1  and  C_2
REMARK    2  A    between atoms: C_2  and  C_29
REMARK    3  A    between atoms: C_9  and  S_15
REMARK    4  A    between atoms: C_11  and  S_13
REMARK    5  A    between atoms: S_13  and  C_14
REMARK    6  A    between atoms: S_15  and  C_16
REMARK    7  A    between atoms: C_16  and  C_17
REMARK    8  A    between atoms: N_19  and  C_20
REMARK                            x       y       z     vdW  Elec       q    Type
REMARK                         _______ _______ _______ _____ _____    ______ ____
ROOT
ATOM      1  C   UNL     1       5.619   3.170  -1.972  0.00  0.00    +0.041 C 
ATOM      2  C   UNL     1       5.876   2.871  -0.494  0.00  0.00    +0.068 C 
ATOM      3  C   UNL     1       4.971   1.722  -0.042  0.00  0.00    +0.071 C 
ATOM      4  C   UNL     1       3.533   2.235  -0.015  0.00  0.00    -0.020 A 
ATOM      5  C   UNL     1       3.300   3.565  -0.005  0.00  0.00    +0.021 A 
ATOM      6  S   UNL     1       1.538   3.726   0.025  0.00  0.00    -0.071 S 
ATOM      7  C   UNL     1       1.113   2.003   0.025  0.00  0.00    +0.114 A 
ATOM      8  C   UNL     1       2.366   1.356   0.001  0.00  0.00    +0.043 A 
ATOM      9  C   UNL     1       2.320  -0.067  -0.006  0.00  0.00    +0.110 A 
ATOM     10  N   UNL     1       1.146  -0.677   0.010  0.00  0.00    -0.215 NA
ATOM     11  C   UNL     1       0.002  -0.005   0.033  0.00  0.00    +0.190 A 
ATOM     12  N   UNL     1      -0.016   1.322   0.040  0.00  0.00    -0.215 NA
ATOM     13  C   UNL     1       4.337   4.646  -0.017  0.00  0.00    +0.203 C 
ATOM     14  O   UNL     1       5.607   4.043   0.280  0.00  0.00    -0.368 OA
ATOM     15  C   UNL     1       7.339   2.464  -0.306  0.00  0.00    +0.041 C 
ENDROOT
BRANCH  11  16
ATOM     16  S   UNL     1      -1.521  -0.890   0.053  0.00  0.00    -0.089 S 
ATOM     17  C   UNL     1      -0.897  -2.589   0.033  0.00  0.00    +0.093 C 
ENDBRANCH  11  16
BRANCH   9  18
ATOM     18  S   UNL     1       3.811  -1.006  -0.036  0.00  0.00    -0.096 S 
BRANCH  18  19
ATOM     19  C   UNL     1       3.127  -2.682  -0.035  0.00  0.00    +0.171 C 
BRANCH  19  20
ATOM     20  C   UNL     1       4.253  -3.684  -0.059  0.00  0.00    +0.227 C 
ATOM     21  O   UNL     1       5.404  -3.302  -0.076  0.00  0.00    -0.275 OA
ATOM     22  N   UNL     1       3.981  -5.003  -0.062  0.00  0.00    -0.285 N 
ATOM     23  H   UNL     1       3.064  -5.310   0.019  0.00  0.00    +0.155 HD
BRANCH  22  24
ATOM     24  C   UNL     1       5.021  -5.932  -0.183  0.00  0.00    +0.033 A 
ATOM     25  C   UNL     1       4.818  -7.117  -0.879  0.00  0.00    +0.024 A 
ATOM     26  C   UNL     1       5.848  -8.029  -1.001  0.00  0.00    +0.017 A 
ATOM     27  C   UNL     1       7.077  -7.769  -0.420  0.00  0.00    +0.018 A 
ATOM     28  C   UNL     1       7.279  -6.593   0.279  0.00  0.00    +0.017 A 
ATOM     29  C   UNL     1       6.255  -5.674   0.399  0.00  0.00    +0.024 A 
ATOM     30 BR   UNL     1       8.482  -9.024  -0.584  0.00  0.00    -0.050 Br
ENDBRANCH  22  24
ENDBRANCH  19  20
ENDBRANCH  18  19
ENDBRANCH   9  18
TORSDOF 5
