REMARK  Name = ZINC09382260
REMARK  10 active torsions:
REMARK  status: ('A' for Active; 'I' for Inactive)
REMARK    1  A    between atoms: C_1  and  O_2
REMARK    2  A    between atoms: O_2  and  C_3
REMARK    3  A    between atoms: C_7  and  C_11
REMARK    4  A    between atoms: C_8  and  O_9
REMARK    5  A    between atoms: O_9  and  C_10
REMARK    6  A    between atoms: C_14  and  C_24
REMARK    7  A    between atoms: C_17  and  C_19
REMARK    8  A    between atoms: C_28  and  N_30
REMARK    9  A    between atoms: N_30  and  S_31
REMARK   10  A    between atoms: S_31  and  C_34
REMARK                            x       y       z     vdW  Elec       q    Type
REMARK                         _______ _______ _______ _____ _____    ______ ____
ROOT
ATOM      1  C   UNL     1       3.709  -0.723  -0.038  0.00  0.00    +0.141 C 
ATOM      2  C   UNL     1       4.203  -0.985   1.399  0.00  0.00    +0.087 C 
ATOM      3  C   UNL     1       4.252  -2.492   1.499  0.00  0.00    +0.069 C 
ATOM      4  N   UNL     1       3.875  -3.010   0.381  0.00  0.00    -0.181 NA
ATOM      5  N   UNL     1       3.533  -2.074  -0.593  0.00  0.00    -0.181 N 
ATOM      6  C   UNL     1       3.109  -2.360  -1.840  0.00  0.00    +0.273 C 
ATOM      7  O   UNL     1       2.836  -1.459  -2.612  0.00  0.00    -0.268 OA
ENDROOT
BRANCH   1  12
ATOM      8  C   UNL     1       1.174   2.087   0.002  0.00  0.00    +0.162 A 
ATOM      9  C   UNL     1      -0.017   1.378   0.010  0.00  0.00    +0.049 A 
ATOM     10  C   UNL     1       0.002  -0.004   0.002  0.00  0.00    +0.004 A 
ATOM     11  C   UNL     1       1.207  -0.682  -0.013  0.00  0.00    +0.009 A 
ATOM     12  C   UNL     1       2.398   0.019  -0.021  0.00  0.00    +0.021 A 
ATOM     13  C   UNL     1       2.386   1.405  -0.014  0.00  0.00    +0.166 A 
BRANCH   8  15
ATOM     14  C   UNL     1      -0.124   4.080   0.024  0.00  0.00    +0.277 C 
ATOM     15  O   UNL     1       1.157   3.447   0.009  0.00  0.00    -0.491 OA
ENDBRANCH   8  15
BRANCH  13  16
ATOM     16  O   UNL     1       3.557   2.096  -0.022  0.00  0.00    -0.491 OA
ATOM     17  C   UNL     1       4.103   2.433  -1.299  0.00  0.00    +0.277 C 
ENDBRANCH  13  16
ENDBRANCH   1  12
BRANCH   3  18
ATOM     18  C   UNL     1       4.666  -3.253   2.692  0.00  0.00    -0.000 A 
ATOM     19  C   UNL     1       5.057  -2.580   3.853  0.00  0.00    +0.010 A 
ATOM     20  C   UNL     1       5.444  -3.295   4.967  0.00  0.00    +0.002 A 
ATOM     21  C   UNL     1       5.447  -4.677   4.942  0.00  0.00    +0.024 A 
ATOM     22  C   UNL     1       5.061  -5.357   3.793  0.00  0.00    +0.048 A 
ATOM     23  C   UNL     1       4.665  -4.649   2.668  0.00  0.00    +0.034 A 
BRANCH  22  24
ATOM     24  N   UNL     1       5.066  -6.754   3.773  0.00  0.00    -0.221 N 
ATOM     25  H   UNL     1       5.438  -7.226   3.012  0.00  0.00    +0.173 HD
BRANCH  24  26
ATOM     26  S   UNL     1       4.437  -7.602   5.048  0.00  0.00    +0.040 S 
ATOM     27  O   UNL     1       4.628  -8.968   4.705  0.00  0.00    -0.155 OA
ATOM     28  O   UNL     1       5.065  -7.049   6.197  0.00  0.00    -0.155 OA
ATOM     29  C   UNL     1       2.668  -7.200   5.049  0.00  0.00    +0.218 C 
ENDBRANCH  24  26
ENDBRANCH  22  24
ENDBRANCH   3  18
BRANCH   6  30
ATOM     30  C   UNL     1       2.976  -3.755  -2.267  0.00  0.00    +0.076 A 
ATOM     31  C   UNL     1       2.557  -4.260  -3.489  0.00  0.00    +0.021 A 
ATOM     32  C   UNL     1       2.530  -5.625  -3.625  0.00  0.00    +0.008 A 
ATOM     33  C   UNL     1       2.896  -6.404  -2.574  0.00  0.00    +0.046 A 
ATOM     34  S   UNL     1       3.305  -5.249  -1.348  0.00  0.00    -0.092 S 
ENDBRANCH   6  30
TORSDOF 7
