REMARK  Name = ZINC33807243
REMARK  6 active torsions:
REMARK  status: ('A' for Active; 'I' for Inactive)
REMARK    1  A    between atoms: C_1  and  C_2
REMARK    2  A    between atoms: C_5  and  N_8
REMARK    3  A    between atoms: N_8  and  C_9
REMARK    4  A    between atoms: C_10  and  C_20
REMARK    5  A    between atoms: N_24  and  C_28
REMARK    6  A    between atoms: C_28  and  C_29
REMARK                            x       y       z     vdW  Elec       q    Type
REMARK                         _______ _______ _______ _____ _____    ______ ____
ROOT
ATOM      1  C   UNL     1      -1.142   3.378  -1.251  0.00  0.00    +0.134 A 
ATOM      2  C   UNL     1      -2.013   3.731  -2.309  0.00  0.00    +0.081 A 
ATOM      3  C   UNL     1      -2.813   4.889  -2.162  0.00  0.00    +0.267 A 
ATOM      4  O   UNL     1      -3.580   5.228  -3.047  0.00  0.00    -0.267 OA
ATOM      5  N   UNL     1      -2.709   5.614  -1.028  0.00  0.00    -0.268 N 
ATOM      6  C   UNL     1      -3.473   6.734  -0.880  0.00  0.00    +0.096 A 
ATOM      7  C   UNL     1      -3.393   7.483   0.243  0.00  0.00    +0.018 A 
ATOM      8  C   UNL     1      -2.518   7.113   1.274  0.00  0.00    +0.005 A 
ATOM      9  C   UNL     1      -1.750   5.995   1.135  0.00  0.00    +0.047 A 
ATOM     10  C   UNL     1      -1.847   5.229  -0.040  0.00  0.00    +0.142 A 
ATOM     11  N   UNL     1      -1.092   4.137  -0.166  0.00  0.00    -0.214 NA
ENDROOT
BRANCH   2  12
ATOM     12  C   UNL     1      -2.085   2.944  -3.482  0.00  0.00    +0.037 C 
ATOM     13  C   UNL     1      -1.659   3.455  -4.674  0.00  0.00    +0.077 C 
ATOM     14  C   UNL     1      -1.020   4.698  -4.950  0.00  0.00    +0.259 C 
ATOM     15  O   UNL     1      -0.776   5.489  -4.056  0.00  0.00    -0.269 OA
ATOM     16  N   UNL     1      -0.701   4.968  -6.204  0.00  0.00    -0.251 N 
ATOM     17  C   UNL     1      -0.972   4.090  -7.195  0.00  0.00    +0.121 C 
ATOM     18  S   UNL     1      -0.650   4.230  -8.871  0.00  0.00    -0.027 S 
ATOM     19  S   UNL     1      -1.744   2.743  -6.311  0.00  0.00    -0.061 S 
BRANCH  16  20
ATOM     20  C   UNL     1      -0.043   6.238  -6.523  0.00  0.00    +0.150 C 
BRANCH  20  21
ATOM     21  C   UNL     1       1.452   6.064  -6.440  0.00  0.00    -0.029 A 
ATOM     22  C   UNL     1       2.109   6.296  -5.246  0.00  0.00    +0.008 A 
ATOM     23  C   UNL     1       3.479   6.131  -5.168  0.00  0.00    +0.038 A 
ATOM     24  C   UNL     1       4.195   5.745  -6.289  0.00  0.00    +0.123 A 
ATOM     25  C   UNL     1       3.536   5.519  -7.485  0.00  0.00    +0.038 A 
ATOM     26  C   UNL     1       2.165   5.678  -7.560  0.00  0.00    +0.008 A 
ATOM     27  F   UNL     1       5.535   5.590  -6.215  0.00  0.00    -0.205 F 
ENDBRANCH  20  21
ENDBRANCH  16  20
ENDBRANCH   2  12
BRANCH   1  28
ATOM     28  N   UNL     1      -0.348   2.256  -1.351  0.00  0.00    -0.326 N 
ATOM     29  H   UNL     1      -0.394   1.629  -2.253  0.00  0.00    +0.148 HD
BRANCH  28  34
ATOM     30  C   UNL     1       3.447   0.429  -3.120  0.00  0.00    +0.007 C 
ATOM     31  C   UNL     1       2.798   0.795  -1.783  0.00  0.00    -0.014 C 
ATOM     32  C   UNL     1       1.482   0.029  -1.629  0.00  0.00    +0.005 C 
ATOM     33  C   UNL     1       0.833   0.395  -0.293  0.00  0.00    +0.022 C 
ATOM     34  C   UNL     1       0.556   1.899  -0.255  0.00  0.00    +0.072 C 
ATOM     35  C   UNL     1       1.871   2.664  -0.409  0.00  0.00    +0.022 C 
ATOM     36  C   UNL     1       2.521   2.299  -1.746  0.00  0.00    +0.005 C 
ENDBRANCH  28  34
ENDBRANCH   1  28
TORSDOF 5
