REMARK  Name = ZINC52468136
REMARK  7 active torsions:
REMARK  status: ('A' for Active; 'I' for Inactive)
REMARK    1  A    between atoms: C_1  and  C_2
REMARK    2  A    between atoms: C_2  and  O_3
REMARK    3  A    between atoms: O_3  and  C_4
REMARK    4  A    between atoms: C_4  and  C_5
REMARK    5  A    between atoms: C_10  and  N_11
REMARK    6  A    between atoms: N_17  and  C_20
REMARK    7  A    between atoms: C_20  and  C_21
REMARK                            x       y       z     vdW  Elec       q    Type
REMARK                         _______ _______ _______ _____ _____    ______ ____
ROOT
ATOM      1  N   UNL     1       1.194  -4.600  -2.017  0.00  0.00    -0.269 N 
ATOM      2  C   UNL     1       1.292  -5.894  -2.380  0.00  0.00    +0.307 C 
ATOM      3  O   UNL     1       1.871  -6.196  -3.405  0.00  0.00    -0.252 OA
ATOM      4  N   UNL     1       0.748  -6.854  -1.605  0.00  0.00    -0.283 N 
ATOM      5  C   UNL     1      -0.057  -6.506  -0.425  0.00  0.00    +0.124 C 
ATOM      6  C   UNL     1       0.480  -7.288   0.778  0.00  0.00    +0.104 C 
ATOM      7  N   UNL     1       0.516  -8.720   0.452  0.00  0.00    -0.294 NA
ATOM      8  C   UNL     1       1.442  -8.990  -0.656  0.00  0.00    +0.104 C 
ATOM      9  C   UNL     1       0.939  -8.278  -1.922  0.00  0.00    +0.124 C 
ATOM     10  H   UNL     1       0.775  -4.363  -1.174  0.00  0.00    +0.156 HD
ENDROOT
BRANCH   1  16
ATOM     11  C   UNL     1       1.135  -2.328  -2.834  0.00  0.00    -0.001 A 
ATOM     12  C   UNL     1       1.637  -1.340  -3.659  0.00  0.00    +0.008 A 
ATOM     13  C   UNL     1       2.693  -1.616  -4.508  0.00  0.00    +0.000 A 
ATOM     14  C   UNL     1       3.250  -2.882  -4.535  0.00  0.00    +0.002 A 
ATOM     15  C   UNL     1       2.753  -3.874  -3.713  0.00  0.00    +0.024 A 
ATOM     16  C   UNL     1       1.696  -3.598  -2.855  0.00  0.00    +0.040 A 
BRANCH  11  17
ATOM     17  C   UNL     1      -0.016  -2.026  -1.910  0.00  0.00    +0.196 C 
BRANCH  17  18
ATOM     18  O   UNL     1      -0.413  -0.663  -2.073  0.00  0.00    -0.375 OA
BRANCH  18  20
ATOM     19  C   UNL     1      -1.842   1.198  -1.494  0.00  0.00    +0.034 C 
ATOM     20  C   UNL     1      -1.504  -0.272  -1.237  0.00  0.00    +0.157 C 
ENDBRANCH  18  20
ENDBRANCH  17  18
ENDBRANCH  11  17
ENDBRANCH   1  16
BRANCH   7  21
ATOM     21  C   UNL     1       0.861  -9.521   1.634  0.00  0.00    +0.139 C 
BRANCH  21  22
ATOM     22  C   UNL     1       0.651 -10.982   1.329  0.00  0.00    +0.048 A 
ATOM     23  C   UNL     1      -0.465 -11.692   1.605  0.00  0.00    +0.115 A 
ATOM     24  N   UNL     1      -0.248 -12.971   1.170  0.00  0.00    -0.308 N 
ATOM     25  C   UNL     1      -1.020 -14.096   1.190  0.00  0.00    +0.092 A 
ATOM     26  C   UNL     1      -0.556 -15.257   0.682  0.00  0.00    +0.018 A 
ATOM     27  C   UNL     1       0.732 -15.322   0.125  0.00  0.00    +0.005 A 
ATOM     28  C   UNL     1       1.512 -14.208   0.099  0.00  0.00    +0.045 A 
ATOM     29  C   UNL     1       1.013 -13.003   0.633  0.00  0.00    +0.115 A 
ATOM     30  N   UNL     1       1.534 -11.789   0.736  0.00  0.00    -0.342 N 
ATOM     31  H   UNL     1       2.417 -11.528   0.431  0.00  0.00    +0.167 HD
ENDBRANCH  21  22
ENDBRANCH   7  21
TORSDOF 6
