REMARK  Name = ZINC63142033
REMARK  6 active torsions:
REMARK  status: ('A' for Active; 'I' for Inactive)
REMARK    1  A    between atoms: C_4  and  C_7
REMARK    2  A    between atoms: C_7  and  C_9
REMARK    3  A    between atoms: C_7  and  O_41
REMARK    4  A    between atoms: C_9  and  N_10
REMARK    5  A    between atoms: C_30  and  C_32
REMARK    6  A    between atoms: C_36  and  N_38
REMARK                            x       y       z     vdW  Elec       q    Type
REMARK                         _______ _______ _______ _____ _____    ______ ____
ROOT
ATOM      1  N   UNL     1       5.378  -1.796   1.411  0.00  0.00    -0.288 N 
ATOM      2  C   UNL     1       5.482  -3.222   1.148  0.00  0.00    +0.203 C 
ATOM      3  C   UNL     1       6.895  -3.702   1.189  0.00  0.00    +0.234 C 
ATOM      4  O   UNL     1       7.096  -4.880   0.984  0.00  0.00    -0.274 OA
ATOM      5  N   UNL     1       7.956  -2.924   1.435  0.00  0.00    -0.279 N 
ATOM      6  C   UNL     1       7.843  -1.490   1.678  0.00  0.00    +0.167 C 
ATOM      7  C   UNL     1       6.429  -1.011   1.644  0.00  0.00    +0.237 C 
ATOM      8  O   UNL     1       6.224   0.167   1.845  0.00  0.00    -0.274 OA
ATOM      9  C   UNL     1       8.673  -0.715   0.639  0.00  0.00    +0.065 C 
ATOM     10  C   UNL     1      10.012  -1.404   0.557  0.00  0.00    -0.034 C 
ATOM     11  C   UNL     1      11.251  -0.935   0.644  0.00  0.00    -0.001 A 
ATOM     12  C   UNL     1      11.775   0.437   0.739  0.00  0.00    +0.010 A 
ATOM     13  C   UNL     1      13.125   0.557   0.836  0.00  0.00    +0.001 A 
ATOM     14  C   UNL     1      13.996  -0.536   0.849  0.00  0.00    +0.002 A 
ATOM     15  C   UNL     1      13.603  -1.831   0.756  0.00  0.00    +0.026 A 
ATOM     16  C   UNL     1      12.205  -2.086   0.641  0.00  0.00    +0.043 A 
ATOM     17  N   UNL     1      11.562  -3.209   0.515  0.00  0.00    -0.375 N 
ATOM     18  C   UNL     1      10.138  -2.911   0.363  0.00  0.00    +0.131 C 
ATOM     19  C   UNL     1       9.291  -3.564   1.459  0.00  0.00    +0.133 C 
ATOM     20  H   UNL     1      11.959  -4.094   0.521  0.00  0.00    +0.160 HD
ENDROOT
BRANCH  19  21
ATOM     21  C   UNL     1       9.155  -5.040   1.188  0.00  0.00    -0.023 A 
ATOM     22  C   UNL     1       9.121  -5.504  -0.114  0.00  0.00    +0.005 A 
ATOM     23  C   UNL     1       8.997  -6.858  -0.363  0.00  0.00    +0.003 A 
ATOM     24  C   UNL     1       8.906  -7.749   0.691  0.00  0.00    +0.033 A 
ATOM     25  C   UNL     1       8.940  -7.285   1.993  0.00  0.00    +0.127 A 
ATOM     26  C   UNL     1       9.069  -5.931   2.241  0.00  0.00    +0.038 A 
BRANCH  25  27
ATOM     27  N   UNL     1       8.842  -8.239   3.120  0.00  0.00    +0.056 N 
ATOM     28  O   UNL     1       8.732  -9.423   2.903  0.00  0.00    -0.126 OA
ATOM     29  O   UNL     1       8.872  -7.833   4.259  0.00  0.00    -0.126 OA
ENDBRANCH  25  27
ENDBRANCH  19  21
BRANCH   1  30
ATOM     30  C   UNL     1       4.045  -1.188   1.416  0.00  0.00    +0.144 C 
BRANCH  30  31
ATOM     31  C   UNL     1       3.697  -0.713   0.004  0.00  0.00    +0.162 C 
BRANCH  31  35
ATOM     32  C   UNL     1      -0.033   1.367   0.078  0.00  0.00    +0.000 A 
ATOM     33  C   UNL     1       1.154   2.076   0.063  0.00  0.00    +0.000 A 
ATOM     34  C   UNL     1       2.361   1.403   0.039  0.00  0.00    +0.006 A 
ATOM     35  C   UNL     1       2.381   0.021   0.031  0.00  0.00    -0.018 A 
ATOM     36  C   UNL     1       1.195  -0.688   0.047  0.00  0.00    +0.006 A 
ATOM     37  C   UNL     1      -0.013  -0.015   0.070  0.00  0.00    +0.000 A 
ENDBRANCH  31  35
BRANCH  31  38
ATOM     38  O   UNL     1       3.595  -1.842  -0.867  0.00  0.00    -0.386 OA
ATOM     39  H   UNL     1       2.918  -2.480  -0.606  0.00  0.00    +0.210 HD
ENDBRANCH  31  38
ENDBRANCH  30  31
ENDBRANCH   1  30
TORSDOF 6
