REMARK  Name = ZINC39667846
REMARK  9 active torsions:
REMARK  status: ('A' for Active; 'I' for Inactive)
REMARK    1  A    between atoms: C_1  and  C_2
REMARK    2  A    between atoms: C_6  and  C_10
REMARK    3  A    between atoms: C_10  and  S_11
REMARK    4  A    between atoms: S_11  and  C_12
REMARK    5  A    between atoms: C_15  and  C_20
REMARK    6  A    between atoms: N_16  and  C_17
REMARK    7  A    between atoms: C_17  and  C_18
REMARK    8  A    between atoms: C_24  and  N_26
REMARK    9  A    between atoms: C_30  and  C_32
REMARK                            x       y       z     vdW  Elec       q    Type
REMARK                         _______ _______ _______ _____ _____    ______ ____
ROOT
ATOM      1  C   UNL     1      -0.020  -3.572  -7.441  0.00  0.00    +0.193 A 
ATOM      2  N   UNL     1       0.444  -4.802  -7.426  0.00  0.00    -0.122 NA
ATOM      3  N   UNL     1       0.384  -5.311  -8.604  0.00  0.00    -0.128 NA
ATOM      4  C   UNL     1      -0.122  -4.438  -9.444  0.00  0.00    +0.165 A 
ATOM      5  N   UNL     1      -0.401  -3.299  -8.723  0.00  0.00    -0.298 N 
ENDROOT
BRANCH   4   6
ATOM      6  C   UNL     1      -0.353  -4.641 -10.890  0.00  0.00    +0.021 A 
ATOM      7  C   UNL     1      -0.220  -3.573 -11.778  0.00  0.00    +0.012 A 
ATOM      8  C   UNL     1      -0.437  -3.770 -13.126  0.00  0.00    +0.003 A 
ATOM      9  C   UNL     1      -0.787  -5.022 -13.598  0.00  0.00    +0.033 A 
ATOM     10  C   UNL     1      -0.921  -6.085 -12.723  0.00  0.00    +0.127 A 
ATOM     11  C   UNL     1      -0.701  -5.904 -11.373  0.00  0.00    +0.044 A 
BRANCH  10  12
ATOM     12  N   UNL     1      -1.296  -7.422 -13.236  0.00  0.00    +0.056 N 
ATOM     13  O   UNL     1      -1.486  -7.584 -14.419  0.00  0.00    -0.126 OA
ATOM     14  O   UNL     1      -1.414  -8.352 -12.473  0.00  0.00    -0.126 OA
ENDBRANCH  10  12
ENDBRANCH   4   6
BRANCH   1  15
ATOM     15  S   UNL     1      -0.136  -2.482  -6.061  0.00  0.00    -0.078 S 
BRANCH  15  16
ATOM     16  C   UNL     1       0.530  -3.450  -4.679  0.00  0.00    +0.151 C 
BRANCH  16  22
ATOM     17  C   UNL     1      -0.076   0.924   0.214  0.00  0.00    +0.041 C 
ATOM     18  C   UNL     1       0.430  -0.489   0.071  0.00  0.00    -0.034 C 
ATOM     19  C   UNL     1       0.413  -1.115  -1.115  0.00  0.00    +0.071 C 
ATOM     20  C   UNL     1       0.928  -2.499  -1.168  0.00  0.00    +0.112 C 
ATOM     21  N   UNL     1       0.936  -3.165  -2.299  0.00  0.00    -0.227 NA
ATOM     22  C   UNL     1       0.488  -2.623  -3.420  0.00  0.00    +0.134 C 
ATOM     23  N   UNL     1       0.009  -1.404  -3.493  0.00  0.00    -0.160 NA
ATOM     24  C   UNL     1      -0.070  -0.593  -2.434  0.00  0.00    +0.271 C 
ATOM     25  O   UNL     1      -0.521   0.535  -2.537  0.00  0.00    -0.268 OA
ATOM     26  S   UNL     1       1.424  -2.860   0.497  0.00  0.00    -0.086 S 
ATOM     27  C   UNL     1       0.980  -1.246   1.258  0.00  0.00    +0.192 C 
BRANCH  27  28
ATOM     28  C   UNL     1      -0.074  -1.424   2.320  0.00  0.00    +0.373 C 
ATOM     29  O   UNL     1      -0.734  -2.449   2.359  0.00  0.00    -0.245 OA
ATOM     30  O   UNL     1      -0.268  -0.543   3.140  0.00  0.00    -0.245 OA
ENDBRANCH  27  28
ENDBRANCH  16  22
ENDBRANCH  15  16
ENDBRANCH   1  15
BRANCH   5  31
ATOM     31  C   UNL     1      -0.983  -2.053  -9.228  0.00  0.00    +0.152 C 
BRANCH  31  32
ATOM     32  C   UNL     1       0.119  -1.072  -9.534  0.00  0.00    -0.013 C 
ATOM     33  C   UNL     1       0.183  -0.507 -10.714  0.00  0.00    +0.005 C 
ENDBRANCH  31  32
ENDBRANCH   5  31
TORSDOF 8
