REMARK  Name = ZINC25459932
REMARK  11 active torsions:
REMARK  status: ('A' for Active; 'I' for Inactive)
REMARK    1  A    between atoms: C_1  and  C_2
REMARK    2  A    between atoms: C_5  and  C_36
REMARK    3  A    between atoms: C_6  and  N_8
REMARK    4  A    between atoms: C_9  and  S_13
REMARK    5  A    between atoms: S_13  and  C_14
REMARK    6  A    between atoms: C_14  and  C_15
REMARK    7  A    between atoms: C_16  and  C_32
REMARK    8  A    between atoms: C_17  and  C_26
REMARK    9  A    between atoms: N_22  and  C_23
REMARK   10  A    between atoms: C_32  and  O_34
REMARK   11  A    between atoms: O_34  and  C_35
REMARK                            x       y       z     vdW  Elec       q    Type
REMARK                         _______ _______ _______ _____ _____    ______ ____
ROOT
ATOM      1  C   UNL     1      -5.036   1.355  -1.970  0.00  0.00    +0.037 C 
ATOM      2  C   UNL     1      -5.598   0.238  -2.480  0.00  0.00    +0.079 C 
ATOM      3  C   UNL     1      -5.577   0.063  -3.985  0.00  0.00    +0.144 C 
ATOM      4  N   UNL     1      -4.941   1.132  -4.773  0.00  0.00    -0.288 N 
ATOM      5  C   UNL     1      -4.422   2.189  -4.117  0.00  0.00    +0.307 C 
ATOM      6  O   UNL     1      -3.894   3.078  -4.758  0.00  0.00    -0.252 OA
ATOM      7  N   UNL     1      -4.473   2.296  -2.784  0.00  0.00    -0.255 N 
ATOM      8  H   UNL     1      -4.897   1.056  -5.869  0.00  0.00    +0.151 HD
ENDROOT
BRANCH   3   9
ATOM      9  C   UNL     1      -4.862  -1.228  -4.292  0.00  0.00    -0.023 A 
ATOM     10  C   UNL     1      -3.480  -1.271  -4.288  0.00  0.00    +0.006 A 
ATOM     11  C   UNL     1      -2.825  -2.456  -4.566  0.00  0.00    +0.000 A 
ATOM     12  C   UNL     1      -3.551  -3.596  -4.856  0.00  0.00    +0.000 A 
ATOM     13  C   UNL     1      -4.933  -3.552  -4.865  0.00  0.00    +0.000 A 
ATOM     14  C   UNL     1      -5.588  -2.368  -4.583  0.00  0.00    +0.006 A 
ENDBRANCH   3   9
BRANCH   7  15
ATOM     15  C   UNL     1      -3.887   3.486  -2.162  0.00  0.00    +0.083 C 
ATOM     16  C   UNL     1      -2.492   3.910  -2.624  0.00  0.00    +0.025 C 
ATOM     17  C   UNL     1      -2.683   3.282  -1.241  0.00  0.00    +0.025 C 
ENDBRANCH   7  15
BRANCH   2  18
ATOM     18  C   UNL     1      -6.186  -0.735  -1.639  0.00  0.00    +0.339 C 
ATOM     19  O   UNL     1      -6.298  -0.520  -0.446  0.00  0.00    -0.245 OA
BRANCH  18  20
ATOM     20  O   UNL     1      -6.622  -1.901  -2.159  0.00  0.00    -0.465 OA
ATOM     21  C   UNL     1      -7.206  -2.838  -1.251  0.00  0.00    +0.280 C 
ENDBRANCH  18  20
ENDBRANCH   2  18
BRANCH   1  22
ATOM     22  C   UNL     1      -5.036   1.569  -0.478  0.00  0.00    +0.129 C 
BRANCH  22  23
ATOM     23  S   UNL     1      -6.505   2.515  -0.004  0.00  0.00    -0.078 S 
BRANCH  23  25
ATOM     24  N   UNL     1      -7.070   3.232   2.638  0.00  0.00    -0.187 N 
ATOM     25  C   UNL     1      -6.255   2.616   1.737  0.00  0.00    +0.214 A 
ATOM     26  N   UNL     1      -5.247   2.111   2.414  0.00  0.00    -0.101 NA
ATOM     27  N   UNL     1      -5.373   2.365   3.666  0.00  0.00    -0.022 NA
ATOM     28  N   UNL     1      -6.446   3.045   3.884  0.00  0.00    -0.038 NA
BRANCH  24  34
ATOM     29  C   UNL     1     -11.411   3.433   0.335  0.00  0.00    +0.044 C 
ATOM     30  C   UNL     1     -10.389   4.032   1.267  0.00  0.00    -0.048 A 
ATOM     31  C   UNL     1     -10.635   5.252   1.868  0.00  0.00    +0.004 A 
ATOM     32  C   UNL     1      -9.700   5.804   2.724  0.00  0.00    +0.006 A 
ATOM     33  C   UNL     1      -8.518   5.138   2.982  0.00  0.00    -0.025 A 
ATOM     34  C   UNL     1      -8.269   3.912   2.379  0.00  0.00    +0.073 A 
ATOM     35  C   UNL     1      -9.212   3.358   1.524  0.00  0.00    +0.031 A 
ATOM     36  C   UNL     1      -7.499   5.740   3.914  0.00  0.00    +0.046 C 
ENDBRANCH  24  34
ENDBRANCH  23  25
ENDBRANCH  22  23
ENDBRANCH   1  22
TORSDOF 8
