REMARK  Name = ZINC12190372
REMARK  12 active torsions:
REMARK  status: ('A' for Active; 'I' for Inactive)
REMARK    1  A    between atoms: C_1  and  C_2
REMARK    2  A    between atoms: C_5  and  C_9
REMARK    3  A    between atoms: C_6  and  C_8
REMARK    4  A    between atoms: C_9  and  N_65
REMARK    5  A    between atoms: C_11  and  N_28
REMARK    6  A    between atoms: C_14  and  C_16
REMARK    7  A    between atoms: N_18  and  C_19
REMARK    8  A    between atoms: C_19  and  C_20
REMARK    9  A    between atoms: C_20  and  C_21
REMARK   10  A    between atoms: C_30  and  C_33
REMARK   11  A    between atoms: C_33  and  O_35
REMARK   12  A    between atoms: O_35  and  C_36
REMARK                            x       y       z     vdW  Elec       q    Type
REMARK                         _______ _______ _______ _____ _____    ______ ____
ROOT
ATOM      1  C   UNL     1      -0.959   0.498   0.589  0.00  0.00    -0.050 C 
ATOM      2  C   UNL     1      -0.328  -0.256  -0.597  0.00  0.00    +0.091 C 
ATOM      3  C   UNL     1       0.691   0.733  -1.209  0.00  0.00    +0.019 C 
ATOM      4  C   UNL     1       0.976   1.705  -0.037  0.00  0.00    +0.022 C 
ATOM      5  N   UNL     1      -0.341   1.829   0.598  0.00  0.00    +0.391 N 
ATOM      6  H   UNL     1      -0.923   2.485   0.063  0.00  0.00    -0.080 HD
ENDROOT
BRANCH   2   7
ATOM      7  N   UNL     1       0.355  -1.464  -0.126  0.00  0.00    -0.250 N 
ATOM      8  C   UNL     1       0.997  -1.617   1.049  0.00  0.00    +0.145 A 
ATOM      9  C   UNL     1       1.482  -2.894   1.071  0.00  0.00    +0.189 A 
ATOM     10  N   UNL     1       1.136  -3.501  -0.078  0.00  0.00    -0.123 NA
ATOM     11  N   UNL     1       0.461  -2.683  -0.809  0.00  0.00    -0.065 NA
BRANCH   9  12
ATOM     12  C   UNL     1       2.254  -3.504   2.169  0.00  0.00    +0.361 C 
ATOM     13  O   UNL     1       2.508  -2.857   3.166  0.00  0.00    -0.243 OA
BRANCH  12  14
ATOM     14  O   UNL     1       2.678  -4.779   2.067  0.00  0.00    -0.463 OA
ATOM     15  C   UNL     1       3.433  -5.314   3.187  0.00  0.00    +0.280 C 
ENDBRANCH  12  14
ENDBRANCH   9  12
ENDBRANCH   2   7
BRANCH   4  16
ATOM     16  C   UNL     1       1.456   3.036  -0.555  0.00  0.00    +0.200 C 
ATOM     17  O   UNL     1       0.675   3.955  -0.682  0.00  0.00    -0.278 OA
ATOM     18  N   UNL     1       2.754   3.205  -0.878  0.00  0.00    -0.316 N 
ATOM     19  H   UNL     1       3.379   2.470  -0.777  0.00  0.00    +0.149 HD
BRANCH  18  20
ATOM     20  C   UNL     1       3.221   4.499  -1.382  0.00  0.00    +0.109 C 
BRANCH  20  21
ATOM     21  C   UNL     1       4.721   4.423  -1.671  0.00  0.00    +0.054 C 
BRANCH  21  22
ATOM     22  C   UNL     1       5.201   5.754  -2.189  0.00  0.00    -0.046 A 
ATOM     23  C   UNL     1       5.194   6.010  -3.548  0.00  0.00    +0.006 A 
ATOM     24  C   UNL     1       5.628   7.232  -4.024  0.00  0.00    +0.038 A 
ATOM     25  C   UNL     1       6.083   8.197  -3.141  0.00  0.00    +0.123 A 
ATOM     26  C   UNL     1       6.096   7.937  -1.781  0.00  0.00    +0.038 A 
ATOM     27  C   UNL     1       5.654   6.717  -1.306  0.00  0.00    +0.006 A 
ATOM     28  F   UNL     1       6.514   9.389  -3.606  0.00  0.00    -0.205 F 
ENDBRANCH  21  22
ENDBRANCH  20  21
ENDBRANCH  18  20
ENDBRANCH   4  16
BRANCH   5  29
ATOM     29  C   UNL     1      -0.205   2.327   2.000  0.00  0.00    -0.042 C 
BRANCH  29  34
ATOM     30  C   UNL     1       3.852  -0.773   4.707  0.00  0.00    +0.044 C 
ATOM     31  C   UNL     1       2.794   0.035   4.000  0.00  0.00    -0.050 A 
ATOM     32  C   UNL     1       3.159   1.101   3.198  0.00  0.00    +0.003 A 
ATOM     33  C   UNL     1       2.189   1.839   2.548  0.00  0.00    +0.002 A 
ATOM     34  C   UNL     1       0.853   1.518   2.706  0.00  0.00    -0.061 A 
ATOM     35  C   UNL     1       0.489   0.452   3.506  0.00  0.00    -0.049 A 
ATOM     36  C   UNL     1       1.460  -0.289   4.154  0.00  0.00    +0.007 A 
ATOM     37  C   UNL     1      -0.966   0.099   3.674  0.00  0.00    +0.044 C 
ENDBRANCH  29  34
ENDBRANCH   5  29
TORSDOF 9
