REMARK  Name = ZINC15319638
REMARK  10 active torsions:
REMARK  status: ('A' for Active; 'I' for Inactive)
REMARK    1  A    between atoms: C_1  and  C_2
REMARK    2  A    between atoms: C_7  and  C_8
REMARK    3  A    between atoms: C_13  and  C_23
REMARK    4  A    between atoms: C_15  and  C_19
REMARK    5  A    between atoms: C_19  and  O_21
REMARK    6  A    between atoms: O_21  and  C_22
REMARK    7  A    between atoms: C_29  and  C_35
REMARK    8  A    between atoms: C_30  and  C_31
REMARK    9  A    between atoms: C_31  and  O_33
REMARK   10  A    between atoms: O_33  and  C_34
REMARK                            x       y       z     vdW  Elec       q    Type
REMARK                         _______ _______ _______ _____ _____    ______ ____
ROOT
ATOM      1  C   UNL     1       0.090  -2.973   0.047  0.00  0.00    +0.092 C 
ATOM      2  C   UNL     1      -0.121  -4.349  -0.538  0.00  0.00    +0.025 C 
ATOM      3  C   UNL     1       0.486  -4.708  -1.688  0.00  0.00    +0.016 C 
ATOM      4  C   UNL     1       0.285  -6.083  -2.277  0.00  0.00    +0.061 C 
ATOM      5  C   UNL     1       0.039  -7.092  -1.153  0.00  0.00    +0.053 C 
ATOM      6  C   UNL     1      -1.189  -6.641  -0.355  0.00  0.00    +0.176 C 
ATOM      7  C   UNL     1      -0.958  -5.244   0.152  0.00  0.00    +0.176 C 
ATOM      8  O   UNL     1      -1.504  -4.883   1.175  0.00  0.00    -0.291 OA
ATOM      9  N   UNL     1       1.299  -3.827  -2.350  0.00  0.00    -0.321 N 
ATOM     10  C   UNL     1       1.210  -2.484  -2.111  0.00  0.00    +0.016 C 
ATOM     11  C   UNL     1       0.635  -2.029  -0.984  0.00  0.00    +0.065 C 
ATOM     12  C   UNL     1       1.759  -1.507  -3.118  0.00  0.00    +0.061 C 
ATOM     13  H   UNL     1       2.032  -4.197  -3.082  0.00  0.00    +0.152 HD
ENDROOT
BRANCH   1  20
ATOM     14  C   UNL     1      -0.761  -2.250   2.712  0.00  0.00    +0.044 C 
ATOM     15  C   UNL     1       0.652  -2.716   2.473  0.00  0.00    -0.046 A 
ATOM     16  C   UNL     1       1.542  -2.797   3.528  0.00  0.00    +0.003 A 
ATOM     17  C   UNL     1       2.837  -3.225   3.308  0.00  0.00    +0.000 A 
ATOM     18  C   UNL     1       3.244  -3.571   2.033  0.00  0.00    +0.000 A 
ATOM     19  C   UNL     1       2.354  -3.494   0.979  0.00  0.00    +0.005 A 
ATOM     20  C   UNL     1       1.059  -3.062   1.198  0.00  0.00    -0.032 A 
ENDBRANCH   1  20
BRANCH   5  21
ATOM     21  C   UNL     1      -0.210  -8.458  -1.739  0.00  0.00    -0.006 A 
ATOM     22  C   UNL     1       0.477  -9.610  -1.542  0.00  0.00    +0.011 A 
ATOM     23  C   UNL     1       0.059 -10.758  -2.189  0.00  0.00    +0.008 A 
ATOM     24  C   UNL     1      -1.018 -10.695  -3.010  0.00  0.00    +0.045 A 
ATOM     25  S   UNL     1      -1.483  -8.977  -2.878  0.00  0.00    -0.101 S 
ENDBRANCH   5  21
BRANCH   6  26
ATOM     26  C   UNL     1      -1.403  -7.572   0.810  0.00  0.00    +0.318 C 
ATOM     27  O   UNL     1      -0.657  -8.507   0.982  0.00  0.00    -0.250 OA
BRANCH  26  28
ATOM     28  O   UNL     1      -2.423  -7.363   1.658  0.00  0.00    -0.467 OA
ATOM     29  C   UNL     1      -2.568  -8.299   2.758  0.00  0.00    +0.280 C 
ENDBRANCH  26  28
ENDBRANCH   6  26
BRANCH  11  30
ATOM     30  C   UNL     1       0.547  -0.635  -0.764  0.00  0.00    +0.337 C 
ATOM     31  O   UNL     1       1.078   0.138  -1.540  0.00  0.00    -0.245 OA
BRANCH  30  32
ATOM     32  O   UNL     1      -0.125  -0.161   0.306  0.00  0.00    -0.465 OA
ATOM     33  C   UNL     1      -0.173   1.258   0.466  0.00  0.00    +0.280 C 
ENDBRANCH  30  32
ENDBRANCH  11  30
TORSDOF 6
