REMARK  Name = ZINC08917929
REMARK  18 active torsions:
REMARK  status: ('A' for Active; 'I' for Inactive)
REMARK    1  A    between atoms: CD1_1  and  CG1_2
REMARK    2  A    between atoms: CG1_2  and  CB_3
REMARK    3  A    between atoms: CB_3  and  CG2_5
REMARK    4  A    between atoms: CB_3  and  CA_6
REMARK    5  A    between atoms: CA_6  and  C_8
REMARK    6  A    between atoms: CA_6  and  N_10
REMARK    7  A    between atoms: C_11  and  C_13
REMARK    8  A    between atoms: C_19  and  C_21
REMARK    9  A    between atoms: C_21  and  C_23
REMARK   10  A    between atoms: C_21  and  N_27
REMARK   11  A    between atoms: C_23  and  C_24
REMARK   12  A    between atoms: C_24  and  S_25
REMARK   13  A    between atoms: S_25  and  C_26
REMARK   14  A    between atoms: C_28  and  O_30
REMARK   15  A    between atoms: O_30  and  C_31
REMARK   16  A    between atoms: C_31  and  C_32
REMARK   17  A    between atoms: C_31  and  C_33
REMARK   18  A    between atoms: C_31  and  C_34
REMARK                            x       y       z     vdW  Elec       q    Type
REMARK                         _______ _______ _______ _____ _____    ______ ____
ROOT
ATOM      1  C   UNK A   0      -4.393  -3.563   4.243  0.00  0.00    +0.078 C 
ATOM      2  C   UNK A   0      -4.774  -4.974   3.791  0.00  0.00    +0.032 C 
ATOM      3  C   UNK A   0      -4.881  -5.005   2.263  0.00  0.00    +0.108 C 
ATOM      4  N   UNK A   0      -3.623  -4.507   1.690  0.00  0.00    -0.300 N 
ATOM      5  C   UNK A   0      -3.115  -3.201   2.131  0.00  0.00    +0.108 C 
ATOM      6  C   UNK A   0      -3.030  -3.188   3.656  0.00  0.00    +0.032 C 
ATOM      7  C   UNK A   0      -2.944  -5.237   0.783  0.00  0.00    +0.236 C 
ATOM      8  O   UNK A   0      -3.418  -6.270   0.360  0.00  0.00    -0.274 OA
ENDROOT
BRANCH   1  10
ATOM      9  N   ILE A   1      -3.999  -2.372   6.375  0.00  0.00    -0.302 N 
ATOM     10  C   UNK A   0      -4.320  -3.521   5.748  0.00  0.00    +0.217 C 
ATOM     11  O   UNK A   0      -4.550  -4.521   6.394  0.00  0.00    -0.275 OA
ATOM     12  H   ILE A   1      -3.814  -1.572   5.858  0.00  0.00    +0.150 HD
BRANCH   9  13
ATOM     13  CA  ILE A   1      -3.928  -2.331   7.838  0.00  0.00    +0.189 C 
BRANCH  13  14
ATOM     14  C   ILE A   1      -5.304  -2.085   8.400  0.00  0.00    +0.376 C 
ATOM     15  O   ILE A   1      -6.166  -1.606   7.702  0.00  0.00    -0.244 OA
ATOM     16  OXT ILE A   1      -5.572  -2.397   9.678  0.00  0.00    -0.244 OA
ENDBRANCH  13  14
BRANCH  13  17
ATOM     17  CB  ILE A   1      -2.990  -1.202   8.271  0.00  0.00    +0.017 C 
ATOM     18  CG2 ILE A   1      -3.506   0.129   7.722  0.00  0.00    +0.010 C 
BRANCH  17  20
ATOM     19  CD1 ILE A   1      -0.619  -0.413   8.269  0.00  0.00    +0.004 C 
ATOM     20  CG1 ILE A   1      -1.585  -1.468   7.726  0.00  0.00    +0.002 C 
ENDBRANCH  17  20
ENDBRANCH  13  17
ENDBRANCH   9  13
ENDBRANCH   1  10
BRANCH   7  21
ATOM     21  C   UNK A   0      -1.597  -4.770   0.295  0.00  0.00    +0.163 C 
BRANCH  21  22
ATOM     22  N   UNK A   0      -0.983  -5.820  -0.521  0.00  0.00    -0.270 N 
ATOM     23  C   UNK A   0       0.358  -5.877  -0.648  0.00  0.00    +0.401 C 
ATOM     24  O   UNK A   0       1.057  -5.057  -0.087  0.00  0.00    -0.226 OA
ATOM     25  H   UNK A   0      -1.541  -6.475  -0.970  0.00  0.00    +0.153 HD
BRANCH  23  26
ATOM     26  O   UNK A   0       0.923  -6.842  -1.398  0.00  0.00    -0.445 OA
BRANCH  26  27
ATOM     27  C   UNK A   0       2.372  -6.842  -1.491  0.00  0.00    +0.107 C 
ATOM     28  C   UNK A   0       2.972  -7.003  -0.093  0.00  0.00    +0.055 C 
ATOM     29  C   UNK A   0       2.826  -8.002  -2.378  0.00  0.00    +0.055 C 
ATOM     30  C   UNK A   0       2.844  -5.519  -2.099  0.00  0.00    +0.055 C 
ENDBRANCH  26  27
ENDBRANCH  23  26
ENDBRANCH  21  22
BRANCH  21  31
ATOM     31  C   UNK A   0      -1.771  -3.505  -0.548  0.00  0.00    +0.042 C 
BRANCH  31  32
ATOM     32  C   UNK A   0      -0.399  -3.002  -1.001  0.00  0.00    +0.071 C 
BRANCH  32  33
ATOM     33  S   UNK A   0      -0.605  -1.502  -2.000  0.00  0.00    -0.164 S 
ATOM     34  C   UNK A   0       1.090  -1.039  -2.452  0.00  0.00    +0.084 C 
ENDBRANCH  32  33
ENDBRANCH  31  32
ENDBRANCH  21  31
ENDBRANCH   7  21
TORSDOF 12
