REMARK  Name = ZINC08870356
REMARK  14 active torsions:
REMARK  status: ('A' for Active; 'I' for Inactive)
REMARK    1  A    between atoms: C_1  and  C_2
REMARK    2  A    between atoms: C_4  and  C_31
REMARK    3  A    between atoms: C_5  and  S_9
REMARK    4  A    between atoms: C_6  and  C_8
REMARK    5  A    between atoms: S_9  and  N_12
REMARK    6  A    between atoms: N_12  and  C_13
REMARK    7  A    between atoms: C_18  and  C_19
REMARK    8  A    between atoms: C_21  and  C_27
REMARK    9  A    between atoms: C_22  and  C_23
REMARK   10  A    between atoms: C_23  and  O_25
REMARK   11  A    between atoms: O_25  and  C_26
REMARK   12  A    between atoms: C_27  and  C_28
REMARK   13  A    between atoms: C_27  and  C_29
REMARK   14  A    between atoms: C_27  and  C_30
REMARK                            x       y       z     vdW  Elec       q    Type
REMARK                         _______ _______ _______ _____ _____    ______ ____
ROOT
ATOM      1  C   UNL     1       4.896  -1.312  -2.443  0.00  0.00    +0.052 A 
ATOM      2  C   UNL     1       5.240  -0.027  -2.057  0.00  0.00    +0.037 A 
ATOM      3  C   UNL     1       5.303   0.982  -3.011  0.00  0.00    +0.036 A 
ATOM      4  C   UNL     1       5.008   0.707  -4.354  0.00  0.00    +0.136 A 
ATOM      5  C   UNL     1       4.659  -0.585  -4.725  0.00  0.00    +0.052 A 
ATOM      6  C   UNL     1       4.604  -1.584  -3.777  0.00  0.00    -0.025 A 
ATOM      7  C   UNL     1       4.224  -2.984  -4.188  0.00  0.00    +0.046 C 
ATOM      8  O   UNL     1       5.142   1.859  -5.046  0.00  0.00    -0.458 OA
ATOM      9  C   UNL     1       5.504   2.868  -4.246  0.00  0.00    +0.126 A 
ATOM     10  C   UNL     1       5.628   2.422  -2.966  0.00  0.00    +0.108 A 
ENDROOT
BRANCH   9  11
ATOM     11  C   UNL     1       5.739   4.288  -4.695  0.00  0.00    +0.021 C 
ATOM     12  C   UNL     1       7.180   4.691  -4.379  0.00  0.00    +0.019 C 
ATOM     13  C   UNL     1       5.500   4.392  -6.203  0.00  0.00    +0.019 C 
ATOM     14  C   UNL     1       4.775   5.221  -3.961  0.00  0.00    +0.019 C 
ENDBRANCH   9  11
BRANCH   1  15
ATOM     15  N   UNL     1       4.835  -2.336  -1.492  0.00  0.00    -0.216 N 
ATOM     16  H   UNL     1       3.986  -2.570  -1.085  0.00  0.00    +0.174 HD
BRANCH  15  17
ATOM     17  S   UNL     1       6.213  -3.147  -1.060  0.00  0.00    +0.073 S 
ATOM     18  O   UNL     1       6.851  -3.536  -2.268  0.00  0.00    -0.150 OA
ATOM     19  O   UNL     1       5.835  -4.085  -0.061  0.00  0.00    -0.150 OA
BRANCH  17  24
ATOM     20  C   UNL     1       9.870   0.837   1.615  0.00  0.00    +0.044 C 
ATOM     21  C   UNL     1       8.954  -0.155   0.946  0.00  0.00    -0.050 A 
ATOM     22  C   UNL     1       8.023  -0.850   1.695  0.00  0.00    +0.008 A 
ATOM     23  C   UNL     1       7.186  -1.764   1.083  0.00  0.00    -0.023 A 
ATOM     24  C   UNL     1       7.280  -1.983  -0.279  0.00  0.00    +0.114 A 
ATOM     25  C   UNL     1       8.211  -1.288  -1.028  0.00  0.00    -0.023 A 
ATOM     26  C   UNL     1       9.048  -0.374  -0.415  0.00  0.00    +0.008 A 
ATOM     27  C   UNL     1       8.313  -1.526  -2.512  0.00  0.00    +0.046 C 
ATOM     28  C   UNL     1       6.171  -2.521   1.899  0.00  0.00    +0.046 C 
ENDBRANCH  17  24
ENDBRANCH  15  17
ENDBRANCH   1  15
BRANCH  10  29
ATOM     29  C   UNL     1       6.008   3.209  -1.785  0.00  0.00    +0.343 C 
ATOM     30  O   UNL     1       7.178   3.311  -1.473  0.00  0.00    -0.245 OA
BRANCH  29  31
ATOM     31  O   UNL     1       5.058   3.819  -1.048  0.00  0.00    -0.464 OA
ATOM     32  C   UNL     1       5.506   4.580   0.105  0.00  0.00    +0.280 C 
ENDBRANCH  29  31
ENDBRANCH  10  29
TORSDOF 6
