REMARK  Name = ZINC58986967
REMARK  10 active torsions:
REMARK  status: ('A' for Active; 'I' for Inactive)
REMARK    1  A    between atoms: C_4  and  C_7
REMARK    2  A    between atoms: C_7  and  C_8
REMARK    3  A    between atoms: C_8  and  C_9
REMARK    4  A    between atoms: C_12  and  S_20
REMARK    5  A    between atoms: N_13  and  C_14
REMARK    6  A    between atoms: S_20  and  C_21
REMARK    7  A    between atoms: C_21  and  C_22
REMARK    8  A    between atoms: N_24  and  N_25
REMARK    9  A    between atoms: C_26  and  C_27
REMARK   10  A    between atoms: C_30  and  N_33
REMARK                            x       y       z     vdW  Elec       q    Type
REMARK                         _______ _______ _______ _____ _____    ______ ____
ROOT
ATOM      1  C   UNL     1       5.487  -1.699   1.381  0.00  0.00    +0.139 A 
ATOM      2  N   UNL     1       5.648  -2.992   1.368  0.00  0.00    -0.133 NA
ATOM      3  N   UNL     1       6.900  -3.281   1.355  0.00  0.00    -0.122 NA
ATOM      4  C   UNL     1       7.614  -2.179   1.359  0.00  0.00    +0.197 A 
ATOM      5  N   UNL     1       6.734  -1.133   1.371  0.00  0.00    -0.274 N 
ENDROOT
BRANCH   5   6
ATOM      6  C   UNL     1       7.043   0.235   1.375  0.00  0.00    +0.050 A 
ATOM      7  C   UNL     1       6.685   1.033   0.297  0.00  0.00    +0.026 A 
ATOM      8  C   UNL     1       6.991   2.380   0.304  0.00  0.00    +0.002 A 
ATOM      9  C   UNL     1       7.655   2.934   1.383  0.00  0.00    +0.000 A 
ATOM     10  C   UNL     1       8.013   2.142   2.458  0.00  0.00    +0.002 A 
ATOM     11  C   UNL     1       7.704   0.796   2.460  0.00  0.00    +0.026 A 
ENDBRANCH   5   6
BRANCH   1  12
ATOM     12  C   UNL     1       4.171  -0.963   1.399  0.00  0.00    +0.081 C 
BRANCH  12  13
ATOM     13  C   UNL     1       3.711  -0.707  -0.038  0.00  0.00    +0.043 C 
BRANCH  13  17
ATOM     14  C   UNL     1      -0.017   1.378   0.010  0.00  0.00    +0.000 A 
ATOM     15  C   UNL     1       1.171   2.086   0.002  0.00  0.00    +0.000 A 
ATOM     16  C   UNL     1       2.377   1.411  -0.013  0.00  0.00    +0.003 A 
ATOM     17  C   UNL     1       2.396   0.029  -0.020  0.00  0.00    -0.047 A 
ATOM     18  C   UNL     1       1.208  -0.679  -0.012  0.00  0.00    +0.003 A 
ATOM     19  C   UNL     1       0.002  -0.004   0.002  0.00  0.00    +0.000 A 
ENDBRANCH  13  17
ENDBRANCH  12  13
ENDBRANCH   1  12
BRANCH   4  20
ATOM     20  S   UNL     1       9.373  -2.070   1.346  0.00  0.00    -0.076 S 
BRANCH  20  21
ATOM     21  C   UNL     1       9.920  -3.799   1.324  0.00  0.00    +0.174 C 
BRANCH  21  22
ATOM     22  C   UNL     1      11.426  -3.849   1.311  0.00  0.00    +0.242 C 
ATOM     23  O   UNL     1      12.067  -2.820   1.316  0.00  0.00    -0.273 OA
ATOM     24  N   UNL     1      12.061  -5.038   1.294  0.00  0.00    -0.206 N 
ATOM     25  H   UNL     1      11.548  -5.862   1.290  0.00  0.00    +0.177 HD
BRANCH  24  26
ATOM     26  N   UNL     1      13.461  -5.085   1.282  0.00  0.00    -0.188 NA
ATOM     27  C   UNL     1      14.072  -6.229   1.265  0.00  0.00    +0.138 C 
BRANCH  27  28
ATOM     28  C   UNL     1      15.546  -6.278   1.252  0.00  0.00    -0.005 A 
ATOM     29  C   UNL     1      16.287  -5.095   1.264  0.00  0.00    +0.012 A 
ATOM     30  C   UNL     1      17.666  -5.148   1.252  0.00  0.00    +0.033 A 
ATOM     31  C   UNL     1      18.314  -6.370   1.228  0.00  0.00    +0.126 A 
ATOM     32  C   UNL     1      17.585  -7.547   1.216  0.00  0.00    +0.033 A 
ATOM     33  C   UNL     1      16.207  -7.509   1.234  0.00  0.00    +0.012 A 
BRANCH  31  34
ATOM     34  N   UNL     1      19.793  -6.420   1.215  0.00  0.00    +0.056 N 
ATOM     35  O   UNL     1      20.432  -5.393   1.225  0.00  0.00    -0.126 OA
ATOM     36  O   UNL     1      20.362  -7.486   1.194  0.00  0.00    -0.126 OA
ENDBRANCH  31  34
ENDBRANCH  27  28
ENDBRANCH  24  26
ENDBRANCH  21  22
ENDBRANCH  20  21
ENDBRANCH   4  20
TORSDOF 10
