REMARK  Name = ZINC36343083
REMARK  10 active torsions:
REMARK  status: ('A' for Active; 'I' for Inactive)
REMARK    1  A    between atoms: C_1  and  C_2
REMARK    2  A    between atoms: C_2  and  O_3
REMARK    3  A    between atoms: O_3  and  C_4
REMARK    4  A    between atoms: C_4  and  C_6
REMARK    5  A    between atoms: N_12  and  C_13
REMARK    6  A    between atoms: C_13  and  C_14
REMARK    7  A    between atoms: C_17  and  C_30
REMARK    8  A    between atoms: C_20  and  C_22
REMARK    9  A    between atoms: C_24  and  C_29
REMARK   10  A    between atoms: C_27  and  C_28
REMARK                            x       y       z     vdW  Elec       q    Type
REMARK                         _______ _______ _______ _____ _____    ______ ____
ROOT
ATOM      1  C   UNL     1      -1.974  -6.013   0.920  0.00  0.00    +0.219 C 
ATOM      2  O   UNL     1      -2.387  -6.540  -0.091  0.00  0.00    -0.276 OA
ATOM      3  N   UNL     1      -1.073  -6.651   1.692  0.00  0.00    -0.187 N 
ATOM      4  C   UNL     1      -0.504  -7.981   1.424  0.00  0.00    +0.137 C 
ATOM      5  C   UNL     1       0.454  -8.211   2.609  0.00  0.00    +0.087 C 
ATOM      6  C   UNL     1       0.318  -6.953   3.437  0.00  0.00    +0.069 C 
ATOM      7  N   UNL     1      -0.522  -6.155   2.873  0.00  0.00    -0.181 NA
ENDROOT
BRANCH   4   8
ATOM      8  C   UNL     1      -1.589  -9.027   1.404  0.00  0.00    -0.021 A 
ATOM      9  C   UNL     1      -2.637  -8.951   2.303  0.00  0.00    +0.009 A 
ATOM     10  C   UNL     1      -3.635  -9.908   2.288  0.00  0.00    +0.050 A 
ATOM     11  C   UNL     1      -3.586 -10.947   1.373  0.00  0.00    +0.166 A 
ATOM     12  C   UNL     1      -2.530 -11.023   0.468  0.00  0.00    +0.167 A 
ATOM     13  C   UNL     1      -1.537 -10.058   0.484  0.00  0.00    +0.055 A 
ATOM     14  O   UNL     1      -2.709 -12.124  -0.319  0.00  0.00    -0.453 OA
ATOM     15  C   UNL     1      -3.664 -12.945   0.380  0.00  0.00    +0.466 C 
ATOM     16  O   UNL     1      -4.426 -11.999   1.153  0.00  0.00    -0.453 OA
ENDBRANCH   4   8
BRANCH   6  17
ATOM     17  C   UNL     1       1.039  -6.679   4.694  0.00  0.00    +0.001 A 
ATOM     18  C   UNL     1       1.838  -7.667   5.274  0.00  0.00    +0.013 A 
ATOM     19  C   UNL     1       2.509  -7.403   6.450  0.00  0.00    -0.050 A 
ATOM     20  C   UNL     1       2.392  -6.164   7.055  0.00  0.00    +0.003 A 
ATOM     21  C   UNL     1       1.602  -5.181   6.486  0.00  0.00    +0.004 A 
ATOM     22  C   UNL     1       0.930  -5.428   5.307  0.00  0.00    -0.042 A 
ATOM     23  C   UNL     1       0.076  -4.354   4.685  0.00  0.00    +0.044 C 
ATOM     24  C   UNL     1       3.372  -8.468   7.077  0.00  0.00    +0.044 C 
ENDBRANCH   6  17
BRANCH   1  25
ATOM     25  C   UNL     1      -2.469  -4.644   1.312  0.00  0.00    +0.022 C 
BRANCH  25  31
ATOM     26  C   UNL     1      -3.790  -2.774   0.604  0.00  0.00    +0.043 C 
ATOM     27  C   UNL     1      -4.735  -2.248  -0.479  0.00  0.00    -0.004 C 
ATOM     28  C   UNL     1      -6.005  -3.104  -0.499  0.00  0.00    -0.003 C 
ATOM     29  C   UNL     1      -5.618  -4.568  -0.726  0.00  0.00    -0.019 C 
ATOM     30  C   UNL     1      -4.641  -5.008   0.365  0.00  0.00    -0.077 C 
ATOM     31  N   UNL     1      -3.437  -4.169   0.315  0.00  0.00    +0.394 N 
ATOM     32  H   UNL     1      -3.025  -4.227  -0.605  0.00  0.00    -0.080 HD
BRANCH  26  33
ATOM     33  C   UNL     1      -2.538  -1.935   0.628  0.00  0.00    +0.293 C 
ATOM     34  O   UNL     1      -1.586  -2.251  -0.045  0.00  0.00    -0.253 OA
BRANCH  33  35
ATOM     35  O   UNL     1      -2.482  -0.835   1.396  0.00  0.00    -0.466 OA
BRANCH  35  37
ATOM     36  C   UNL     1      -1.388   1.121   2.301  0.00  0.00    +0.048 C 
ATOM     37  C   UNL     1      -1.265  -0.087   1.370  0.00  0.00    +0.228 C 
ENDBRANCH  35  37
ENDBRANCH  33  35
ENDBRANCH  26  33
ENDBRANCH  25  31
ENDBRANCH   1  25
TORSDOF 7
