REMARK  Name = ZINC03086551
REMARK  3 active torsions:
REMARK  status: ('A' for Active; 'I' for Inactive)
REMARK    1  A    between atoms: C_1  and  C_2
REMARK    2  A    between atoms: C_2  and  C_30
REMARK    3  A    between atoms: C_6  and  C_19
REMARK                            x       y       z     vdW  Elec       q    Type
REMARK                         _______ _______ _______ _____ _____    ______ ____
ROOT
ATOM      1  C   UNL     1      -5.597   2.642   2.878  0.00  0.00    +0.011 C 
ATOM      2  C   UNL     1      -4.665   3.480   3.757  0.00  0.00    -0.024 C 
ATOM      3  C   UNL     1      -4.571   4.901   3.195  0.00  0.00    +0.043 C 
ATOM      4  C   UNL     1      -3.967   4.860   1.819  0.00  0.00    -0.029 C 
ATOM      5  C   UNL     1      -3.100   3.879   1.455  0.00  0.00    +0.023 C 
ATOM      6  C   UNL     1      -2.553   3.871   0.049  0.00  0.00    +0.136 C 
ATOM      7  N   UNL     1      -2.346   5.238  -0.431  0.00  0.00    -0.332 N 
ATOM      8  C   UNL     1      -3.464   6.031  -0.290  0.00  0.00    +0.043 A 
ATOM      9  C   UNL     1      -4.285   5.902   0.839  0.00  0.00    +0.000 A 
ATOM     10  C   UNL     1      -5.369   6.776   1.038  0.00  0.00    +0.010 A 
ATOM     11  C   UNL     1      -5.672   7.725   0.118  0.00  0.00    +0.009 A 
ATOM     12  C   UNL     1      -4.898   7.853  -1.054  0.00  0.00    -0.016 A 
ATOM     13  C   UNL     1      -3.783   7.004  -1.260  0.00  0.00    +0.004 A 
ATOM     14  C   UNL     1      -3.016   7.143  -2.428  0.00  0.00    +0.010 A 
ATOM     15  C   UNL     1      -3.354   8.088  -3.349  0.00  0.00    +0.001 A 
ATOM     16  C   UNL     1      -4.450   8.923  -3.147  0.00  0.00    +0.001 A 
ATOM     17  C   UNL     1      -5.215   8.817  -2.024  0.00  0.00    +0.008 A 
ATOM     18  C   UNL     1      -2.713   2.880   2.359  0.00  0.00    +0.162 C 
ATOM     19  O   UNL     1      -1.923   2.026   2.009  0.00  0.00    -0.292 OA
ATOM     20  C   UNL     1      -3.265   2.857   3.760  0.00  0.00    +0.086 C 
ATOM     21  C   UNL     1      -5.210   3.525   5.186  0.00  0.00    +0.011 C 
ATOM     22  H   UNL     1      -1.545   5.660   0.013  0.00  0.00    +0.147 HD
ENDROOT
BRANCH   6  23
ATOM     23  C   UNL     1      -1.238   3.135   0.032  0.00  0.00    -0.004 A 
ATOM     24  C   UNL     1      -0.080   3.780   0.424  0.00  0.00    +0.008 A 
ATOM     25  C   UNL     1       1.126   3.105   0.409  0.00  0.00    +0.020 A 
ATOM     26  C   UNL     1       1.175   1.784   0.001  0.00  0.00    +0.042 A 
ATOM     27  C   UNL     1       0.017   1.138  -0.393  0.00  0.00    +0.040 A 
ATOM     28  C   UNL     1      -1.189   1.816  -0.383  0.00  0.00    +0.048 A 
ATOM     29 CL   UNL     1      -2.642   1.009  -0.884  0.00  0.00    -0.083 Cl
ATOM     30 CL   UNL     1       2.691   0.936  -0.018  0.00  0.00    -0.083 Cl
ENDBRANCH   6  23
TORSDOF 1
