REMARK  Name = ZINC04151404
REMARK  7 active torsions:
REMARK  status: ('A' for Active; 'I' for Inactive)
REMARK    1  A    between atoms: C_1  and  C_2
REMARK    2  A    between atoms: C_4  and  N_29
REMARK    3  A    between atoms: C_7  and  C_8
REMARK    4  A    between atoms: C_16  and  C_19
REMARK    5  A    between atoms: C_22  and  C_25
REMARK    6  A    between atoms: C_25  and  O_27
REMARK    7  A    between atoms: O_27  and  C_28
REMARK                            x       y       z     vdW  Elec       q    Type
REMARK                         _______ _______ _______ _____ _____    ______ ____
ROOT
ATOM      1  C   UNL     1       1.498   6.996  -2.534  0.00  0.00    +0.044 C 
ATOM      2  C   UNL     1       1.417   5.631  -1.901  0.00  0.00    -0.045 A 
ATOM      3  C   UNL     1       2.533   5.075  -1.302  0.00  0.00    +0.038 A 
ATOM      4  C   UNL     1       2.462   3.824  -0.730  0.00  0.00    +0.147 A 
ATOM      5  C   UNL     1       1.269   3.099  -0.742  0.00  0.00    +0.062 A 
ATOM      6  C   UNL     1       0.145   3.679  -1.337  0.00  0.00    -0.014 A 
ATOM      7  C   UNL     1       0.227   4.928  -1.915  0.00  0.00    -0.042 A 
ATOM      8  C   UNL     1      -0.990   5.530  -2.568  0.00  0.00    +0.044 C 
ATOM      9  C   UNL     1      -1.123   2.919  -1.302  0.00  0.00    +0.049 C 
ATOM     10  C   UNL     1      -2.160   3.043  -2.355  0.00  0.00    -0.023 C 
ATOM     11  C   UNL     1      -2.790   1.892  -2.479  0.00  0.00    -0.030 C 
ATOM     12  C   UNL     1      -2.165   0.857  -1.541  0.00  0.00    +0.033 C 
ATOM     13  C   UNL     1      -0.743   1.408  -1.384  0.00  0.00    +0.029 C 
ATOM     14  C   UNL     1      -0.010   1.127  -0.088  0.00  0.00    +0.105 C 
ATOM     15  N   UNL     1       1.279   1.834  -0.159  0.00  0.00    -0.335 N 
ATOM     16  H   UNL     1       1.729   1.855   0.744  0.00  0.00    +0.147 HD
ENDROOT
BRANCH  14  17
ATOM     17  C   UNL     1      -0.814   1.638   1.079  0.00  0.00    -0.027 A 
ATOM     18  C   UNL     1      -1.776   0.831   1.659  0.00  0.00    +0.006 A 
ATOM     19  C   UNL     1      -2.512   1.291   2.732  0.00  0.00    +0.015 A 
ATOM     20  C   UNL     1      -2.290   2.578   3.226  0.00  0.00    +0.059 A 
ATOM     21  C   UNL     1      -1.321   3.389   2.632  0.00  0.00    +0.015 A 
ATOM     22  C   UNL     1      -0.589   2.915   1.564  0.00  0.00    +0.006 A 
BRANCH  20  23
ATOM     23  C   UNL     1      -3.077   3.080   4.371  0.00  0.00    +0.339 C 
ATOM     24  O   UNL     1      -2.882   4.200   4.798  0.00  0.00    -0.245 OA
BRANCH  23  25
ATOM     25  O   UNL     1      -4.012   2.295   4.941  0.00  0.00    -0.464 OA
ATOM     26  C   UNL     1      -4.747   2.853   6.062  0.00  0.00    +0.280 C 
ENDBRANCH  23  25
ENDBRANCH  20  23
ENDBRANCH  14  17
BRANCH   4  27
ATOM     27  N   UNL     1       3.665   3.243  -0.094  0.00  0.00    +0.058 N 
ATOM     28  O   UNL     1       4.709   3.869  -0.080  0.00  0.00    -0.126 OA
ATOM     29  O   UNL     1       3.611   2.138   0.415  0.00  0.00    -0.126 OA
ENDBRANCH   4  27
TORSDOF 4
