REMARK  Name = ZINC08431520
REMARK  12 active torsions:
REMARK  status: ('A' for Active; 'I' for Inactive)
REMARK    1  A    between atoms: C_1  and  C_2
REMARK    2  A    between atoms: C_6  and  C_38
REMARK    3  A    between atoms: C_8  and  O_11
REMARK    4  A    between atoms: O_11  and  C_12
REMARK    5  A    between atoms: C_12  and  C_13
REMARK    6  A    between atoms: C_13  and  C_15
REMARK    7  A    between atoms: C_13  and  O_37
REMARK    8  A    between atoms: C_15  and  N_79
REMARK    9  A    between atoms: C_18  and  C_21
REMARK   10  A    between atoms: C_21  and  N_22
REMARK   11  A    between atoms: C_38  and  C_39
REMARK   12  A    between atoms: C_38  and  C_40
REMARK                            x       y       z     vdW  Elec       q    Type
REMARK                         _______ _______ _______ _____ _____    ______ ____
ROOT
ATOM      1  C   UNL     1      -2.781   3.015   2.587  0.00  0.00    -0.078 C 
ATOM      2  C   UNL     1      -2.373   2.270   1.314  0.00  0.00    -0.014 C 
ATOM      3  C   UNL     1      -0.912   2.591   0.987  0.00  0.00    +0.003 C 
ATOM      4  C   UNL     1      -0.032   2.199   2.177  0.00  0.00    -0.014 C 
ATOM      5  C   UNL     1      -0.508   2.945   3.425  0.00  0.00    -0.078 C 
ATOM      6  N   UNL     1      -1.913   2.575   3.700  0.00  0.00    +0.381 N 
ATOM      7  H   UNL     1      -1.977   1.554   3.788  0.00  0.00    -0.082 HD
ENDROOT
BRANCH   6   8
ATOM      8  C   UNL     1      -2.361   3.194   4.965  0.00  0.00    -0.045 C 
BRANCH   8   9
ATOM      9  C   UNL     1      -1.962   4.671   5.010  0.00  0.00    +0.124 C 
BRANCH   9  10
ATOM     10  O   UNL     1      -2.681   5.389   4.006  0.00  0.00    -0.391 OA
ATOM     11  H   UNL     1      -3.642   5.350   4.106  0.00  0.00    +0.210 HD
ENDBRANCH   9  10
BRANCH   9  12
ATOM     12  C   UNL     1      -2.296   5.247   6.387  0.00  0.00    +0.189 C 
BRANCH  12  13
ATOM     13  O   UNL     1      -1.819   6.591   6.470  0.00  0.00    -0.374 OA
BRANCH  13  19
ATOM     14  C   UNL     1      -3.136   8.305   5.212  0.00  0.00    +0.007 C 
ATOM     15  C   UNL     1      -3.417   8.984   6.554  0.00  0.00    -0.012 C 
ATOM     16  C   UNL     1      -2.320  10.011   6.845  0.00  0.00    +0.004 C 
ATOM     17  C   UNL     1      -0.964   9.305   6.905  0.00  0.00    +0.006 C 
ATOM     18  C   UNL     1      -0.985   8.252   8.015  0.00  0.00    +0.020 C 
ATOM     19  C   UNL     1      -2.082   7.226   7.723  0.00  0.00    +0.122 C 
ATOM     20  C   UNL     1      -3.438   7.931   7.663  0.00  0.00    +0.035 C 
BRANCH  18  21
ATOM     21  C   UNL     1       0.371   7.546   8.074  0.00  0.00    -0.012 C 
ATOM     22  C   UNL     1       1.468   8.573   8.366  0.00  0.00    +0.007 C 
ATOM     23  C   UNL     1       0.350   6.494   9.184  0.00  0.00    +0.007 C 
ENDBRANCH  18  21
ENDBRANCH  13  19
ENDBRANCH  12  13
ENDBRANCH   9  12
ENDBRANCH   8   9
ENDBRANCH   6   8
BRANCH   3  24
ATOM     24  C   UNL     1      -0.480   1.802  -0.250  0.00  0.00    +0.120 C 
BRANCH  24  25
ATOM     25  N   UNL     1       0.878   2.196  -0.631  0.00  0.00    -0.234 N 
ATOM     26  C   UNL     1       1.039   3.214  -1.498  0.00  0.00    +0.254 C 
ATOM     27  O   UNL     1       0.064   3.786  -1.947  0.00  0.00    -0.270 OA
ATOM     28  C   UNL     1       2.387   3.641  -1.901  0.00  0.00    +0.046 A 
ATOM     29  C   UNL     1       2.599   4.689  -2.785  0.00  0.00    +0.014 A 
ATOM     30  C   UNL     1       3.893   5.053  -3.139  0.00  0.00    +0.001 A 
ATOM     31  C   UNL     1       4.982   4.403  -2.635  0.00  0.00    +0.008 A 
ATOM     32  C   UNL     1       4.811   3.337  -1.735  0.00  0.00    -0.016 A 
ATOM     33  C   UNL     1       3.503   2.957  -1.368  0.00  0.00    +0.006 A 
ATOM     34  C   UNL     1       3.298   1.890  -0.465  0.00  0.00    +0.046 A 
ATOM     35  C   UNL     1       4.400   1.225   0.053  0.00  0.00    +0.014 A 
ATOM     36  C   UNL     1       5.684   1.608  -0.316  0.00  0.00    +0.001 A 
ATOM     37  C   UNL     1       5.901   2.637  -1.187  0.00  0.00    +0.008 A 
ATOM     38  C   UNL     1       1.920   1.524  -0.106  0.00  0.00    +0.254 C 
ATOM     39  O   UNL     1       1.720   0.608   0.669  0.00  0.00    -0.270 OA
ENDBRANCH  24  25
ENDBRANCH   3  24
TORSDOF 9
