REMARK  Name = ZINC40427303
REMARK  10 active torsions:
REMARK  status: ('A' for Active; 'I' for Inactive)
REMARK    1  A    between atoms: C_1  and  C_2
REMARK    2  A    between atoms: C_2  and  C_3
REMARK    3  A    between atoms: C_3  and  C_5
REMARK    4  A    between atoms: C_3  and  C_11
REMARK    5  A    between atoms: C_18  and  C_20
REMARK    6  A    between atoms: C_21  and  C_23
REMARK    7  A    between atoms: C_23  and  C_24
REMARK    8  A    between atoms: C_24  and  N_25
REMARK    9  A    between atoms: C_33  and  C_35
REMARK   10  A    between atoms: C_38  and  C_41
REMARK                            x       y       z     vdW  Elec       q    Type
REMARK                         _______ _______ _______ _____ _____    ______ ____
ROOT
ATOM      1  C   UNL     1       0.694  -1.994  -1.434  0.00  0.00    +0.223 C 
ATOM      2  O   UNL     1       1.732  -2.622  -1.425  0.00  0.00    -0.275 OA
ATOM      3  N   UNL     1      -0.479  -2.634  -1.605  0.00  0.00    -0.295 N 
ATOM      4  C   UNL     1      -1.732  -1.876  -1.737  0.00  0.00    +0.127 C 
ATOM      5  C   UNL     1      -2.720  -2.376  -0.676  0.00  0.00    +0.127 C 
ATOM      6  N   UNL     1      -2.771  -3.843  -0.735  0.00  0.00    -0.298 N 
ATOM      7  C   UNL     1      -1.518  -4.601  -0.604  0.00  0.00    +0.130 C 
ATOM      8  C   UNL     1      -0.529  -4.101  -1.670  0.00  0.00    +0.090 C 
ATOM      9  C   UNL     1      -1.001  -4.538  -3.058  0.00  0.00    +0.029 C 
ATOM     10  C   UNL     1      -3.945  -4.483  -0.906  0.00  0.00    +0.214 C 
ATOM     11  O   UNL     1      -3.974  -5.694  -0.954  0.00  0.00    -0.276 OA
ENDROOT
BRANCH   1  12
ATOM     12  C   UNL     1       0.718  -0.498  -1.254  0.00  0.00    +0.105 C 
BRANCH  12  13
ATOM     13  C   UNL     1       0.718   0.171  -2.604  0.00  0.00    -0.036 A 
ATOM     14  C   UNL     1       1.741  -0.079  -3.500  0.00  0.00    +0.004 A 
ATOM     15  C   UNL     1       1.741   0.535  -4.738  0.00  0.00    +0.000 A 
ATOM     16  C   UNL     1       0.717   1.397  -5.082  0.00  0.00    +0.000 A 
ATOM     17  C   UNL     1      -0.307   1.646  -4.188  0.00  0.00    +0.000 A 
ATOM     18  C   UNL     1      -0.309   1.029  -2.950  0.00  0.00    +0.004 A 
ENDBRANCH  12  13
BRANCH  12  20
ATOM     19  C   UNL     1       1.935   1.402  -0.181  0.00  0.00    +0.005 C 
ATOM     20  C   UNL     1       1.979  -0.096  -0.487  0.00  0.00    +0.014 C 
ENDBRANCH  12  20
ENDBRANCH   1  12
BRANCH  10  21
ATOM     21  C   UNL     1      -5.221  -3.693  -1.039  0.00  0.00    +0.077 C 
BRANCH  21  22
ATOM     22  C   UNL     1      -6.398  -4.652  -1.222  0.00  0.00    -0.068 C 
BRANCH  22  23
ATOM     23  N   UNL     1      -7.643  -3.882  -1.352  0.00  0.00    +0.388 N 
ATOM     24  C   UNL     1      -7.578  -3.061  -2.568  0.00  0.00    -0.072 C 
ATOM     25  C   UNL     1      -8.714  -2.024  -2.528  0.00  0.00    +0.024 C 
ATOM     26  C   UNL     1      -9.968  -2.743  -2.152  0.00  0.00    -0.010 A 
ATOM     27  C   UNL     1     -10.055  -4.005  -1.644  0.00  0.00    -0.047 A 
ATOM     28  C   UNL     1     -11.336  -4.477  -1.369  0.00  0.00    +0.010 A 
ATOM     29  C   UNL     1     -12.412  -3.691  -1.606  0.00  0.00    +0.045 A 
ATOM     30  S   UNL     1     -11.651  -2.205  -2.245  0.00  0.00    -0.101 S 
ATOM     31  C   UNL     1      -8.780  -4.808  -1.407  0.00  0.00    -0.006 C 
ATOM     32  H   UNL     1      -7.744  -3.279  -0.549  0.00  0.00    -0.080 HD
BRANCH  31  33
ATOM     33  C   UNL     1      -8.888  -5.554  -0.102  0.00  0.00    -0.057 A 
ATOM     34  C   UNL     1      -8.673  -4.892   1.093  0.00  0.00    +0.002 A 
ATOM     35  C   UNL     1      -8.772  -5.577   2.289  0.00  0.00    +0.003 A 
ATOM     36  C   UNL     1      -9.086  -6.923   2.292  0.00  0.00    -0.050 A 
ATOM     37  C   UNL     1      -9.302  -7.585   1.097  0.00  0.00    +0.003 A 
ATOM     38  C   UNL     1      -9.207  -6.899  -0.099  0.00  0.00    +0.002 A 
ATOM     39  C   UNL     1      -9.193  -7.669   3.597  0.00  0.00    +0.044 C 
ENDBRANCH  31  33
ENDBRANCH  22  23
ENDBRANCH  21  22
ENDBRANCH  10  21
TORSDOF 7
