REMARK  Name = ZINC21856638
REMARK  11 active torsions:
REMARK  status: ('A' for Active; 'I' for Inactive)
REMARK    1  A    between atoms: C_1  and  C_2
REMARK    2  A    between atoms: C_2  and  C_3
REMARK    3  A    between atoms: C_3  and  N_4
REMARK    4  A    between atoms: C_10  and  O_33
REMARK    5  A    between atoms: C_13  and  O_31
REMARK    6  A    between atoms: C_17  and  C_18
REMARK    7  A    between atoms: C_17  and  C_19
REMARK    8  A    between atoms: N_21  and  C_22
REMARK    9  A    between atoms: C_28  and  C_30
REMARK   10  A    between atoms: O_31  and  C_32
REMARK   11  A    between atoms: O_33  and  C_34
REMARK                            x       y       z     vdW  Elec       q    Type
REMARK                         _______ _______ _______ _____ _____    ______ ____
ROOT
ATOM      1  N   UNL     1      -2.668  -2.943  -1.279  0.00  0.00    -0.281 N 
ATOM      2  C   UNL     1      -3.942  -3.110  -1.699  0.00  0.00    +0.264 C 
ATOM      3  O   UNL     1      -4.839  -3.389  -0.927  0.00  0.00    -0.268 OA
ATOM      4  C   UNL     1      -4.186  -2.936  -3.141  0.00  0.00    +0.106 A 
ATOM      5  C   UNL     1      -5.351  -2.852  -3.817  0.00  0.00    +0.044 A 
ATOM      6  C   UNL     1      -5.038  -2.664  -5.174  0.00  0.00    +0.046 A 
ATOM      7  C   UNL     1      -5.857  -2.512  -6.309  0.00  0.00    +0.129 A 
ATOM      8  C   UNL     1      -5.215  -2.337  -7.525  0.00  0.00    +0.050 A 
ATOM      9  C   UNL     1      -3.833  -2.314  -7.628  0.00  0.00    +0.051 A 
ATOM     10  C   UNL     1      -3.006  -2.465  -6.526  0.00  0.00    +0.144 A 
ATOM     11  C   UNL     1      -3.622  -2.643  -5.282  0.00  0.00    +0.095 A 
ATOM     12  N   UNL     1      -3.118  -2.819  -4.035  0.00  0.00    -0.331 N 
ATOM     13  C   UNL     1      -1.726  -2.897  -3.577  0.00  0.00    +0.157 C 
ATOM     14  C   UNL     1      -1.638  -2.377  -2.143  0.00  0.00    +0.128 C 
ATOM     15  C   UNL     1      -0.264  -2.733  -1.572  0.00  0.00    +0.043 C 
ENDROOT
BRANCH  14  16
ATOM     16  C   UNL     1      -1.784  -0.878  -2.159  0.00  0.00    +0.238 C 
ATOM     17  O   UNL     1      -0.799  -0.172  -2.200  0.00  0.00    -0.273 OA
ATOM     18  N   UNL     1      -3.011  -0.320  -2.127  0.00  0.00    -0.310 N 
ATOM     19  H   UNL     1      -3.906  -0.958  -2.173  0.00  0.00    +0.149 HD
BRANCH  18  20
ATOM     20  C   UNL     1      -3.152   1.135  -2.032  0.00  0.00    +0.076 C 
ATOM     21  C   UNL     1      -3.082   1.559  -0.563  0.00  0.00    +0.022 C 
ATOM     22  C   UNL     1      -4.212   0.885   0.217  0.00  0.00    +0.002 C 
ATOM     23  C   UNL     1      -5.560   1.306  -0.372  0.00  0.00    +0.000 C 
ATOM     24  C   UNL     1      -5.630   0.882  -1.840  0.00  0.00    +0.005 C 
ATOM     25  C   UNL     1      -4.500   1.556  -2.620  0.00  0.00    +0.006 C 
ATOM     26  C   UNL     1      -4.570   1.132  -4.088  0.00  0.00    +0.009 C 
ENDBRANCH  18  20
ENDBRANCH  14  16
BRANCH  10  27
ATOM     27  O   UNL     1      -1.651  -2.439  -6.648  0.00  0.00    -0.493 OA
ATOM     28  C   UNL     1      -1.122  -2.250  -7.962  0.00  0.00    +0.277 C 
ENDBRANCH  10  27
BRANCH   7  29
ATOM     29  O   UNL     1      -7.212  -2.535  -6.217  0.00  0.00    -0.494 OA
ATOM     30  C   UNL     1      -7.948  -2.370  -7.431  0.00  0.00    +0.277 C 
ENDBRANCH   7  29
BRANCH   1  31
ATOM     31  C   UNL     1      -2.313  -3.341   0.085  0.00  0.00    +0.109 C 
BRANCH  31  33
ATOM     32  C   UNL     1      -1.883  -2.508   2.401  0.00  0.00    +0.005 C 
ATOM     33  C   UNL     1      -2.376  -2.120   1.005  0.00  0.00    +0.016 C 
ENDBRANCH  31  33
ENDBRANCH   1  31
TORSDOF 6
