REMARK  Name = ZINC19853033
REMARK  7 active torsions:
REMARK  status: ('A' for Active; 'I' for Inactive)
REMARK    1  A    between atoms: C_1  and  C_2
REMARK    2  A    between atoms: C_2  and  C_3
REMARK    3  A    between atoms: C_2  and  C_4
REMARK    4  A    between atoms: C_13  and  C_21
REMARK    5  A    between atoms: C_14  and  N_20
REMARK    6  A    between atoms: C_15  and  C_16
REMARK    7  A    between atoms: C_15  and  C_18
REMARK                            x       y       z     vdW  Elec       q    Type
REMARK                         _______ _______ _______ _____ _____    ______ ____
ROOT
ATOM      1  C   UNL     1      -0.277   0.019   0.065  0.00  0.00    +0.039 C 
ATOM      2  C   UNL     1       0.684  -0.630   1.063  0.00  0.00    +0.026 C 
ATOM      3  C   UNL     1       0.348  -0.263   2.490  0.00  0.00    +0.009 C 
ATOM      4  C   UNL     1       1.234   0.866   3.011  0.00  0.00    +0.005 C 
ATOM      5  C   UNL     1       2.698   0.411   2.926  0.00  0.00    +0.027 C 
ATOM      6  C   UNL     1       3.013   0.145   1.476  0.00  0.00    -0.022 C 
ATOM      7  C   UNL     1       2.087  -0.299   0.649  0.00  0.00    -0.029 C 
ATOM      8  C   UNL     1       2.414  -0.442  -0.794  0.00  0.00    +0.074 C 
ATOM      9  C   UNL     1       1.407  -0.566  -1.695  0.00  0.00    +0.054 C 
ATOM     10  C   UNL     1      -0.044  -0.592  -1.317  0.00  0.00    +0.184 C 
ENDROOT
BRANCH   1  12
ATOM     11  C   UNL     1       1.127   1.811  -0.963  0.00  0.00    +0.007 C 
ATOM     12  C   UNL     1      -0.019   1.526   0.010  0.00  0.00    -0.011 C 
ATOM     13  C   UNL     1      -1.283   2.243  -0.466  0.00  0.00    +0.007 C 
ENDBRANCH   1  12
BRANCH   9  14
ATOM     14  N   UNL     1       1.732  -0.673  -3.018  0.00  0.00    -0.358 N 
ATOM     15  H   UNL     1       0.938  -0.775  -3.773  0.00  0.00    +0.142 HD
ATOM     16  H   UNL     1       2.787  -0.658  -3.328  0.00  0.00    +0.142 HD
ENDBRANCH   9  14
BRANCH  10  17
ATOM     17  C   UNL     1      -0.514  -1.986  -1.312  0.00  0.00    +0.091 C 
ATOM     18  N   UNL     1      -0.877  -3.063  -1.308  0.00  0.00    -0.195 NA
ENDBRANCH  10  17
BRANCH  10  19
ATOM     19  C   UNL     1      -0.813   0.170  -2.314  0.00  0.00    +0.091 C 
ATOM     20  N   UNL     1      -1.407   0.757  -3.084  0.00  0.00    -0.195 NA
ENDBRANCH  10  19
BRANCH   8  21
ATOM     21  C   UNL     1       3.778  -0.450  -1.230  0.00  0.00    +0.101 C 
ATOM     22  N   UNL     1       4.860  -0.456  -1.575  0.00  0.00    -0.191 NA
ENDBRANCH   8  21
TORSDOF 5
