REMARK  Name = ZINC17769246
REMARK  15 active torsions:
REMARK  status: ('A' for Active; 'I' for Inactive)
REMARK    1  A    between atoms: C_1  and  C_2
REMARK    2  A    between atoms: C_2  and  N_3
REMARK    3  A    between atoms: C_4  and  C_30
REMARK    4  A    between atoms: C_7  and  S_8
REMARK    5  A    between atoms: S_8  and  C_9
REMARK    6  A    between atoms: C_9  and  C_10
REMARK    7  A    between atoms: N_12  and  C_13
REMARK    8  A    between atoms: C_14  and  C_25
REMARK    9  A    between atoms: C_18  and  C_23
REMARK   10  A    between atoms: C_18  and  C_24
REMARK   11  A    between atoms: C_19  and  C_21
REMARK   12  A    between atoms: C_19  and  C_22
REMARK   13  A    between atoms: C_25  and  O_27
REMARK   14  A    between atoms: O_27  and  C_28
REMARK   15  A    between atoms: C_28  and  C_29
REMARK                            x       y       z     vdW  Elec       q    Type
REMARK                         _______ _______ _______ _____ _____    ______ ____
ROOT
ATOM      1  C   UNL     1       5.520   5.789   4.896  0.00  0.00    +0.086 A 
ATOM      2  C   UNL     1       6.364   6.778   5.392  0.00  0.00    +0.091 A 
ATOM      3  C   UNL     1       7.563   6.345   6.078  0.00  0.00    -0.024 A 
ATOM      4  C   UNL     1       7.740   5.005   6.154  0.00  0.00    -0.016 A 
ATOM      5  S   UNL     1       6.329   4.321   5.336  0.00  0.00    -0.079 S 
ATOM      6  C   UNL     1       8.891   4.295   6.789  0.00  0.00    -0.041 C 
ATOM      7  C   UNL     1       9.206   6.505   7.907  0.00  0.00    -0.069 C 
ATOM      8  C   UNL     1       8.608   7.254   6.710  0.00  0.00    +0.024 C 
ATOM      9  C   UNL     1       8.136   6.347   8.991  0.00  0.00    -0.010 C 
ATOM     10  C   UNL     1      10.342   7.369   8.486  0.00  0.00    -0.010 C 
ATOM     11  C   UNL     1       8.362   3.199   7.723  0.00  0.00    -0.005 C 
ATOM     12  C   UNL     1       9.713   3.615   5.677  0.00  0.00    -0.005 C 
ATOM     13  N   UNL     1       9.812   5.200   7.536  0.00  0.00    +0.389 N 
ATOM     14  H   UNL     1      10.634   5.381   6.949  0.00  0.00    -0.084 HD
ATOM     15  H   UNL     1      10.104   4.723   8.397  0.00  0.00    -0.084 HD
ENDROOT
BRANCH   1  18
ATOM     16  C   UNL     1       3.636   4.858   3.806  0.00  0.00    +0.228 C 
ATOM     17  O   UNL     1       4.064   3.747   4.036  0.00  0.00    -0.275 OA
ATOM     18  N   UNL     1       4.324   5.943   4.214  0.00  0.00    -0.279 N 
ATOM     19  H   UNL     1       3.981   6.832   4.030  0.00  0.00    +0.155 HD
BRANCH  16  20
ATOM     20  C   UNL     1       2.335   5.026   3.065  0.00  0.00    +0.173 C 
BRANCH  20  21
ATOM     21  S   UNL     1       1.659   3.397   2.656  0.00  0.00    -0.077 S 
BRANCH  21  26
ATOM     22  N   UNL     1      -0.749   3.044   1.275  0.00  0.00    -0.306 N 
ATOM     23  C   UNL     1      -1.709   3.860   0.743  0.00  0.00    +0.137 A 
ATOM     24  N   UNL     1      -1.341   5.090   0.968  0.00  0.00    -0.133 NA
ATOM     25  N   UNL     1      -0.223   5.107   1.601  0.00  0.00    -0.122 NA
ATOM     26  C   UNL     1       0.185   3.878   1.820  0.00  0.00    +0.192 A 
BRANCH  23  27
ATOM     27  C   UNL     1      -2.961   3.418   0.030  0.00  0.00    +0.057 C 
ATOM     28  C   UNL     1      -3.796   4.496  -0.664  0.00  0.00    +0.012 C 
ATOM     29  C   UNL     1      -4.303   3.848   0.627  0.00  0.00    +0.012 C 
ENDBRANCH  23  27
BRANCH  22  31
ATOM     30  C   UNL     1      -0.013   1.086   0.008  0.00  0.00    +0.027 C 
ATOM     31  C   UNL     1      -0.729   1.579   1.267  0.00  0.00    +0.122 C 
ENDBRANCH  22  31
ENDBRANCH  21  26
ENDBRANCH  20  21
ENDBRANCH  16  20
ENDBRANCH   1  18
BRANCH   2  32
ATOM     32  C   UNL     1       6.043   8.196   5.217  0.00  0.00    +0.342 C 
ATOM     33  O   UNL     1       5.382   8.778   6.056  0.00  0.00    -0.245 OA
BRANCH  32  34
ATOM     34  O   UNL     1       6.479   8.857   4.125  0.00  0.00    -0.461 OA
BRANCH  34  35
ATOM     35  C   UNL     1       6.123  10.260   4.018  0.00  0.00    +0.229 C 
ATOM     36  C   UNL     1       6.702  10.835   2.724  0.00  0.00    +0.048 C 
ENDBRANCH  34  35
ENDBRANCH  32  34
ENDBRANCH   2  32
TORSDOF 9
