REMARK  Name = ZINC41584129
REMARK  13 active torsions:
REMARK  status: ('A' for Active; 'I' for Inactive)
REMARK    1  A    between atoms: C_1  and  C_2
REMARK    2  A    between atoms: C_2  and  C_3
REMARK    3  A    between atoms: C_3  and  C_4
REMARK    4  A    between atoms: C_4  and  N_5
REMARK    5  A    between atoms: N_5  and  C_6
REMARK    6  A    between atoms: N_5  and  C_7
REMARK    7  A    between atoms: C_7  and  C_8
REMARK    8  A    between atoms: C_9  and  O_32
REMARK    9  A    between atoms: C_15  and  C_28
REMARK   10  A    between atoms: C_16  and  O_19
REMARK   11  A    between atoms: O_19  and  C_20
REMARK   12  A    between atoms: C_23  and  O_26
REMARK   13  A    between atoms: O_26  and  C_27
REMARK                            x       y       z     vdW  Elec       q    Type
REMARK                         _______ _______ _______ _____ _____    ______ ____
ROOT
ATOM      1  C   UNL     1       1.858  -4.599  -3.515  0.00  0.00    +0.020 A 
ATOM      2  C   UNL     1       0.962  -4.725  -4.563  0.00  0.00    +0.122 A 
ATOM      3  C   UNL     1       1.397  -5.123  -5.825  0.00  0.00    +0.046 A 
ATOM      4  C   UNL     1       2.717  -5.396  -6.046  0.00  0.00    +0.019 A 
ATOM      5  C   UNL     1       3.633  -5.274  -5.001  0.00  0.00    +0.068 A 
ATOM      6  C   UNL     1       3.204  -4.867  -3.725  0.00  0.00    +0.144 A 
ATOM      7  O   UNL     1       4.099  -4.747  -2.724  0.00  0.00    -0.447 OA
ATOM      8  C   UNL     1       5.403  -4.998  -2.893  0.00  0.00    +0.254 A 
ATOM      9  C   UNL     1       5.923  -5.388  -4.074  0.00  0.00    +0.222 A 
ATOM     10  C   UNL     1       5.065  -5.559  -5.198  0.00  0.00    +0.235 A 
ATOM     11  O   UNL     1       5.500  -5.912  -6.281  0.00  0.00    -0.283 OA
ENDROOT
BRANCH   8  12
ATOM     12  C   UNL     1       6.329  -4.837  -1.715  0.00  0.00    +0.454 C 
ATOM     13  F   UNL     1       7.611  -5.275  -2.065  0.00  0.00    -0.163 F 
ATOM     14  F   UNL     1       6.381  -3.490  -1.344  0.00  0.00    -0.163 F 
ATOM     15  F   UNL     1       5.854  -5.599  -0.642  0.00  0.00    -0.163 F 
ENDBRANCH   8  12
BRANCH   2  16
ATOM     16  O   UNL     1      -0.354  -4.458  -4.359  0.00  0.00    -0.506 OA
ATOM     17  H   UNL     1      -0.598  -3.536  -4.518  0.00  0.00    +0.292 HD
ENDBRANCH   2  16
BRANCH   1  18
ATOM     18  C   UNL     1       1.376  -4.168  -2.155  0.00  0.00    -0.036 C 
BRANCH  18  19
ATOM     19  N   UNL     1       1.429  -2.703  -2.058  0.00  0.00    +0.381 N 
ATOM     20  C   UNL     1       2.826  -2.257  -2.134  0.00  0.00    -0.096 C 
ATOM     21  H   UNL     1       0.904  -2.297  -2.818  0.00  0.00    -0.082 HD
BRANCH  19  22
ATOM     22  C   UNL     1       0.847  -2.275  -0.779  0.00  0.00    -0.079 C 
BRANCH  22  23
ATOM     23  C   UNL     1       0.788  -0.747  -0.731  0.00  0.00    -0.019 C 
BRANCH  23  25
ATOM     24  C   UNL     1       0.123   1.226   0.650  0.00  0.00    +0.004 C 
ATOM     25  C   UNL     1       0.182  -0.302   0.602  0.00  0.00    -0.005 C 
ENDBRANCH  23  25
ENDBRANCH  22  23
ENDBRANCH  19  22
ENDBRANCH  18  19
ENDBRANCH   1  18
BRANCH   9  26
ATOM     26  O   UNL     1       7.258  -5.629  -4.189  0.00  0.00    -0.448 OA
BRANCH  26  27
ATOM     27  C   UNL     1       7.991  -4.797  -4.976  0.00  0.00    +0.129 A 
ATOM     28  C   UNL     1       7.402  -3.673  -5.535  0.00  0.00    +0.050 A 
ATOM     29  C   UNL     1       8.147  -2.828  -6.335  0.00  0.00    +0.049 A 
ATOM     30  C   UNL     1       9.484  -3.103  -6.578  0.00  0.00    +0.120 A 
ATOM     31  C   UNL     1      10.074  -4.227  -6.019  0.00  0.00    +0.049 A 
ATOM     32  C   UNL     1       9.331  -5.069  -5.214  0.00  0.00    +0.050 A 
BRANCH  30  33
ATOM     33  O   UNL     1      10.217  -2.271  -7.365  0.00  0.00    -0.495 OA
ATOM     34  C   UNL     1      11.588  -2.616  -7.573  0.00  0.00    +0.277 C 
ENDBRANCH  30  33
ENDBRANCH  26  27
ENDBRANCH   9  26
TORSDOF 10
