REMARK  Name = ZINC49504288
REMARK  6 active torsions:
REMARK  status: ('A' for Active; 'I' for Inactive)
REMARK    1  A    between atoms: C_3  and  S_6
REMARK    2  A    between atoms: S_6  and  N_9
REMARK    3  A    between atoms: C_16  and  N_19
REMARK    4  A    between atoms: C_20  and  C_22
REMARK    5  A    between atoms: N_24  and  C_25
REMARK    6  A    between atoms: C_25  and  C_26
REMARK                            x       y       z     vdW  Elec       q    Type
REMARK                         _______ _______ _______ _____ _____    ______ ____
ROOT
ATOM      1  N   UNL     1       5.334  -2.737   2.015  0.00  0.00    -0.278 N 
ATOM      2  C   UNL     1       5.754  -3.781   2.758  0.00  0.00    +0.303 C 
ATOM      3  O   UNL     1       6.150  -3.599   3.891  0.00  0.00    -0.265 OA
ATOM      4  H   UNL     1       4.947  -2.891   1.139  0.00  0.00    +0.155 HD
ENDROOT
BRANCH   1  12
ATOM      5  N   UNL     1       3.641   1.758   2.368  0.00  0.00    -0.202 N 
ATOM      6  C   UNL     1       3.600   3.022   3.116  0.00  0.00    +0.132 C 
ATOM      7  C   UNL     1       5.038   3.544   3.232  0.00  0.00    +0.025 C 
ATOM      8  C   UNL     1       5.862   2.545   4.045  0.00  0.00    +0.038 C 
ATOM      9  C   UNL     1       5.704   1.154   3.487  0.00  0.00    -0.025 A 
ATOM     10  C   UNL     1       4.619   0.811   2.692  0.00  0.00    +0.056 A 
ATOM     11  C   UNL     1       4.495  -0.482   2.200  0.00  0.00    +0.048 A 
ATOM     12  C   UNL     1       5.456  -1.435   2.507  0.00  0.00    +0.036 A 
ATOM     13  C   UNL     1       6.540  -1.090   3.306  0.00  0.00    +0.024 A 
ATOM     14  C   UNL     1       6.664   0.202   3.786  0.00  0.00    +0.007 A 
BRANCH   5  15
ATOM     15  S   UNL     1       2.542   1.456   1.166  0.00  0.00    +0.081 S 
ATOM     16  O   UNL     1       3.201   0.637   0.210  0.00  0.00    -0.149 OA
ATOM     17  O   UNL     1       1.959   2.706   0.825  0.00  0.00    -0.149 OA
BRANCH  15  20
ATOM     18  C   UNL     1      -0.762  -0.083   2.952  0.00  0.00    +0.010 A 
ATOM     19  C   UNL     1       0.110   0.875   2.469  0.00  0.00    +0.036 A 
ATOM     20  C   UNL     1       1.258   0.475   1.869  0.00  0.00    +0.146 A 
ATOM     21  S   UNL     1       1.130  -1.302   1.974  0.00  0.00    -0.077 S 
ATOM     22  C   UNL     1      -0.444  -1.393   2.811  0.00  0.00    +0.047 A 
ENDBRANCH  15  20
ENDBRANCH   5  15
ENDBRANCH   1  12
BRANCH   2  23
ATOM     23  C   UNL     1       5.734  -5.160   2.187  0.00  0.00    +0.299 C 
ATOM     24  O   UNL     1       5.339  -5.342   1.054  0.00  0.00    -0.265 OA
ATOM     25  N   UNL     1       6.154  -6.204   2.929  0.00  0.00    -0.305 N 
ATOM     26  H   UNL     1       6.470  -6.058   3.835  0.00  0.00    +0.149 HD
BRANCH  25  27
ATOM     27  C   UNL     1       6.134  -7.557   2.369  0.00  0.00    +0.138 C 
BRANCH  27  28
ATOM     28  C   UNL     1       6.658  -8.548   3.411  0.00  0.00    +0.164 C 
ATOM     29  C   UNL     1       6.696  -9.987   2.837  0.00  0.00    +0.196 C 
ATOM     30  O   UNL     1       6.571 -10.810   4.014  0.00  0.00    -0.346 OA
ATOM     31  C   UNL     1       5.979 -10.002   5.039  0.00  0.00    +0.171 C 
ATOM     32  O   UNL     1       5.722  -8.692   4.506  0.00  0.00    -0.342 OA
ATOM     33  C   UNL     1       6.941  -9.888   6.223  0.00  0.00    +0.065 C 
ATOM     34  C   UNL     1       7.212 -11.281   6.795  0.00  0.00    +0.005 C 
ATOM     35  C   UNL     1       5.895 -11.907   7.259  0.00  0.00    +0.000 C 
ATOM     36  C   UNL     1       4.939 -12.025   6.070  0.00  0.00    +0.005 C 
ATOM     37  C   UNL     1       4.664 -10.633   5.497  0.00  0.00    +0.065 C 
ENDBRANCH  27  28
ENDBRANCH  25  27
ENDBRANCH   2  23
TORSDOF 6
