REMARK  Name = ZINC09090559
REMARK  11 active torsions:
REMARK  status: ('A' for Active; 'I' for Inactive)
REMARK    1  A    between atoms: C_1  and  C_2
REMARK    2  A    between atoms: C_5  and  O_12
REMARK    3  A    between atoms: C_8  and  C_10
REMARK    4  A    between atoms: C_8  and  C_11
REMARK    5  A    between atoms: O_12  and  P_13
REMARK    6  A    between atoms: P_13  and  C_15
REMARK    7  A    between atoms: C_18  and  N_29
REMARK    8  A    between atoms: C_20  and  N_21
REMARK    9  A    between atoms: C_22  and  C_24
REMARK   10  A    between atoms: N_29  and  C_30
REMARK   11  A    between atoms: N_29  and  C_31
REMARK                            x       y       z     vdW  Elec       q    Type
REMARK                         _______ _______ _______ _____ _____    ______ ____
ROOT
ATOM      1  C   UNL     1      -2.633  -4.294  -2.162  0.00  0.00    +0.069 A 
ATOM      2  C   UNL     1      -3.128  -5.234  -1.278  0.00  0.00    +0.018 A 
ATOM      3  C   UNL     1      -4.490  -5.344  -1.074  0.00  0.00    +0.024 A 
ATOM      4  C   UNL     1      -5.367  -4.510  -1.757  0.00  0.00    +0.031 A 
ATOM      5  C   UNL     1      -4.872  -3.565  -2.645  0.00  0.00    +0.047 A 
ATOM      6  C   UNL     1      -3.504  -3.453  -2.843  0.00  0.00    +0.049 A 
ENDROOT
BRANCH   6   7
ATOM      7  N   UNL     1      -3.001  -2.498  -3.733  0.00  0.00    -0.280 N 
ATOM      8  C   UNL     1      -3.756  -2.079  -4.768  0.00  0.00    +0.255 C 
ATOM      9  O   UNL     1      -4.838  -2.593  -4.980  0.00  0.00    -0.269 OA
ATOM     10  H   UNL     1      -2.110  -2.137  -3.605  0.00  0.00    +0.155 HD
BRANCH   8  11
ATOM     11  C   UNL     1      -3.272  -1.004  -5.639  0.00  0.00    +0.074 A 
ATOM     12  C   UNL     1      -3.887  -0.428  -6.741  0.00  0.00    +0.021 A 
ATOM     13  C   UNL     1      -3.180   0.572  -7.364  0.00  0.00    +0.008 A 
ATOM     14  C   UNL     1      -1.964   0.922  -6.877  0.00  0.00    +0.046 A 
ATOM     15  S   UNL     1      -1.744  -0.089  -5.554  0.00  0.00    -0.092 S 
ENDBRANCH   8  11
ENDBRANCH   6   7
BRANCH   1  16
ATOM     16  P   UNL     1      -0.844  -4.153  -2.426  0.00  0.00    +0.301 P 
ATOM     17  O   UNL     1      -0.191  -5.434  -2.075  0.00  0.00    -0.273 OA
ATOM     18  S   UNL     1      -0.464  -3.701  -4.462  0.00  0.00    +0.013 SA
BRANCH  16  19
ATOM     19  O   UNL     1      -0.255  -2.977  -1.497  0.00  0.00    -0.313 OA
BRANCH  19  23
ATOM     20  C   UNL     1       0.666   1.200  -1.344  0.00  0.00    +0.007 C 
ATOM     21  C   UNL     1       0.511  -0.263  -0.924  0.00  0.00    -0.011 C 
ATOM     22  C   UNL     1       1.283  -1.157  -1.897  0.00  0.00    +0.035 C 
ATOM     23  C   UNL     1       1.128  -2.620  -1.478  0.00  0.00    +0.128 C 
ATOM     24  C   UNL     1       1.684  -2.807  -0.064  0.00  0.00    +0.038 C 
ATOM     25  C   UNL     1       0.912  -1.913   0.909  0.00  0.00    -0.032 C 
ATOM     26  C   UNL     1       1.067  -0.450   0.489  0.00  0.00    +0.009 C 
ATOM     27  C   UNL     1       1.468  -2.099   2.322  0.00  0.00    +0.011 C 
ATOM     28  C   UNL     1      -0.569  -2.296   0.888  0.00  0.00    +0.011 C 
ENDBRANCH  19  23
ENDBRANCH  16  19
ENDBRANCH   1  16
BRANCH   4  29
ATOM     29  N   UNL     1      -6.743  -4.622  -1.550  0.00  0.00    -0.336 N 
ATOM     30  C   UNL     1      -7.264  -5.621  -0.613  0.00  0.00    +0.129 C 
ATOM     31  C   UNL     1      -7.667  -3.742  -2.270  0.00  0.00    +0.129 C 
ENDBRANCH   4  29
TORSDOF 6
