REMARK  Name = ZINC13306195
REMARK  8 active torsions:
REMARK  status: ('A' for Active; 'I' for Inactive)
REMARK    1  A    between atoms: C_1  and  C_2
REMARK    2  A    between atoms: C_2  and  N_3
REMARK    3  A    between atoms: N_3  and  C_4
REMARK    4  A    between atoms: C_7  and  C_34
REMARK    5  A    between atoms: C_9  and  N_10
REMARK    6  A    between atoms: N_12  and  C_27
REMARK    7  A    between atoms: N_17  and  C_25
REMARK    8  A    between atoms: C_27  and  C_28
REMARK                            x       y       z     vdW  Elec       q    Type
REMARK                         _______ _______ _______ _____ _____    ______ ____
ROOT
ATOM      1  N   UNL     1       2.118  -1.406  -3.400  0.00  0.00    -0.224 NA
ATOM      2  C   UNL     1       2.773  -1.826  -4.462  0.00  0.00    +0.169 C 
ATOM      3  N   UNL     1       3.348  -1.088  -5.478  0.00  0.00    -0.242 N 
ATOM      4  C   UNL     1       3.974  -1.702  -6.466  0.00  0.00    +0.262 C 
ATOM      5  O   UNL     1       4.490  -1.061  -7.367  0.00  0.00    -0.269 OA
ATOM      6  C   UNL     1       4.029  -3.108  -6.467  0.00  0.00    +0.106 C 
ATOM      7  C   UNL     1       4.616  -3.963  -7.388  0.00  0.00    +0.092 C 
ATOM      8  N   UNL     1       5.425  -3.656  -8.450  0.00  0.00    -0.296 N 
ATOM      9  C   UNL     1       5.916  -4.662  -9.262  0.00  0.00    +0.048 A 
ATOM     10  C   UNL     1       6.752  -4.525 -10.384  0.00  0.00    +0.024 A 
ATOM     11  C   UNL     1       7.162  -5.625 -11.098  0.00  0.00    +0.002 A 
ATOM     12  C   UNL     1       6.769  -6.903 -10.737  0.00  0.00    +0.001 A 
ATOM     13  C   UNL     1       5.946  -7.069  -9.637  0.00  0.00    +0.017 A 
ATOM     14  C   UNL     1       5.535  -5.969  -8.923  0.00  0.00    +0.035 A 
ATOM     15  S   UNL     1       4.516  -5.742  -7.486  0.00  0.00    -0.071 S 
ATOM     16  C   UNL     1       5.770  -2.259  -8.727  0.00  0.00    +0.136 C 
ATOM     17  S   UNL     1       3.142  -3.500  -4.966  0.00  0.00    -0.046 S 
ENDROOT
BRANCH   1  23
ATOM     18  C   UNL     1       0.485  -2.151  -1.802  0.00  0.00    +0.053 A 
ATOM     19  C   UNL     1       0.089  -3.060  -0.831  0.00  0.00    +0.026 A 
ATOM     20  C   UNL     1       0.914  -4.108  -0.483  0.00  0.00    +0.021 A 
ATOM     21  C   UNL     1       2.156  -4.262  -1.106  0.00  0.00    +0.054 A 
ATOM     22  C   UNL     1       2.564  -3.353  -2.084  0.00  0.00    +0.048 A 
ATOM     23  C   UNL     1       1.728  -2.299  -2.438  0.00  0.00    +0.088 A 
BRANCH  18  24
ATOM     24  N   UNL     1      -0.354  -1.093  -2.150  0.00  0.00    -0.342 N 
ATOM     25  H   UNL     1      -0.078  -0.458  -2.828  0.00  0.00    +0.146 HD
BRANCH  24  27
ATOM     26  C   UNL     1      -2.370   0.289  -2.051  0.00  0.00    +0.024 C 
ATOM     27  C   UNL     1      -1.654  -0.942  -1.490  0.00  0.00    +0.098 C 
ENDBRANCH  24  27
ENDBRANCH  18  24
BRANCH  21  28
ATOM     28  C   UNL     1       3.010  -5.353  -0.742  0.00  0.00    +0.099 C 
ATOM     29  N   UNL     1       3.687  -6.218  -0.452  0.00  0.00    -0.191 NA
ENDBRANCH  21  28
ENDBRANCH   1  23
BRANCH   3  30
ATOM     30  C   UNL     1       3.268   0.375  -5.456  0.00  0.00    +0.151 C 
BRANCH  30  31
ATOM     31  C   UNL     1       4.459   0.932  -4.720  0.00  0.00    -0.030 A 
ATOM     32  C   UNL     1       4.390   1.145  -3.356  0.00  0.00    +0.005 A 
ATOM     33  C   UNL     1       5.484   1.652  -2.679  0.00  0.00    +0.000 A 
ATOM     34  C   UNL     1       6.643   1.955  -3.368  0.00  0.00    +0.000 A 
ATOM     35  C   UNL     1       6.710   1.747  -4.733  0.00  0.00    +0.000 A 
ATOM     36  C   UNL     1       5.618   1.236  -5.409  0.00  0.00    +0.005 A 
ENDBRANCH  30  31
ENDBRANCH   3  30
TORSDOF 6
