REMARK  Name = ZINC26084619
REMARK  6 active torsions:
REMARK  status: ('A' for Active; 'I' for Inactive)
REMARK    1  A    between atoms: C_1  and  C_2
REMARK    2  A    between atoms: C_4  and  C_29
REMARK    3  A    between atoms: C_6  and  C_24
REMARK    4  A    between atoms: C_10  and  C_11
REMARK    5  A    between atoms: N_13  and  C_14
REMARK    6  A    between atoms: C_18  and  N_20
REMARK                            x       y       z     vdW  Elec       q    Type
REMARK                         _______ _______ _______ _____ _____    ______ ____
ROOT
ATOM      1  C   UNL     1      -1.856   6.722   0.591  0.00  0.00    +0.046 C 
ATOM      2  C   UNL     1      -2.996   5.737   0.552  0.00  0.00    -0.020 A 
ATOM      3  C   UNL     1      -4.322   6.196   0.552  0.00  0.00    +0.032 A 
ATOM      4  C   UNL     1      -4.808   7.529   0.583  0.00  0.00    +0.051 A 
ATOM      5  N   UNL     1      -6.102   7.745   0.575  0.00  0.00    -0.229 NA
ATOM      6  C   UNL     1      -6.990   6.752   0.539  0.00  0.00    +0.197 A 
ATOM      7  N   UNL     1      -6.598   5.481   0.509  0.00  0.00    -0.217 NA
ATOM      8  C   UNL     1      -5.319   5.185   0.514  0.00  0.00    +0.113 A 
ATOM      9  S   UNL     1      -4.375   3.683   0.475  0.00  0.00    -0.064 S 
ATOM     10  C   UNL     1      -2.742   4.401   0.518  0.00  0.00    +0.080 A 
ATOM     11  C   UNL     1      -3.846   8.688   0.625  0.00  0.00    +0.066 C 
ENDROOT
BRANCH   6  12
ATOM     12  C   UNL     1      -8.430   7.066   0.533  0.00  0.00    +0.172 A 
ATOM     13  C   UNL     1      -9.447   6.160   0.498  0.00  0.00    +0.053 A 
ATOM     14  C   UNL     1     -10.646   6.896   0.506  0.00  0.00    +0.042 A 
ATOM     15  C   UNL     1     -10.309   8.202   0.545  0.00  0.00    +0.196 A 
ATOM     16  O   UNL     1      -8.971   8.300   0.566  0.00  0.00    -0.460 OA
ENDBRANCH   6  12
BRANCH  10  17
ATOM     17  C   UNL     1      -1.442   3.717   0.512  0.00  0.00    +0.255 C 
ATOM     18  O   UNL     1      -0.413   4.366   0.539  0.00  0.00    -0.269 OA
ATOM     19  N   UNL     1      -1.389   2.371   0.475  0.00  0.00    -0.281 N 
ATOM     20  H   UNL     1      -2.316   1.786   0.374  0.00  0.00    +0.155 HD
BRANCH  19  21
ATOM     21  C   UNL     1      -0.156   1.717   0.567  0.00  0.00    +0.036 A 
ATOM     22  C   UNL     1       0.974   2.277  -0.016  0.00  0.00    +0.026 A 
ATOM     23  C   UNL     1       2.189   1.627   0.071  0.00  0.00    +0.042 A 
ATOM     24  C   UNL     1       2.282   0.417   0.738  0.00  0.00    +0.154 A 
ATOM     25  C   UNL     1       1.157  -0.143   1.319  0.00  0.00    +0.163 A 
ATOM     26  C   UNL     1      -0.060   0.503   1.235  0.00  0.00    +0.059 A 
ATOM     27  F   UNL     1       3.472  -0.217   0.823  0.00  0.00    -0.203 F 
BRANCH  25  28
ATOM     28  N   UNL     1       1.260  -1.437   2.032  0.00  0.00    +0.059 N 
ATOM     29  O   UNL     1       0.271  -1.931   2.543  0.00  0.00    -0.126 OA
ATOM     30  O   UNL     1       2.333  -2.008   2.106  0.00  0.00    -0.126 OA
ENDBRANCH  25  28
ENDBRANCH  19  21
ENDBRANCH  10  17
TORSDOF 4
