REMARK  Name = ZINC07665042
REMARK  4 active torsions:
REMARK  status: ('A' for Active; 'I' for Inactive)
REMARK    1  A    between atoms: C_4  and  C_11
REMARK    2  A    between atoms: C_11  and  S_12
REMARK    3  A    between atoms: S_12  and  C_13
REMARK    4  A    between atoms: N_14  and  C_15
REMARK                            x       y       z     vdW  Elec       q    Type
REMARK                         _______ _______ _______ _____ _____    ______ ____
ROOT
ATOM      1  C   UNL     1       3.720  -0.697  -0.043  0.00  0.00    +0.116 C 
ENDROOT
BRANCH   1   5
ATOM      2  C   UNL     1      -0.017   1.378   0.010  0.00  0.00    +0.029 A 
ATOM      3  C   UNL     1       1.171   2.088   0.002  0.00  0.00    +0.042 A 
ATOM      4  C   UNL     1       2.380   1.416  -0.014  0.00  0.00    +0.028 A 
ATOM      5  C   UNL     1       2.403   0.035  -0.024  0.00  0.00    +0.006 A 
ATOM      6  C   UNL     1       1.213  -0.679  -0.017  0.00  0.00    +0.133 A 
ATOM      7  C   UNL     1       0.002  -0.004   0.002  0.00  0.00    +0.022 A 
ATOM      8  C   UNL     1      -1.298  -0.768   0.019  0.00  0.00    +0.202 C 
ATOM      9  O   UNL     1      -1.054  -2.125  -0.363  0.00  0.00    -0.339 OA
ATOM     10  C   UNL     1       0.043  -2.718   0.342  0.00  0.00    +0.394 C 
ATOM     11  O   UNL     1       1.245  -2.039  -0.030  0.00  0.00    -0.466 OA
ATOM     12 CL   UNL     1       1.143   3.824   0.013  0.00  0.00    -0.084 Cl
ENDBRANCH   1   5
BRANCH   1  13
ATOM     13  S   UNL     1       4.267  -1.002   1.659  0.00  0.00    -0.088 S 
BRANCH  13  14
ATOM     14  C   UNL     1       5.799  -1.853   1.469  0.00  0.00    +0.126 C 
ATOM     15  N   UNL     1       6.472  -2.227   2.521  0.00  0.00    -0.365 N 
ATOM     16  N   UNL     1       6.285  -2.121   0.210  0.00  0.00    -0.339 N 
ATOM     17  H   UNL     1       5.784  -1.842  -0.573  0.00  0.00    +0.144 HD
ATOM     18  H   UNL     1       7.128  -2.589   0.105  0.00  0.00    +0.144 HD
ATOM     19  H   UNL     1       6.129  -2.038   3.409  0.00  0.00    +0.162 HD
BRANCH  15  20
ATOM     20  C   UNL     1       7.745  -2.934   2.363  0.00  0.00    +0.081 C 
ATOM     21  C   UNL     1       7.496  -4.452   2.250  0.00  0.00    +0.024 C 
ATOM     22  C   UNL     1       8.682  -5.090   3.017  0.00  0.00    +0.002 C 
ATOM     23  C   UNL     1       8.877  -4.122   4.210  0.00  0.00    +0.002 C 
ATOM     24  C   UNL     1       8.623  -2.724   3.609  0.00  0.00    +0.024 C 
ENDBRANCH  15  20
ENDBRANCH  13  14
ENDBRANCH   1  13
TORSDOF 4
