REMARK  Name = ZINC14731266
REMARK  7 active torsions:
REMARK  status: ('A' for Active; 'I' for Inactive)
REMARK    1  A    between atoms: C_1  and  C_2
REMARK    2  A    between atoms: C_6  and  C_12
REMARK    3  A    between atoms: N_16  and  C_19
REMARK    4  A    between atoms: C_19  and  C_20
REMARK    5  A    between atoms: C_26  and  C_27
REMARK    6  A    between atoms: C_26  and  N_63
REMARK    7  A    between atoms: C_31  and  O_33
REMARK                            x       y       z     vdW  Elec       q    Type
REMARK                         _______ _______ _______ _____ _____    ______ ____
ROOT
ATOM      1  C   UNL     1      -4.356   0.103  -0.214  0.00  0.00    +0.047 A 
ATOM      2  C   UNL     1      -4.494  -0.838   0.792  0.00  0.00    +0.017 A 
ATOM      3  C   UNL     1      -3.519  -0.926   1.798  0.00  0.00    -0.044 A 
ATOM      4  C   UNL     1      -2.451  -0.097   1.775  0.00  0.00    +0.022 A 
ATOM      5  N   UNL     1      -2.317   0.835   0.788  0.00  0.00    -0.311 N 
ATOM      6  C   UNL     1      -3.227   0.961  -0.192  0.00  0.00    +0.259 A 
ATOM      7  O   UNL     1      -3.081   1.805  -1.060  0.00  0.00    -0.267 OA
ATOM      8  C   UNL     1      -1.369  -0.169   2.823  0.00  0.00    +0.035 C 
ATOM      9  C   UNL     1      -1.870  -0.938   4.045  0.00  0.00    -0.072 C 
ATOM     10  C   UNL     1      -3.713  -1.956   2.880  0.00  0.00    -0.041 C 
ATOM     11  N   UNL     1      -2.440  -2.215   3.569  0.00  0.00    +0.385 N 
ATOM     12  H   UNL     1      -1.784  -2.651   2.911  0.00  0.00    -0.081 HD
ENDROOT
BRANCH   1  18
ATOM     13  C   UNL     1      -5.725  -3.531  -5.495  0.00  0.00    +0.065 C 
ATOM     14  C   UNL     1      -5.619  -2.539  -4.366  0.00  0.00    +0.039 A 
ATOM     15  C   UNL     1      -4.636  -2.718  -3.396  0.00  0.00    +0.024 A 
ATOM     16  C   UNL     1      -4.525  -1.827  -2.365  0.00  0.00    +0.012 A 
ATOM     17  C   UNL     1      -5.418  -0.743  -2.327  0.00  0.00    +0.008 A 
ATOM     18  C   UNL     1      -5.367   0.216  -1.287  0.00  0.00    -0.004 A 
ATOM     19  C   UNL     1      -6.273   1.264  -1.289  0.00  0.00    +0.009 A 
ATOM     20  C   UNL     1      -7.226   1.373  -2.295  0.00  0.00    +0.003 A 
ATOM     21  C   UNL     1      -7.296   0.459  -3.303  0.00  0.00    +0.028 A 
ATOM     22  C   UNL     1      -6.397  -0.622  -3.342  0.00  0.00    +0.072 A 
ATOM     23  N   UNL     1      -6.453  -1.528  -4.323  0.00  0.00    -0.252 NA
ENDBRANCH   1  18
BRANCH   5  24
ATOM     24  C   UNL     1      -1.154   1.726   0.801  0.00  0.00    +0.128 C 
BRANCH  24  25
ATOM     25  C   UNL     1      -0.013   1.086   0.008  0.00  0.00    +0.009 C 
ATOM     26  C   UNL     1       0.460   1.806  -1.256  0.00  0.00    +0.005 C 
ATOM     27  C   UNL     1       1.335   1.811  -0.001  0.00  0.00    +0.005 C 
ENDBRANCH  24  25
ENDBRANCH   5  24
BRANCH  11  28
ATOM     28  C   UNL     1      -2.657  -3.131   4.711  0.00  0.00    -0.042 C 
BRANCH  28  29
ATOM     29  C   UNL     1      -3.526  -2.472   5.751  0.00  0.00    -0.060 A 
ATOM     30  C   UNL     1      -4.901  -2.609   5.691  0.00  0.00    +0.002 A 
ATOM     31  C   UNL     1      -5.700  -2.006   6.644  0.00  0.00    +0.004 A 
ATOM     32  C   UNL     1      -5.127  -1.264   7.659  0.00  0.00    +0.045 A 
ATOM     33  C   UNL     1      -3.748  -1.125   7.722  0.00  0.00    +0.117 A 
ATOM     34  C   UNL     1      -2.948  -1.736   6.767  0.00  0.00    +0.047 A 
BRANCH  33  35
ATOM     35  O   UNL     1      -3.182  -0.397   8.720  0.00  0.00    -0.507 OA
ATOM     36  H   UNL     1      -2.968  -0.912   9.509  0.00  0.00    +0.292 HD
ENDBRANCH  33  35
ENDBRANCH  28  29
ENDBRANCH  11  28
TORSDOF 6
