REMARK  Name = ZINC01817833
REMARK  14 active torsions:
REMARK  status: ('A' for Active; 'I' for Inactive)
REMARK    1  A    between atoms: C_1  and  C_2
REMARK    2  A    between atoms: C_2  and  O_3
REMARK    3  A    between atoms: O_3  and  C_4
REMARK    4  A    between atoms: C_7  and  S_26
REMARK    5  A    between atoms: C_9  and  C_10
REMARK    6  A    between atoms: C_18  and  C_22
REMARK    7  A    between atoms: N_20  and  C_21
REMARK    8  A    between atoms: C_22  and  C_23
REMARK    9  A    between atoms: C_22  and  C_24
REMARK   10  A    between atoms: C_22  and  C_25
REMARK   11  A    between atoms: S_26  and  N_29
REMARK   12  A    between atoms: N_29  and  C_30
REMARK   13  A    between atoms: C_33  and  O_38
REMARK   14  A    between atoms: C_34  and  C_36
REMARK                            x       y       z     vdW  Elec       q    Type
REMARK                         _______ _______ _______ _____ _____    ______ ____
ROOT
ATOM      1  C   UNL     1      -5.207  -4.182  -0.264  0.00  0.00    +0.131 A 
ATOM      2  C   UNL     1      -4.511  -5.253  -0.803  0.00  0.00    +0.048 A 
ATOM      3  C   UNL     1      -3.212  -5.504  -0.408  0.00  0.00    +0.032 A 
ATOM      4  C   UNL     1      -2.594  -4.689   0.526  0.00  0.00    +0.109 A 
ATOM      5  C   UNL     1      -3.273  -3.623   1.075  0.00  0.00    +0.044 A 
ATOM      6  C   UNL     1      -4.586  -3.356   0.681  0.00  0.00    +0.061 A 
ENDROOT
BRANCH   6   7
ATOM      7  C   UNL     1      -5.317  -2.212   1.261  0.00  0.00    +0.145 A 
ATOM      8  N   UNL     1      -4.690  -1.423   2.187  0.00  0.00    -0.305 N 
ATOM      9  H   UNL     1      -3.751  -1.630   2.462  0.00  0.00    +0.170 HD
ATOM     10  C   UNL     1      -5.333  -0.367   2.732  0.00  0.00    +0.278 A 
ATOM     11  O   UNL     1      -4.781   0.344   3.554  0.00  0.00    -0.265 OA
ATOM     12  C   UNL     1      -6.664  -0.109   2.329  0.00  0.00    +0.151 A 
ATOM     13  C   UNL     1      -7.257  -0.953   1.381  0.00  0.00    +0.120 A 
ATOM     14  N   UNL     1      -6.551  -1.985   0.878  0.00  0.00    -0.225 NA
ATOM     15  C   UNL     1      -8.564  -0.473   1.165  0.00  0.00    +0.094 A 
ATOM     16  N   UNL     1      -8.755   0.576   1.918  0.00  0.00    -0.173 NA
ATOM     17  N   UNL     1      -7.594   0.837   2.659  0.00  0.00    -0.260 N 
ATOM     18  C   UNL     1      -7.410   1.929   3.617  0.00  0.00    +0.173 C 
BRANCH  15  19
ATOM     19  C   UNL     1      -9.575  -1.072   0.221  0.00  0.00    +0.008 C 
ATOM     20  C   UNL     1      -9.861  -2.518   0.632  0.00  0.00    +0.017 C 
ATOM     21  C   UNL     1     -10.870  -0.259   0.278  0.00  0.00    +0.017 C 
ATOM     22  C   UNL     1      -9.019  -1.047  -1.204  0.00  0.00    +0.017 C 
ENDBRANCH  15  19
ENDBRANCH   6   7
BRANCH   4  23
ATOM     23  S   UNL     1      -0.936  -5.021   1.020  0.00  0.00    +0.072 S 
ATOM     24  O   UNL     1      -0.706  -6.401   0.771  0.00  0.00    -0.150 OA
ATOM     25  O   UNL     1      -0.772  -4.442   2.307  0.00  0.00    -0.150 OA
BRANCH  23  26
ATOM     26  N   UNL     1       0.058  -4.183  -0.006  0.00  0.00    -0.216 N 
ATOM     27  H   UNL     1       0.653  -4.662  -0.604  0.00  0.00    +0.174 HD
BRANCH  26  28
ATOM     28  C   UNL     1       0.039  -2.784  -0.011  0.00  0.00    +0.049 A 
ATOM     29  C   UNL     1       0.041  -2.085   1.193  0.00  0.00    +0.028 A 
ATOM     30  C   UNL     1       0.023  -0.706   1.198  0.00  0.00    +0.048 A 
ATOM     31  C   UNL     1       0.002  -0.004   0.002  0.00  0.00    +0.131 A 
ATOM     32  C   UNL     1      -0.006  -0.700  -1.214  0.00  0.00    +0.106 A 
ATOM     33  C   UNL     1       0.019  -2.097  -1.212  0.00  0.00    +0.043 A 
BRANCH  32  34
ATOM     34  C   UNL     1      -0.034   0.038  -2.490  0.00  0.00    +0.390 C 
ATOM     35  O   UNL     1      -0.050   1.253  -2.488  0.00  0.00    -0.240 OA
ATOM     36  O   UNL     1      -0.041  -0.634  -3.658  0.00  0.00    -0.240 OA
ENDBRANCH  32  34
BRANCH  31  37
ATOM     37  O   UNL     1      -0.016   1.353   0.009  0.00  0.00    -0.506 OA
ATOM     38  H   UNL     1       0.862   1.758   0.003  0.00  0.00    +0.292 HD
ENDBRANCH  31  37
ENDBRANCH  26  28
ENDBRANCH  23  26
ENDBRANCH   4  23
BRANCH   1  39
ATOM     39  O   UNL     1      -6.484  -3.935  -0.652  0.00  0.00    -0.492 OA
BRANCH  39  41
ATOM     40  C   UNL     1      -8.485  -4.385  -1.930  0.00  0.00    +0.048 C 
ATOM     41  C   UNL     1      -7.051  -4.819  -1.620  0.00  0.00    +0.226 C 
ENDBRANCH  39  41
ENDBRANCH   1  39
TORSDOF 9
