REMARK  Name = ZINC32766143
REMARK  15 active torsions:
REMARK  status: ('A' for Active; 'I' for Inactive)
REMARK    1  A    between atoms: C_1  and  C_2
REMARK    2  A    between atoms: C_2  and  C_3
REMARK    3  A    between atoms: C_2  and  C_4
REMARK    4  A    between atoms: C_4  and  N_5
REMARK    5  A    between atoms: C_8  and  C_15
REMARK    6  A    between atoms: C_10  and  C_12
REMARK    7  A    between atoms: C_12  and  C_13
REMARK    8  A    between atoms: C_12  and  C_14
REMARK    9  A    between atoms: N_17  and  C_18
REMARK   10  A    between atoms: C_18  and  C_19
REMARK   11  A    between atoms: C_19  and  C_20
REMARK   12  A    between atoms: C_20  and  N_21
REMARK   13  A    between atoms: N_21  and  C_22
REMARK   14  A    between atoms: N_21  and  C_23
REMARK   15  A    between atoms: C_23  and  C_24
REMARK                            x       y       z     vdW  Elec       q    Type
REMARK                         _______ _______ _______ _____ _____    ______ ____
ROOT
ATOM      1  N   UNL     1      -0.337   0.133   2.153  0.00  0.00    -0.278 N 
ATOM      2  C   UNL     1       0.085   1.206   2.919  0.00  0.00    +0.151 A 
ATOM      3  C   UNL     1      -0.655   1.543   4.066  0.00  0.00    +0.094 A 
ATOM      4  C   UNL     1      -0.246   2.627   4.858  0.00  0.00    +0.054 A 
ATOM      5  C   UNL     1       0.894   3.327   4.459  0.00  0.00    +0.037 A 
ATOM      6  C   UNL     1       1.567   2.930   3.315  0.00  0.00    +0.047 A 
ATOM      7  N   UNL     1       1.157   1.907   2.591  0.00  0.00    -0.233 NA
ATOM      8  C   UNL     1      -1.843   0.739   4.398  0.00  0.00    +0.264 A 
ATOM      9  O   UNL     1      -2.515   0.993   5.380  0.00  0.00    -0.267 OA
ATOM     10  N   UNL     1      -2.167  -0.289   3.582  0.00  0.00    -0.274 N 
ATOM     11  H   UNL     1      -2.946  -0.831   3.783  0.00  0.00    +0.173 HD
ATOM     12  C   UNL     1      -1.431  -0.568   2.495  0.00  0.00    +0.331 A 
ATOM     13  O   UNL     1      -1.767  -1.499   1.790  0.00  0.00    -0.246 OA
ENDROOT
BRANCH   4  14
ATOM     14  C   UNL     1      -0.999   3.015   6.074  0.00  0.00    +0.245 C 
ATOM     15  O   UNL     1      -2.197   3.208   6.012  0.00  0.00    -0.270 OA
ATOM     16  N   UNL     1      -0.354   3.154   7.250  0.00  0.00    -0.311 N 
ATOM     17  H   UNL     1       0.602   3.000   7.300  0.00  0.00    +0.149 HD
BRANCH  16  18
ATOM     18  C   UNL     1      -1.098   3.538   8.452  0.00  0.00    +0.102 C 
BRANCH  18  19
ATOM     19  C   UNL     1      -0.137   3.625   9.640  0.00  0.00    +0.000 C 
BRANCH  19  20
ATOM     20  C   UNL     1      -0.914   4.026  10.896  0.00  0.00    -0.077 C 
BRANCH  20  21
ATOM     21  N   UNL     1       0.008   4.109  12.036  0.00  0.00    +0.381 N 
ATOM     22  C   UNL     1       0.969   5.197  11.810  0.00  0.00    -0.096 C 
ATOM     23  H   UNL     1       0.505   3.236  12.132  0.00  0.00    -0.082 HD
BRANCH  21  24
ATOM     24  C   UNL     1      -0.753   4.376  13.263  0.00  0.00    -0.043 C 
BRANCH  24  25
ATOM     25  C   UNL     1       0.176   4.340  14.449  0.00  0.00    -0.064 A 
ATOM     26  C   UNL     1       0.399   3.150  15.116  0.00  0.00    +0.002 A 
ATOM     27  C   UNL     1       1.252   3.117  16.204  0.00  0.00    +0.000 A 
ATOM     28  C   UNL     1       1.881   4.274  16.624  0.00  0.00    +0.000 A 
ATOM     29  C   UNL     1       1.658   5.464  15.957  0.00  0.00    +0.000 A 
ATOM     30  C   UNL     1       0.809   5.496  14.867  0.00  0.00    +0.002 A 
ENDBRANCH  24  25
ENDBRANCH  21  24
ENDBRANCH  20  21
ENDBRANCH  19  20
ENDBRANCH  18  19
ENDBRANCH  16  18
ENDBRANCH   4  14
BRANCH   6  31
ATOM     31  C   UNL     1       2.797   3.688   2.886  0.00  0.00    +0.032 C 
ATOM     32  C   UNL     1       2.383   4.903   2.053  0.00  0.00    +0.014 C 
ATOM     33  C   UNL     1       3.565   4.155   4.124  0.00  0.00    +0.014 C 
ENDBRANCH   6  31
BRANCH   1  34
ATOM     34  C   UNL     1       0.415  -0.239   0.953  0.00  0.00    +0.131 C 
BRANCH  34  36
ATOM     35  C   UNL     1       0.109   2.021  -0.068  0.00  0.00    +0.009 C 
ATOM     36  C   UNL     1      -0.139   0.522  -0.253  0.00  0.00    +0.003 C 
ATOM     37  C   UNL     1       0.562   0.042  -1.526  0.00  0.00    +0.009 C 
ENDBRANCH  34  36
ENDBRANCH   1  34
TORSDOF 10
