REMARK  Name = ZINC03272388
REMARK  6 active torsions:
REMARK  status: ('A' for Active; 'I' for Inactive)
REMARK    1  A    between atoms: C_1  and  C_2
REMARK    2  A    between atoms: C_5  and  N_8
REMARK    3  A    between atoms: C_9  and  N_28
REMARK    4  A    between atoms: C_10  and  C_14
REMARK    5  A    between atoms: C_14  and  C_16
REMARK    6  A    between atoms: C_25  and  C_27
REMARK                            x       y       z     vdW  Elec       q    Type
REMARK                         _______ _______ _______ _____ _____    ______ ____
ROOT
ATOM      1  N   UNL     1       5.904   0.282  -1.193  0.00  0.00    -0.285 N 
ATOM      2  C   UNL     1       4.763  -0.178  -0.643  0.00  0.00    +0.119 A 
ATOM      3  C   UNL     1       3.701   0.715  -0.536  0.00  0.00    +0.096 A 
ATOM      4  S   UNL     1       4.408   2.191  -1.251  0.00  0.00    -0.057 S 
ATOM      5  C   UNL     1       5.983   1.562  -1.614  0.00  0.00    +0.132 A 
ATOM      6  S   UNL     1       7.311   2.365  -2.336  0.00  0.00    -0.024 S 
ENDROOT
BRANCH   1  11
ATOM      7  C   UNL     1      10.379  -3.165  -1.740  0.00  0.00    +0.044 C 
ATOM      8  C   UNL     1       9.190  -2.250  -1.595  0.00  0.00    -0.050 A 
ATOM      9  C   UNL     1       8.559  -1.756  -2.721  0.00  0.00    +0.005 A 
ATOM     10  C   UNL     1       7.469  -0.917  -2.591  0.00  0.00    +0.026 A 
ATOM     11  C   UNL     1       7.009  -0.570  -1.328  0.00  0.00    +0.049 A 
ATOM     12  C   UNL     1       7.648  -1.064  -0.199  0.00  0.00    +0.026 A 
ATOM     13  C   UNL     1       8.734  -1.907  -0.336  0.00  0.00    +0.005 A 
ENDBRANCH   1  11
BRANCH   2  14
ATOM     14  N   UNL     1       4.652  -1.475  -0.205  0.00  0.00    -0.343 N 
ATOM     15  H   UNL     1       3.821  -1.785   0.188  0.00  0.00    +0.144 HD
ATOM     16  H   UNL     1       5.405  -2.081  -0.288  0.00  0.00    +0.144 HD
ENDBRANCH   2  14
BRANCH   3  17
ATOM     17  C   UNL     1       2.420   0.510  -0.014  0.00  0.00    +0.182 C 
ATOM     18  O   UNL     1       2.112  -0.579   0.431  0.00  0.00    -0.291 OA
BRANCH  17  19
ATOM     19  C   UNL     1       1.422   1.639  -0.003  0.00  0.00    +0.112 C 
ATOM     20  C   UNL     1       1.534   2.429   1.282  0.00  0.00    -0.014 A 
ATOM     21  C   UNL     1       2.586   3.149   1.814  0.00  0.00    +0.006 A 
ATOM     22  C   UNL     1       2.441   3.798   3.026  0.00  0.00    +0.000 A 
ATOM     23  C   UNL     1       1.238   3.724   3.706  0.00  0.00    +0.002 A 
ATOM     24  C   UNL     1       0.186   3.007   3.179  0.00  0.00    +0.023 A 
ATOM     25  C   UNL     1       0.325   2.349   1.955  0.00  0.00    +0.031 A 
ATOM     26  N   UNL     1      -0.605   1.579   1.254  0.00  0.00    -0.340 N 
ATOM     27  C   UNL     1      -0.013   1.086   0.008  0.00  0.00    +0.082 C 
ATOM     28  C   UNL     1      -0.793   1.612  -1.198  0.00  0.00    +0.029 C 
ATOM     29  H   UNL     1      -1.511   1.398   1.549  0.00  0.00    +0.146 HD
ENDBRANCH  17  19
ENDBRANCH   3  17
TORSDOF 4
