REMARK  Name = ZINC28901664
REMARK  13 active torsions:
REMARK  status: ('A' for Active; 'I' for Inactive)
REMARK    1  A    between atoms: C_1  and  C_2
REMARK    2  A    between atoms: C_2  and  C_3
REMARK    3  A    between atoms: C_2  and  C_4
REMARK    4  A    between atoms: C_4  and  C_6
REMARK    5  A    between atoms: C_4  and  O_32
REMARK    6  A    between atoms: C_6  and  N_7
REMARK    7  A    between atoms: N_7  and  C_8
REMARK    8  A    between atoms: N_7  and  C_9
REMARK    9  A    between atoms: C_9  and  C_10
REMARK   10  A    between atoms: C_15  and  C_21
REMARK   11  A    between atoms: N_17  and  C_20
REMARK   12  A    between atoms: N_23  and  C_24
REMARK   13  A    between atoms: C_24  and  C_25
REMARK                            x       y       z     vdW  Elec       q    Type
REMARK                         _______ _______ _______ _____ _____    ______ ____
ROOT
ATOM      1  C   UNL     1       0.973  -0.494  -0.572  0.00  0.00    -0.024 A 
ATOM      2  C   UNL     1      -0.237   0.072  -0.699  0.00  0.00    +0.023 A 
ATOM      3  C   UNL     1      -0.330   1.507  -0.906  0.00  0.00    +0.053 A 
ATOM      4  C   UNL     1      -1.540   2.345  -1.065  0.00  0.00    +0.202 A 
ATOM      5  O   UNL     1      -2.655   1.852  -1.032  0.00  0.00    -0.286 OA
ATOM      6  C   UNL     1      -1.358   3.787  -1.268  0.00  0.00    +0.100 A 
ATOM      7  C   UNL     1      -0.084   4.314  -1.294  0.00  0.00    +0.103 A 
ATOM      8  N   UNL     1       0.991   3.523  -1.141  0.00  0.00    -0.343 N 
ATOM      9  C   UNL     1       0.893   2.182  -0.955  0.00  0.00    +0.091 A 
ATOM     10  S   UNL     1       2.088   0.888  -0.726  0.00  0.00    -0.077 S 
ATOM     11  C   UNL     1       2.322   4.132  -1.177  0.00  0.00    +0.149 C 
ENDROOT
BRANCH   6  12
ATOM     12  C   UNL     1      -2.527   4.665  -1.436  0.00  0.00    +0.249 C 
ATOM     13  O   UNL     1      -3.649   4.196  -1.412  0.00  0.00    -0.270 OA
ATOM     14  N   UNL     1      -2.354   5.990  -1.617  0.00  0.00    -0.307 N 
ATOM     15  H   UNL     1      -1.339   6.414  -1.638  0.00  0.00    +0.149 HD
BRANCH  14  16
ATOM     16  C   UNL     1      -3.517   6.864  -1.784  0.00  0.00    +0.139 C 
BRANCH  16  17
ATOM     17  C   UNL     1      -3.054   8.286  -1.968  0.00  0.00    -0.030 A 
ATOM     18  C   UNL     1      -2.893   9.108  -0.868  0.00  0.00    +0.006 A 
ATOM     19  C   UNL     1      -2.463  10.411  -1.035  0.00  0.00    +0.020 A 
ATOM     20  C   UNL     1      -2.205  10.896  -2.304  0.00  0.00    +0.041 A 
ATOM     21  C   UNL     1      -2.373  10.075  -3.406  0.00  0.00    +0.020 A 
ATOM     22  C   UNL     1      -2.797   8.771  -3.237  0.00  0.00    +0.006 A 
ATOM     23 CL   UNL     1      -1.671  12.534  -2.516  0.00  0.00    -0.084 Cl
ENDBRANCH  16  17
ENDBRANCH  14  16
ENDBRANCH   6  12
BRANCH   1  24
ATOM     24  C   UNL     1       1.308  -1.947  -0.354  0.00  0.00    -0.036 C 
BRANCH  24  25
ATOM     25  N   UNL     1       1.470  -2.612  -1.653  0.00  0.00    +0.383 N 
ATOM     26  C   UNL     1       2.639  -2.088  -2.372  0.00  0.00    -0.096 C 
ATOM     27  H   UNL     1       0.577  -2.396  -2.257  0.00  0.00    -0.082 HD
BRANCH  25  28
ATOM     28  C   UNL     1       1.562  -4.070  -1.490  0.00  0.00    -0.047 C 
BRANCH  28  29
ATOM     29  C   UNL     1       0.171  -4.640  -1.205  0.00  0.00    +0.101 C 
BRANCH  29  31
ATOM     30  C   UNL     1       1.200  -6.486   0.127  0.00  0.00    +0.010 C 
ATOM     31  C   UNL     1       0.266  -6.158  -1.039  0.00  0.00    +0.010 C 
ATOM     32  C   UNL     1      -1.125  -6.728  -0.754  0.00  0.00    +0.010 C 
ENDBRANCH  29  31
BRANCH  29  33
ATOM     33  O   UNL     1      -0.702  -4.334  -2.295  0.00  0.00    -0.393 OA
ATOM     34  H   UNL     1      -0.895  -3.285  -2.567  0.00  0.00    +0.210 HD
ENDBRANCH  29  33
ENDBRANCH  28  29
ENDBRANCH  25  28
ENDBRANCH  24  25
ENDBRANCH   1  24
TORSDOF 9
