REMARK  Name = ZINC09465395
REMARK  10 active torsions:
REMARK  status: ('A' for Active; 'I' for Inactive)
REMARK    1  A    between atoms: C_1  and  C_2
REMARK    2  A    between atoms: C_5  and  S_8
REMARK    3  A    between atoms: S_8  and  N_11
REMARK    4  A    between atoms: C_15  and  C_17
REMARK    5  A    between atoms: N_19  and  C_20
REMARK    6  A    between atoms: C_20  and  C_21
REMARK    7  A    between atoms: C_21  and  C_23
REMARK    8  A    between atoms: C_21  and  N_69
REMARK    9  A    between atoms: C_26  and  O_29
REMARK   10  A    between atoms: O_29  and  C_30
REMARK                            x       y       z     vdW  Elec       q    Type
REMARK                         _______ _______ _______ _____ _____    ______ ____
ROOT
ATOM      1  C   UNL     1      -0.074   1.902   2.247  0.00  0.00    +0.232 C 
ATOM      2  O   UNL     1       1.029   1.398   2.260  0.00  0.00    -0.274 OA
ATOM      3  N   UNL     1      -0.771   1.968   1.096  0.00  0.00    -0.315 N 
ATOM      4  H   UNL     1      -1.653   2.372   1.086  0.00  0.00    +0.149 HD
ENDROOT
BRANCH   1   9
ATOM      5  N   UNL     1       0.279   2.267   4.631  0.00  0.00    -0.165 NA
ATOM      6  C   UNL     1      -0.370   1.444   5.667  0.00  0.00    +0.110 C 
ATOM      7  C   UNL     1      -1.459   0.641   4.912  0.00  0.00    +0.019 C 
ATOM      8  C   UNL     1      -1.953   1.685   3.877  0.00  0.00    +0.031 C 
ATOM      9  C   UNL     1      -0.664   2.455   3.519  0.00  0.00    +0.165 C 
BRANCH   5  10
ATOM     10  S   UNL     1       1.816   2.879   4.706  0.00  0.00    +0.062 S 
ATOM     11  O   UNL     1       2.541   2.047   5.603  0.00  0.00    -0.153 OA
ATOM     12  O   UNL     1       2.232   3.098   3.365  0.00  0.00    -0.153 OA
BRANCH  10  17
ATOM     13  C   UNL     1       1.451   8.310   7.309  0.00  0.00    +0.044 C 
ATOM     14  C   UNL     1       1.542   6.954   6.659  0.00  0.00    -0.050 A 
ATOM     15  C   UNL     1       1.731   5.826   7.436  0.00  0.00    +0.005 A 
ATOM     16  C   UNL     1       1.815   4.582   6.840  0.00  0.00    +0.029 A 
ATOM     17  C   UNL     1       1.709   4.465   5.466  0.00  0.00    +0.106 A 
ATOM     18  C   UNL     1       1.524   5.593   4.689  0.00  0.00    +0.029 A 
ATOM     19  C   UNL     1       1.435   6.837   5.285  0.00  0.00    +0.005 A 
ENDBRANCH  10  17
ENDBRANCH   5  10
ENDBRANCH   1   9
BRANCH   3  20
ATOM     20  C   UNL     1      -0.197   1.431  -0.140  0.00  0.00    +0.093 C 
BRANCH  20  21
ATOM     21  C   UNL     1      -1.258   1.443  -1.243  0.00  0.00    -0.020 C 
BRANCH  21  27
ATOM     22  C   UNL     1      -3.444   1.255  -0.220  0.00  0.00    -0.078 C 
ATOM     23  C   UNL     1      -4.621   0.304   0.011  0.00  0.00    -0.019 C 
ATOM     24  C   UNL     1      -4.161  -0.869   0.881  0.00  0.00    -0.004 C 
ATOM     25  C   UNL     1      -2.990  -1.576   0.193  0.00  0.00    -0.019 C 
ATOM     26  C   UNL     1      -1.861  -0.571  -0.043  0.00  0.00    -0.078 C 
ATOM     27  N   UNL     1      -2.361   0.519  -0.907  0.00  0.00    +0.385 N 
ATOM     28  H   UNL     1      -2.732   0.114  -1.774  0.00  0.00    -0.081 HD
ENDBRANCH  21  27
BRANCH  21  29
ATOM     29  C   UNL     1      -0.638   0.995  -2.541  0.00  0.00    -0.059 A 
ATOM     30  C   UNL     1      -0.518  -0.354  -2.819  0.00  0.00    +0.005 A 
ATOM     31  C   UNL     1       0.045  -0.767  -4.011  0.00  0.00    +0.046 A 
ATOM     32  C   UNL     1       0.500   0.172  -4.925  0.00  0.00    +0.120 A 
ATOM     33  C   UNL     1       0.383   1.525  -4.641  0.00  0.00    +0.046 A 
ATOM     34  C   UNL     1      -0.186   1.933  -3.450  0.00  0.00    +0.005 A 
BRANCH  32  35
ATOM     35  O   UNL     1       1.059  -0.232  -6.095  0.00  0.00    -0.495 OA
ATOM     36  C   UNL     1       1.147  -1.641  -6.320  0.00  0.00    +0.277 C 
ENDBRANCH  32  35
ENDBRANCH  21  29
ENDBRANCH  20  21
ENDBRANCH   3  20
TORSDOF 8
