REMARK  Name = ZINC07572180
REMARK  5 active torsions:
REMARK  status: ('A' for Active; 'I' for Inactive)
REMARK    1  A    between atoms: C_4  and  N_10
REMARK    2  A    between atoms: C_6  and  N_7
REMARK    3  A    between atoms: N_10  and  C_11
REMARK    4  A    between atoms: C_11  and  N_13
REMARK    5  A    between atoms: N_13  and  C_14
REMARK                            x       y       z     vdW  Elec       q    Type
REMARK                         _______ _______ _______ _____ _____    ______ ____
ROOT
ATOM      1  N   UNL     1      -4.907   1.192   0.031  0.00  0.00    -0.296 N 
ATOM      2  H   UNL     1      -5.752   1.665   0.101  0.00  0.00    +0.154 HD
ENDROOT
BRANCH   1   6
ATOM      3  C   UNL     1      -1.324   3.318   0.074  0.00  0.00    +0.034 A 
ATOM      4  C   UNL     1      -2.360   3.731  -0.743  0.00  0.00    +0.024 A 
ATOM      5  C   UNL     1      -3.551   3.030  -0.758  0.00  0.00    +0.062 A 
ATOM      6  C   UNL     1      -3.703   1.905   0.044  0.00  0.00    +0.053 A 
ATOM      7  C   UNL     1      -2.658   1.491   0.859  0.00  0.00    +0.057 A 
ATOM      8  C   UNL     1      -1.471   2.197   0.870  0.00  0.00    +0.128 A 
ATOM      9 CL   UNL     1      -4.854   3.552  -1.780  0.00  0.00    -0.082 Cl
BRANCH   8  10
ATOM     10  N   UNL     1      -0.356   1.756   1.738  0.00  0.00    +0.056 N 
ATOM     11  O   UNL     1      -0.487   0.771   2.443  0.00  0.00    -0.126 OA
ATOM     12  O   UNL     1       0.693   2.374   1.744  0.00  0.00    -0.126 OA
ENDBRANCH   8  10
ENDBRANCH   1   6
BRANCH   1  13
ATOM     13  C   UNL     1      -4.894  -0.151  -0.078  0.00  0.00    +0.135 C 
ATOM     14  S   UNL     1      -3.404  -0.994  -0.090  0.00  0.00    -0.019 S 
BRANCH  13  15
ATOM     15  N   UNL     1      -6.053  -0.831  -0.178  0.00  0.00    -0.323 N 
ATOM     16  H   UNL     1      -6.898  -0.353  -0.172  0.00  0.00    +0.148 HD
BRANCH  15  17
ATOM     17  C   UNL     1      -6.039  -2.291  -0.297  0.00  0.00    +0.072 C 
ATOM     18  C   UNL     1      -5.779  -2.669  -1.770  0.00  0.00    +0.022 C 
ATOM     19  C   UNL     1      -5.264  -4.082  -1.816  0.00  0.00    +0.002 C 
ATOM     20  C   UNL     1      -6.386  -5.112  -2.049  0.00  0.00    +0.000 C 
ATOM     21  C   UNL     1      -7.658  -4.803  -1.236  0.00  0.00    +0.000 C 
ATOM     22  C   UNL     1      -7.350  -4.358   0.168  0.00  0.00    +0.002 C 
ATOM     23  C   UNL     1      -7.303  -2.817   0.195  0.00  0.00    +0.022 C 
ENDBRANCH  15  17
ENDBRANCH  13  15
ENDBRANCH   1  13
TORSDOF 5
