REMARK  Name = ZINC56748957
REMARK  2 active torsions:
REMARK  status: ('A' for Active; 'I' for Inactive)
REMARK    1  A    between atoms: N_13  and  C_14
REMARK    2  A    between atoms: C_16  and  N_21
REMARK                            x       y       z     vdW  Elec       q    Type
REMARK                         _______ _______ _______ _____ _____    ______ ____
ROOT
ATOM      1  C   UNL     1       0.259   1.816   0.119  0.00  0.00    +0.000 A 
ATOM      2  C   UNL     1       1.511   2.355  -0.114  0.00  0.00    +0.000 A 
ATOM      3  C   UNL     1       2.614   1.528  -0.165  0.00  0.00    +0.005 A 
ATOM      4  C   UNL     1       2.476   0.159   0.020  0.00  0.00    -0.027 A 
ATOM      5  C   UNL     1       1.232  -0.379   0.261  0.00  0.00    -0.041 A 
ATOM      6  C   UNL     1       0.122   0.456   0.304  0.00  0.00    +0.004 A 
ATOM      7  C   UNL     1       1.010  -1.849   0.501  0.00  0.00    +0.054 C 
ATOM      8  C   UNL     1       2.178  -2.671  -0.040  0.00  0.00    +0.114 C 
ATOM      9  N   UNL     1       3.427  -2.044   0.422  0.00  0.00    -0.281 N 
ATOM     10  C   UNL     1       3.720  -0.690  -0.062  0.00  0.00    +0.144 C 
ATOM     11  C   UNL     1       4.268  -2.687   1.256  0.00  0.00    +0.307 C 
ATOM     12  O   UNL     1       3.958  -3.769   1.716  0.00  0.00    -0.252 OA
ATOM     13  N   UNL     1       5.452  -2.130   1.581  0.00  0.00    -0.267 N 
ATOM     14  H   UNL     1       5.671  -1.239   1.267  0.00  0.00    +0.156 HD
ENDROOT
BRANCH  13  15
ATOM     15  C   UNL     1       6.365  -2.838   2.372  0.00  0.00    +0.072 A 
ATOM     16  C   UNL     1       6.241  -4.213   2.514  0.00  0.00    +0.051 A 
ATOM     17  C   UNL     1       7.148  -4.911   3.298  0.00  0.00    +0.053 A 
ATOM     18  C   UNL     1       8.178  -4.234   3.939  0.00  0.00    +0.027 A 
ATOM     19  C   UNL     1       8.300  -2.865   3.796  0.00  0.00    +0.042 A 
ATOM     20  C   UNL     1       7.401  -2.166   3.011  0.00  0.00    +0.145 A 
ATOM     21  F   UNL     1       7.526  -0.828   2.869  0.00  0.00    -0.204 F 
BRANCH  17  22
ATOM     22  N   UNL     1       7.025  -6.296   3.444  0.00  0.00    -0.207 N 
ATOM     23  C   UNL     1       5.798  -7.100   3.296  0.00  0.00    +0.133 C 
ATOM     24  C   UNL     1       6.131  -8.525   2.816  0.00  0.00    +0.045 C 
ATOM     25  C   UNL     1       7.333  -8.978   3.699  0.00  0.00    +0.190 C 
ATOM     26  S   UNL     1       8.245  -7.385   3.815  0.00  0.00    +0.046 S 
ATOM     27  O   UNL     1       9.192  -7.267   2.763  0.00  0.00    -0.155 OA
ATOM     28  O   UNL     1       8.602  -7.109   5.163  0.00  0.00    -0.155 OA
ENDBRANCH  17  22
ENDBRANCH  13  15
TORSDOF 2
