REMARK  Name = ZINC35095757
REMARK  15 active torsions:
REMARK  status: ('A' for Active; 'I' for Inactive)
REMARK    1  A    between atoms: C_1  and  C_2
REMARK    2  A    between atoms: C_2  and  N_3
REMARK    3  A    between atoms: N_3  and  C_4
REMARK    4  A    between atoms: N_3  and  C_25
REMARK    5  A    between atoms: C_4  and  C_5
REMARK    6  A    between atoms: C_5  and  N_6
REMARK    7  A    between atoms: N_9  and  S_12
REMARK    8  A    between atoms: S_12  and  C_15
REMARK    9  A    between atoms: C_18  and  C_21
REMARK   10  A    between atoms: C_21  and  C_22
REMARK   11  A    between atoms: C_21  and  C_23
REMARK   12  A    between atoms: C_21  and  C_24
REMARK   13  A    between atoms: C_25  and  C_26
REMARK   14  A    between atoms: C_34  and  C_35
REMARK   15  A    between atoms: C_34  and  C_36
REMARK                            x       y       z     vdW  Elec       q    Type
REMARK                         _______ _______ _______ _____ _____    ______ ____
ROOT
ATOM      1  N   UNL     1       3.320   2.058  -0.989  0.00  0.00    -0.302 NA
ATOM      2  C   UNL     1       4.055   1.801  -2.235  0.00  0.00    +0.101 C 
ATOM      3  C   UNL     1       5.530   2.167  -2.038  0.00  0.00    +0.125 C 
ATOM      4  N   UNL     1       5.607   3.551  -1.544  0.00  0.00    -0.174 NA
ATOM      5  C   UNL     1       4.790   3.920  -0.379  0.00  0.00    +0.125 C 
ATOM      6  C   UNL     1       3.344   3.485  -0.641  0.00  0.00    +0.101 C 
ENDROOT
BRANCH   4   7
ATOM      7  S   UNL     1       6.588   4.663  -2.281  0.00  0.00    +0.061 S 
ATOM      8  O   UNL     1       6.876   5.658  -1.309  0.00  0.00    -0.153 OA
ATOM      9  O   UNL     1       7.608   3.928  -2.945  0.00  0.00    -0.153 OA
BRANCH   7  10
ATOM     10  C   UNL     1       5.634   5.448  -3.538  0.00  0.00    +0.105 A 
ATOM     11  C   UNL     1       5.607   4.921  -4.815  0.00  0.00    +0.029 A 
ATOM     12  C   UNL     1       4.858   5.537  -5.801  0.00  0.00    +0.006 A 
ATOM     13  C   UNL     1       4.137   6.679  -5.508  0.00  0.00    -0.042 A 
ATOM     14  C   UNL     1       4.163   7.205  -4.230  0.00  0.00    +0.006 A 
ATOM     15  C   UNL     1       4.908   6.587  -3.244  0.00  0.00    +0.029 A 
BRANCH  13  16
ATOM     16  C   UNL     1       3.321   7.351  -6.583  0.00  0.00    -0.013 C 
ATOM     17  C   UNL     1       2.269   6.374  -7.111  0.00  0.00    +0.015 C 
ATOM     18  C   UNL     1       2.626   8.584  -6.000  0.00  0.00    +0.015 C 
ATOM     19  C   UNL     1       4.241   7.778  -7.729  0.00  0.00    +0.015 C 
ENDBRANCH  13  16
ENDBRANCH   7  10
ENDBRANCH   4   7
BRANCH   1  20
ATOM     20  C   UNL     1       1.941   1.561  -1.080  0.00  0.00    +0.066 C 
BRANCH  20  21
ATOM     21  C   UNL     1       1.955   0.036  -1.195  0.00  0.00    -0.063 C 
BRANCH  21  22
ATOM     22  N   UNL     1       0.577  -0.471  -1.153  0.00  0.00    +0.383 N 
ATOM     23  H   UNL     1       0.116  -0.125  -0.325  0.00  0.00    -0.081 HD
BRANCH  22  25
ATOM     24  C   UNL     1       1.224  -2.416   0.188  0.00  0.00    -0.017 C 
ATOM     25  C   UNL     1       0.596  -1.940  -1.124  0.00  0.00    -0.082 C 
ENDBRANCH  22  25
BRANCH  22  26
ATOM     26  C   UNL     1      -0.149  -0.015  -2.346  0.00  0.00    -0.047 C 
BRANCH  26  27
ATOM     27  C   UNL     1      -1.594  -0.431  -2.244  0.00  0.00    -0.086 C 
ATOM     28  C   UNL     1      -2.508   0.388  -1.774  0.00  0.00    -0.029 C 
ATOM     29  C   UNL     1      -3.943  -0.071  -1.681  0.00  0.00    +0.031 C 
ATOM     30  C   UNL     1      -4.074  -1.484  -2.265  0.00  0.00    -0.000 C 
ATOM     31  C   UNL     1      -3.322  -1.651  -3.597  0.00  0.00    +0.012 C 
ATOM     32  C   UNL     1      -2.051  -1.810  -2.686  0.00  0.00    +0.019 C 
ATOM     33  C   UNL     1      -3.019  -2.430  -1.655  0.00  0.00    -0.025 C 
ATOM     34  C   UNL     1      -3.307  -3.914  -1.891  0.00  0.00    +0.012 C 
ATOM     35  C   UNL     1      -2.668  -2.110  -0.200  0.00  0.00    +0.012 C 
ENDBRANCH  26  27
ENDBRANCH  22  26
ENDBRANCH  21  22
ENDBRANCH  20  21
ENDBRANCH   1  20
TORSDOF 9
