REMARK  Name = ZINC35707114
REMARK  10 active torsions:
REMARK  status: ('A' for Active; 'I' for Inactive)
REMARK    1  A    between atoms: C_1  and  C_2
REMARK    2  A    between atoms: C_5  and  N_8
REMARK    3  A    between atoms: N_11  and  C_12
REMARK    4  A    between atoms: N_11  and  C_37
REMARK    5  A    between atoms: C_12  and  C_13
REMARK    6  A    between atoms: C_27  and  C_29
REMARK    7  A    between atoms: C_32  and  O_35
REMARK    8  A    between atoms: O_35  and  C_36
REMARK    9  A    between atoms: C_37  and  C_38
REMARK   10  A    between atoms: C_37  and  C_39
REMARK                            x       y       z     vdW  Elec       q    Type
REMARK                         _______ _______ _______ _____ _____    ______ ____
ROOT
ATOM      1  C   UNL     1      -1.513  -7.047   2.840  0.00  0.00    +0.238 C 
ATOM      2  O   UNL     1      -0.379  -6.738   2.537  0.00  0.00    -0.273 OA
ATOM      3  N   UNL     1      -1.739  -7.780   3.947  0.00  0.00    -0.255 N 
ATOM      4  C   UNL     1      -0.694  -8.027   4.849  0.00  0.00    +0.061 A 
ATOM      5  C   UNL     1       0.342  -7.117   4.992  0.00  0.00    +0.025 A 
ATOM      6  C   UNL     1       1.371  -7.377   5.877  0.00  0.00    +0.002 A 
ATOM      7  C   UNL     1       1.377  -8.543   6.621  0.00  0.00    +0.002 A 
ATOM      8  C   UNL     1       0.346  -9.456   6.489  0.00  0.00    +0.028 A 
ATOM      9  C   UNL     1      -0.689  -9.199   5.611  0.00  0.00    +0.068 A 
ATOM     10  N   UNL     1      -1.769 -10.081   5.462  0.00  0.00    -0.316 N 
ATOM     11  C   UNL     1      -1.917 -11.361   5.882  0.00  0.00    +0.092 A 
ATOM     12  C   UNL     1      -3.136 -11.794   5.492  0.00  0.00    +0.020 A 
ATOM     13  C   UNL     1      -3.765 -10.733   4.803  0.00  0.00    +0.025 A 
ATOM     14  C   UNL     1      -2.916  -9.701   4.799  0.00  0.00    +0.049 A 
ATOM     15  C   UNL     1      -3.084  -8.316   4.213  0.00  0.00    +0.159 C 
ENDROOT
BRANCH  15  16
ATOM     16  C   UNL     1      -3.805  -7.425   5.192  0.00  0.00    -0.021 A 
ATOM     17  C   UNL     1      -3.119  -6.878   6.261  0.00  0.00    +0.009 A 
ATOM     18  C   UNL     1      -3.777  -6.062   7.160  0.00  0.00    +0.046 A 
ATOM     19  C   UNL     1      -5.127  -5.791   6.990  0.00  0.00    +0.120 A 
ATOM     20  C   UNL     1      -5.813  -6.341   5.917  0.00  0.00    +0.046 A 
ATOM     21  C   UNL     1      -5.149  -7.152   5.017  0.00  0.00    +0.009 A 
BRANCH  19  22
ATOM     22  O   UNL     1      -5.777  -4.989   7.874  0.00  0.00    -0.495 OA
ATOM     23  C   UNL     1      -7.167  -4.754   7.636  0.00  0.00    +0.277 C 
ENDBRANCH  19  22
ENDBRANCH  15  16
BRANCH   1  24
ATOM     24  C   UNL     1      -2.668  -6.610   1.976  0.00  0.00    +0.205 C 
BRANCH  24  28
ATOM     25  N   UNL     1      -1.236  -5.714  -1.286  0.00  0.00    -0.269 N 
ATOM     26  C   UNL     1      -1.825  -6.422  -0.302  0.00  0.00    +0.307 C 
ATOM     27  O   UNL     1      -2.049  -7.607  -0.456  0.00  0.00    -0.252 OA
ATOM     28  N   UNL     1      -2.166  -5.816   0.853  0.00  0.00    -0.274 N 
ATOM     29  H   UNL     1      -0.957  -4.799  -1.125  0.00  0.00    +0.156 HD
BRANCH  25  34
ATOM     30  C   UNL     1      -0.382  -8.088  -6.368  0.00  0.00    +0.044 C 
ATOM     31  C   UNL     1      -0.609  -7.457  -5.018  0.00  0.00    -0.050 A 
ATOM     32  C   UNL     1      -0.741  -6.085  -4.911  0.00  0.00    +0.005 A 
ATOM     33  C   UNL     1      -0.949  -5.504  -3.675  0.00  0.00    +0.023 A 
ATOM     34  C   UNL     1      -1.025  -6.300  -2.540  0.00  0.00    +0.035 A 
ATOM     35  C   UNL     1      -0.892  -7.677  -2.651  0.00  0.00    +0.023 A 
ATOM     36  C   UNL     1      -0.690  -8.253  -3.890  0.00  0.00    +0.005 A 
ENDBRANCH  25  34
BRANCH  28  37
ATOM     37  C   UNL     1      -2.034  -4.363   0.984  0.00  0.00    +0.072 C 
ATOM     38  C   UNL     1      -3.418  -3.739   1.169  0.00  0.00    +0.028 C 
ATOM     39  C   UNL     1      -1.162  -4.038   2.199  0.00  0.00    +0.028 C 
ENDBRANCH  28  37
ENDBRANCH  24  28
ENDBRANCH   1  24
TORSDOF 6
