REMARK  Name = ZINC32943162
REMARK  9 active torsions:
REMARK  status: ('A' for Active; 'I' for Inactive)
REMARK    1  A    between atoms: C_1  and  O_2
REMARK    2  A    between atoms: O_2  and  C_3
REMARK    3  A    between atoms: C_8  and  N_9
REMARK    4  A    between atoms: C_10  and  N_11
REMARK    5  A    between atoms: N_11  and  C_12
REMARK    6  A    between atoms: C_12  and  C_13
REMARK    7  A    between atoms: C_13  and  C_14
REMARK    8  A    between atoms: N_24  and  C_25
REMARK    9  A    between atoms: C_25  and  C_27
REMARK                            x       y       z     vdW  Elec       q    Type
REMARK                         _______ _______ _______ _____ _____    ______ ____
ROOT
ATOM      1  N   UNL     1      -0.362  -3.347   0.160  0.00  0.00    -0.323 N 
ATOM      2  C   UNL     1      -0.202  -4.667  -0.148  0.00  0.00    +0.216 C 
ATOM      3  N   UNL     1      -0.026  -5.035  -1.409  0.00  0.00    -0.141 NA
ATOM      4  H   UNL     1      -0.986  -2.803  -0.345  0.00  0.00    +0.169 HD
ENDROOT
BRANCH   1  10
ATOM      5  C   UNL     1       0.058  -1.504   1.672  0.00  0.00    +0.143 A 
ATOM      6  C   UNL     1       0.787  -0.948   2.711  0.00  0.00    +0.048 A 
ATOM      7  C   UNL     1       1.828  -1.657   3.281  0.00  0.00    +0.004 A 
ATOM      8  C   UNL     1       2.146  -2.920   2.818  0.00  0.00    +0.002 A 
ATOM      9  C   UNL     1       1.424  -3.481   1.781  0.00  0.00    +0.029 A 
ATOM     10  C   UNL     1       0.374  -2.779   1.208  0.00  0.00    +0.084 A 
BRANCH   5  12
ATOM     11  C   UNL     1      -1.233   0.493   1.637  0.00  0.00    +0.277 C 
ATOM     12  O   UNL     1      -0.966  -0.808   1.110  0.00  0.00    -0.493 OA
ENDBRANCH   5  12
ENDBRANCH   1  10
BRANCH   3  13
ATOM     13  C   UNL     1       0.203  -4.111  -2.351  0.00  0.00    +0.270 C 
ATOM     14  O   UNL     1       0.336  -2.942  -2.037  0.00  0.00    -0.268 OA
BRANCH  13  15
ATOM     15  C   UNL     1       0.293  -4.511  -3.774  0.00  0.00    +0.040 A 
ATOM     16  C   UNL     1       0.030  -5.829  -4.149  0.00  0.00    +0.013 A 
ATOM     17  C   UNL     1       0.116  -6.196  -5.476  0.00  0.00    +0.002 A 
ATOM     18  C   UNL     1       0.463  -5.261  -6.435  0.00  0.00    +0.015 A 
ATOM     19  C   UNL     1       0.726  -3.952  -6.069  0.00  0.00    +0.019 A 
ATOM     20  C   UNL     1       0.637  -3.571  -4.745  0.00  0.00    +0.028 A 
ATOM     21 BR   UNL     1       1.200  -2.681  -7.387  0.00  0.00    -0.050 Br
ENDBRANCH  13  15
ENDBRANCH   3  13
BRANCH   2  22
ATOM     22  N   UNL     1      -0.223  -5.606   0.840  0.00  0.00    -0.252 NA
BRANCH  22  23
ATOM     23  C   UNL     1      -1.205  -5.508   1.923  0.00  0.00    +0.150 C 
BRANCH  23  24
ATOM     24  C   UNL     1      -0.967  -6.634   2.931  0.00  0.00    +0.060 C 
BRANCH  24  25
ATOM     25  C   UNL     1      -2.047  -6.604   3.982  0.00  0.00    -0.021 A 
ATOM     26  C   UNL     1      -1.936  -6.118   5.228  0.00  0.00    +0.087 A 
ATOM     27  N   UNL     1      -3.123  -6.263   5.893  0.00  0.00    -0.360 N 
ATOM     28  H   UNL     1      -3.286  -5.985   6.808  0.00  0.00    +0.165 HD
ATOM     29  C   UNL     1      -4.051  -6.861   5.070  0.00  0.00    +0.047 A 
ATOM     30  C   UNL     1      -3.419  -7.095   3.834  0.00  0.00    +0.003 A 
ATOM     31  C   UNL     1      -4.129  -7.694   2.792  0.00  0.00    +0.010 A 
ATOM     32  C   UNL     1      -5.436  -8.046   2.976  0.00  0.00    +0.001 A 
ATOM     33  C   UNL     1      -6.065  -7.813   4.191  0.00  0.00    +0.002 A 
ATOM     34  C   UNL     1      -5.380  -7.232   5.237  0.00  0.00    +0.026 A 
ENDBRANCH  24  25
ENDBRANCH  23  24
ENDBRANCH  22  23
ENDBRANCH   2  22
TORSDOF 8
