REMARK  Name = ZINC35706889
REMARK  13 active torsions:
REMARK  status: ('A' for Active; 'I' for Inactive)
REMARK    1  A    between atoms: C_1  and  C_2
REMARK    2  A    between atoms: C_2  and  C_3
REMARK    3  A    between atoms: C_3  and  C_4
REMARK    4  A    between atoms: C_4  and  C_5
REMARK    5  A    between atoms: C_5  and  C_6
REMARK    6  A    between atoms: C_9  and  C_12
REMARK    7  A    between atoms: N_14  and  C_15
REMARK    8  A    between atoms: N_14  and  C_19
REMARK    9  A    between atoms: C_15  and  C_16
REMARK   10  A    between atoms: C_16  and  C_17
REMARK   11  A    between atoms: C_17  and  C_18
REMARK   12  A    between atoms: C_19  and  C_20
REMARK   13  A    between atoms: C_34  and  C_36
REMARK                            x       y       z     vdW  Elec       q    Type
REMARK                         _______ _______ _______ _____ _____    ______ ____
ROOT
ATOM      1  C   UNL     1      -1.406 -10.969   1.111  0.00  0.00    +0.238 C 
ATOM      2  O   UNL     1      -0.497 -10.174   1.219  0.00  0.00    -0.273 OA
ATOM      3  N   UNL     1      -1.139 -12.285   0.994  0.00  0.00    -0.252 N 
ATOM      4  C   UNL     1       0.182 -12.742   1.087  0.00  0.00    +0.061 A 
ATOM      5  C   UNL     1       1.237 -11.931   0.700  0.00  0.00    +0.025 A 
ATOM      6  C   UNL     1       2.536 -12.390   0.807  0.00  0.00    +0.002 A 
ATOM      7  C   UNL     1       2.793 -13.657   1.298  0.00  0.00    +0.002 A 
ATOM      8  C   UNL     1       1.747 -14.478   1.682  0.00  0.00    +0.028 A 
ATOM      9  C   UNL     1       0.447 -14.027   1.573  0.00  0.00    +0.068 A 
ATOM     10  N   UNL     1      -0.647 -14.831   1.925  0.00  0.00    -0.316 N 
ATOM     11  C   UNL     1      -0.689 -15.994   2.619  0.00  0.00    +0.092 A 
ATOM     12  C   UNL     1      -1.980 -16.385   2.707  0.00  0.00    +0.020 A 
ATOM     13  C   UNL     1      -2.765 -15.422   2.035  0.00  0.00    +0.025 A 
ATOM     14  C   UNL     1      -1.932 -14.486   1.566  0.00  0.00    +0.052 A 
ATOM     15  C   UNL     1      -2.238 -13.241   0.775  0.00  0.00    +0.194 C 
ENDROOT
BRANCH  15  16
ATOM     16  C   UNL     1      -2.333 -13.582  -0.690  0.00  0.00    +0.131 A 
ATOM     17  C   UNL     1      -3.472 -13.730  -1.390  0.00  0.00    +0.047 A 
ATOM     18  C   UNL     1      -3.099 -14.046  -2.717  0.00  0.00    +0.041 A 
ATOM     19  C   UNL     1      -1.754 -14.072  -2.748  0.00  0.00    +0.195 A 
ATOM     20  O   UNL     1      -1.296 -13.784  -1.518  0.00  0.00    -0.466 OA
ENDBRANCH  15  16
BRANCH   1  21
ATOM     21  C   UNL     1      -2.834 -10.487   1.109  0.00  0.00    +0.204 C 
BRANCH  21  24
ATOM     22  C   UNL     1      -2.904  -8.228   0.198  0.00  0.00    +0.247 C 
ATOM     23  O   UNL     1      -2.860  -7.021   0.335  0.00  0.00    -0.270 OA
ATOM     24  N   UNL     1      -2.857  -9.032   1.278  0.00  0.00    -0.289 N 
BRANCH  22  28
ATOM     25  C   UNL     1      -3.207  -9.914  -3.690  0.00  0.00    -0.047 A 
ATOM     26  C   UNL     1      -2.276 -10.410  -2.794  0.00  0.00    +0.004 A 
ATOM     27  C   UNL     1      -2.172  -9.867  -1.530  0.00  0.00    +0.013 A 
ATOM     28  C   UNL     1      -3.009  -8.815  -1.156  0.00  0.00    +0.037 A 
ATOM     29  C   UNL     1      -3.946  -8.319  -2.064  0.00  0.00    +0.013 A 
ATOM     30  C   UNL     1      -4.035  -8.867  -3.326  0.00  0.00    +0.004 A 
BRANCH  25  31
ATOM     31  C   UNL     1      -3.314 -10.512  -5.069  0.00  0.00    +0.035 C 
BRANCH  31  32
ATOM     32  C   UNL     1      -2.372  -9.771  -6.021  0.00  0.00    +0.005 C 
BRANCH  32  33
ATOM     33  C   UNL     1      -2.481 -10.379  -7.421  0.00  0.00    +0.000 C 
BRANCH  33  35
ATOM     34  C   UNL     1      -1.649 -10.246  -9.773  0.00  0.00    +0.004 C 
ATOM     35  C   UNL     1      -1.540  -9.638  -8.372  0.00  0.00    -0.003 C 
ENDBRANCH  33  35
ENDBRANCH  32  33
ENDBRANCH  31  32
ENDBRANCH  25  31
ENDBRANCH  22  28
BRANCH  24  36
ATOM     36  C   UNL     1      -2.831  -8.450   2.623  0.00  0.00    +0.108 C 
BRANCH  36  37
ATOM     37  C   UNL     1      -4.255  -8.385   3.179  0.00  0.00    +0.019 C 
BRANCH  37  38
ATOM     38  C   UNL     1      -4.226  -7.778   4.583  0.00  0.00    -0.002 C 
ATOM     39  C   UNL     1      -5.650  -7.712   5.139  0.00  0.00    +0.004 C 
ENDBRANCH  37  38
ENDBRANCH  36  37
ENDBRANCH  24  36
ENDBRANCH  21  24
ENDBRANCH   1  21
TORSDOF 11
