REMARK  Name = ZINC43212298
REMARK  12 active torsions:
REMARK  status: ('A' for Active; 'I' for Inactive)
REMARK    1  A    between atoms: C_1  and  C_2
REMARK    2  A    between atoms: C_2  and  C_3
REMARK    3  A    between atoms: C_2  and  C_4
REMARK    4  A    between atoms: C_4  and  C_5
REMARK    5  A    between atoms: C_5  and  C_30
REMARK    6  A    between atoms: C_10  and  C_13
REMARK    7  A    between atoms: C_18  and  O_19
REMARK    8  A    between atoms: O_19  and  C_20
REMARK    9  A    between atoms: N_23  and  C_26
REMARK   10  A    between atoms: C_26  and  C_27
REMARK   11  A    between atoms: C_26  and  C_28
REMARK   12  A    between atoms: C_26  and  C_29
REMARK                            x       y       z     vdW  Elec       q    Type
REMARK                         _______ _______ _______ _____ _____    ______ ____
ROOT
ATOM      1  C   UNL     1      -2.497  -0.348  -1.288  0.00  0.00    +0.048 C 
ATOM      2  C   UNL     1      -3.948  -0.830  -1.076  0.00  0.00    +0.086 C 
ATOM      3  C   UNL     1      -4.636   0.315  -0.285  0.00  0.00    +0.077 C 
ATOM      4  C   UNL     1      -3.533   1.373  -0.080  0.00  0.00    -0.023 C 
ATOM      5  N   UNL     1      -2.575   1.133  -1.198  0.00  0.00    +0.396 N 
ATOM      6  C   UNL     1      -5.671   0.837  -1.256  0.00  0.00    +0.225 C 
ATOM      7  O   UNL     1      -6.441   1.748  -1.037  0.00  0.00    -0.275 OA
ATOM      8  N   UNL     1      -5.605   0.137  -2.395  0.00  0.00    -0.236 N 
ATOM      9  C   UNL     1      -4.668  -0.839  -2.406  0.00  0.00    +0.225 C 
ATOM     10  O   UNL     1      -4.436  -1.597  -3.323  0.00  0.00    -0.275 OA
ATOM     11  H   UNL     1      -1.671   1.520  -0.972  0.00  0.00    -0.083 HD
ATOM     12  H   UNL     1      -2.921   1.521  -2.062  0.00  0.00    -0.083 HD
ENDROOT
BRANCH   4  13
ATOM     13  C   UNL     1      -4.109   2.761  -0.190  0.00  0.00    -0.019 A 
ATOM     14  C   UNL     1      -4.069   3.434  -1.396  0.00  0.00    +0.005 A 
ATOM     15  C   UNL     1      -4.597   4.707  -1.497  0.00  0.00    +0.000 A 
ATOM     16  C   UNL     1      -5.168   5.311  -0.392  0.00  0.00    +0.004 A 
ATOM     17  C   UNL     1      -5.212   4.643   0.816  0.00  0.00    +0.046 A 
ATOM     18  C   UNL     1      -4.687   3.363   0.919  0.00  0.00    +0.122 A 
BRANCH  18  19
ATOM     19  O   UNL     1      -4.733   2.701   2.105  0.00  0.00    -0.495 OA
ATOM     20  C   UNL     1      -5.343   3.382   3.204  0.00  0.00    +0.277 C 
ENDBRANCH  18  19
ENDBRANCH   4  13
BRANCH   8  21
ATOM     21  C   UNL     1      -6.482   0.400  -3.538  0.00  0.00    +0.036 C 
ATOM     22  C   UNL     1      -7.427   1.555  -3.202  0.00  0.00    +0.031 C 
ATOM     23  C   UNL     1      -5.634   0.773  -4.756  0.00  0.00    +0.031 C 
ATOM     24  C   UNL     1      -7.301  -0.854  -3.852  0.00  0.00    +0.031 C 
ENDBRANCH   8  21
BRANCH   1  25
ATOM     25  C   UNL     1      -1.996  -0.766  -2.647  0.00  0.00    +0.346 C 
ATOM     26  O   UNL     1      -1.828  -1.947  -2.898  0.00  0.00    -0.248 OA
ATOM     27  O   UNL     1      -1.758   0.077  -3.494  0.00  0.00    -0.248 OA
ENDBRANCH   1  25
BRANCH   1  28
ATOM     28  C   UNL     1      -1.586  -0.902  -0.191  0.00  0.00    +0.002 C 
BRANCH  28  30
ATOM     29  C   UNL     1       0.636  -0.652   0.923  0.00  0.00    +0.007 C 
ATOM     30  C   UNL     1      -0.222  -0.212  -0.264  0.00  0.00    -0.018 C 
ATOM     31  C   UNL     1       0.476  -0.598  -1.570  0.00  0.00    +0.007 C 
ENDBRANCH  28  30
ENDBRANCH   1  28
TORSDOF 6
