REMARK  Name = ZINC09050698
REMARK  8 active torsions:
REMARK  status: ('A' for Active; 'I' for Inactive)
REMARK    1  A    between atoms: C_1  and  C_2
REMARK    2  A    between atoms: C_2  and  C_3
REMARK    3  A    between atoms: C_2  and  O_4
REMARK    4  A    between atoms: O_4  and  C_5
REMARK    5  A    between atoms: C_8  and  S_24
REMARK    6  A    between atoms: C_10  and  N_11
REMARK    7  A    between atoms: C_12  and  C_14
REMARK    8  A    between atoms: S_24  and  N_27
REMARK                            x       y       z     vdW  Elec       q    Type
REMARK                         _______ _______ _______ _____ _____    ______ ____
ROOT
ATOM      1  C   UNL     1       1.071   7.428   0.662  0.00  0.00    +0.142 A 
ATOM      2  C   UNL     1       2.069   6.644   1.218  0.00  0.00    +0.049 A 
ATOM      3  C   UNL     1       2.115   5.289   0.948  0.00  0.00    +0.032 A 
ATOM      4  C   UNL     1       1.165   4.712   0.125  0.00  0.00    +0.107 A 
ATOM      5  C   UNL     1       0.169   5.488  -0.437  0.00  0.00    +0.055 A 
ATOM      6  C   UNL     1       0.114   6.848  -0.167  0.00  0.00    +0.077 A 
ENDROOT
BRANCH   6   7
ATOM      7  N   UNL     1      -0.898   7.635  -0.731  0.00  0.00    -0.282 N 
ATOM      8  C   UNL     1      -1.443   7.287  -1.914  0.00  0.00    +0.231 C 
ATOM      9  O   UNL     1      -1.104   6.257  -2.458  0.00  0.00    -0.274 OA
ATOM     10  H   UNL     1      -1.207   8.431  -0.271  0.00  0.00    +0.155 HD
BRANCH   8  11
ATOM     11  C   UNL     1      -2.472   8.178  -2.561  0.00  0.00    +0.142 C 
ATOM     12  C   UNL     1      -2.568   7.916  -4.080  0.00  0.00    +0.060 C 
ATOM     13  C   UNL     1      -3.608   6.872  -4.405  0.00  0.00    -0.032 A 
ATOM     14  C   UNL     1      -3.703   6.130  -5.585  0.00  0.00    +0.005 A 
ATOM     15  C   UNL     1      -4.722   5.225  -5.777  0.00  0.00    +0.000 A 
ATOM     16  C   UNL     1      -5.683   5.022  -4.803  0.00  0.00    +0.001 A 
ATOM     17  C   UNL     1      -5.606   5.739  -3.624  0.00  0.00    +0.015 A 
ATOM     18  C   UNL     1      -4.579   6.644  -3.433  0.00  0.00    +0.012 A 
ATOM     19  S   UNL     1      -4.179   7.704  -2.060  0.00  0.00    -0.112 S 
ENDBRANCH   8  11
ENDBRANCH   6   7
BRANCH   4  20
ATOM     20  S   UNL     1       1.230   2.984  -0.214  0.00  0.00    +0.061 S 
ATOM     21  O   UNL     1       2.577   2.581  -0.013  0.00  0.00    -0.153 OA
ATOM     22  O   UNL     1       0.552   2.787  -1.447  0.00  0.00    -0.153 OA
BRANCH  20  23
ATOM     23  N   UNL     1       0.329   2.223   0.949  0.00  0.00    -0.177 NA
ATOM     24  C   UNL     1      -1.106   1.984   0.746  0.00  0.00    +0.109 C 
ATOM     25  C   UNL     1      -1.393   0.494   0.962  0.00  0.00    +0.017 C 
ATOM     26  C   UNL     1      -0.873   0.073   2.338  0.00  0.00    +0.003 C 
ATOM     27  C   UNL     1       0.641   0.288   2.402  0.00  0.00    +0.017 C 
ATOM     28  C   UNL     1       0.950   1.775   2.202  0.00  0.00    +0.109 C 
ENDBRANCH  20  23
ENDBRANCH   4  20
BRANCH   1  29
ATOM     29  O   UNL     1       1.024   8.761   0.927  0.00  0.00    -0.488 OA
BRANCH  29  31
ATOM     30  C   UNL     1       2.242  10.801   1.373  0.00  0.00    +0.051 C 
ATOM     31  C   UNL     1       2.103   9.310   1.687  0.00  0.00    +0.167 C 
ATOM     32  C   UNL     1       1.820   9.127   3.179  0.00  0.00    +0.051 C 
ENDBRANCH  29  31
ENDBRANCH   1  29
TORSDOF 6
