REMARK  Name = ZINC65734702
REMARK  10 active torsions:
REMARK  status: ('A' for Active; 'I' for Inactive)
REMARK    1  A    between atoms: C_4  and  C_7
REMARK    2  A    between atoms: C_7  and  N_8
REMARK    3  A    between atoms: N_8  and  C_9
REMARK    4  A    between atoms: N_8  and  C_25
REMARK    5  A    between atoms: C_9  and  C_10
REMARK    6  A    between atoms: C_10  and  C_12
REMARK    7  A    between atoms: C_10  and  O_24
REMARK    8  A    between atoms: C_25  and  C_26
REMARK    9  A    between atoms: C_26  and  C_28
REMARK   10  A    between atoms: C_26  and  O_40
REMARK                            x       y       z     vdW  Elec       q    Type
REMARK                         _______ _______ _______ _____ _____    ______ ____
ROOT
ATOM      1  N   UNL     1       4.048  -0.919   1.484  0.00  0.00    +0.386 N 
ATOM      2  H   UNL     1       3.918  -0.069   2.011  0.00  0.00    -0.081 HD
ENDROOT
BRANCH   1   3
ATOM      3  C   UNL     1       3.850  -0.644   0.055  0.00  0.00    -0.043 C 
BRANCH   3   7
ATOM      4  C   UNL     1       4.363  -4.250  -2.176  0.00  0.00    +0.000 A 
ATOM      5  C   UNL     1       3.114  -3.910  -1.691  0.00  0.00    +0.000 A 
ATOM      6  C   UNL     1       2.948  -2.743  -0.969  0.00  0.00    +0.002 A 
ATOM      7  C   UNL     1       4.031  -1.917  -0.732  0.00  0.00    -0.064 A 
ATOM      8  C   UNL     1       5.280  -2.258  -1.216  0.00  0.00    +0.002 A 
ATOM      9  C   UNL     1       5.445  -3.424  -1.940  0.00  0.00    +0.000 A 
ENDBRANCH   3   7
ENDBRANCH   1   3
BRANCH   1  10
ATOM     10  C   UNL     1       3.073  -1.924   1.929  0.00  0.00    -0.043 C 
BRANCH  10  11
ATOM     11  C   UNL     1       1.661  -1.344   1.829  0.00  0.00    +0.139 C 
BRANCH  11  12
ATOM     12  C   UNL     1       0.646  -2.391   2.294  0.00  0.00    +0.200 C 
ATOM     13  C   UNL     1      -0.773  -1.818   2.184  0.00  0.00    +0.052 C 
ATOM     14  C   UNL     1      -1.752  -2.846   2.759  0.00  0.00    +0.042 C 
ATOM     15  C   UNL     1      -1.458  -4.206   2.179  0.00  0.00    -0.003 A 
ATOM     16  C   UNL     1      -2.429  -5.190   2.262  0.00  0.00    +0.045 A 
ATOM     17  C   UNL     1      -2.193  -6.450   1.744  0.00  0.00    +0.124 A 
ATOM     18  C   UNL     1      -0.979  -6.732   1.141  0.00  0.00    +0.042 A 
ATOM     19  C   UNL     1      -0.009  -5.755   1.055  0.00  0.00    +0.049 A 
ATOM     20  C   UNL     1      -0.245  -4.485   1.573  0.00  0.00    +0.124 A 
ATOM     21  O   UNL     1       0.732  -3.547   1.460  0.00  0.00    -0.486 OA
ATOM     22  F   UNL     1      -3.144  -7.405   1.828  0.00  0.00    -0.205 F 
ENDBRANCH  11  12
BRANCH  11  23
ATOM     23  O   UNL     1       1.563  -0.185   2.659  0.00  0.00    -0.390 OA
ATOM     24  H   UNL     1       1.736  -0.355   3.595  0.00  0.00    +0.210 HD
ENDBRANCH  11  23
ENDBRANCH  10  11
ENDBRANCH   1  10
BRANCH   1  25
ATOM     25  C   UNL     1       5.409  -1.427   1.701  0.00  0.00    -0.043 C 
BRANCH  25  26
ATOM     26  C   UNL     1       6.422  -0.335   1.355  0.00  0.00    +0.139 C 
BRANCH  26  27
ATOM     27  C   UNL     1       7.840  -0.901   1.461  0.00  0.00    +0.200 C 
ATOM     28  C   UNL     1       8.860   0.187   1.102  0.00  0.00    +0.052 C 
ATOM     29  C   UNL     1      10.264  -0.379   1.325  0.00  0.00    +0.042 C 
ATOM     30  C   UNL     1      10.374  -1.736   0.677  0.00  0.00    -0.003 A 
ATOM     31  C   UNL     1      11.634  -2.256   0.429  0.00  0.00    +0.045 A 
ATOM     32  C   UNL     1      11.772  -3.499  -0.160  0.00  0.00    +0.124 A 
ATOM     33  C   UNL     1      10.647  -4.229  -0.506  0.00  0.00    +0.042 A 
ATOM     34  C   UNL     1       9.390  -3.713  -0.262  0.00  0.00    +0.049 A 
ATOM     35  C   UNL     1       9.249  -2.462   0.329  0.00  0.00    +0.124 A 
ATOM     36  O   UNL     1       7.994  -1.985   0.543  0.00  0.00    -0.486 OA
ATOM     37  F   UNL     1      13.003  -4.001  -0.400  0.00  0.00    -0.205 F 
ENDBRANCH  26  27
BRANCH  26  38
ATOM     38  O   UNL     1       6.276   0.756   2.266  0.00  0.00    -0.390 OA
ATOM     39  H   UNL     1       6.420   0.517   3.192  0.00  0.00    +0.210 HD
ENDBRANCH  26  38
ENDBRANCH  25  26
ENDBRANCH   1  25
TORSDOF 10
