REMARK  Name = ZINC27104751
REMARK  8 active torsions:
REMARK  status: ('A' for Active; 'I' for Inactive)
REMARK    1  A    between atoms: C_1  and  C_2
REMARK    2  A    between atoms: C_2  and  C_4
REMARK    3  A    between atoms: C_2  and  N_14
REMARK    4  A    between atoms: C_15  and  C_17
REMARK    5  A    between atoms: C_17  and  N_18
REMARK    6  A    between atoms: N_21  and  C_24
REMARK    7  A    between atoms: C_25  and  C_34
REMARK    8  A    between atoms: C_27  and  C_29
REMARK                            x       y       z     vdW  Elec       q    Type
REMARK                         _______ _______ _______ _____ _____    ______ ____
ROOT
ATOM      1  N   UNL     1       5.064   1.734   1.042  0.00  0.00    +0.387 N 
ATOM      2  C   UNL     1       4.775   2.493   2.267  0.00  0.00    -0.059 C 
ATOM      3  C   UNL     1       3.288   2.852   2.303  0.00  0.00    +0.089 C 
ATOM      4  N   UNL     1       2.947   3.637   1.108  0.00  0.00    -0.303 N 
ATOM      5  C   UNL     1       3.236   2.878  -0.117  0.00  0.00    +0.089 C 
ATOM      6  C   UNL     1       4.723   2.519  -0.153  0.00  0.00    -0.059 C 
ATOM      7  H   UNL     1       4.435   0.831   1.046  0.00  0.00    -0.081 HD
ENDROOT
BRANCH   4   8
ATOM      8  C   UNL     1       1.630   4.040   1.141  0.00  0.00    +0.227 A 
ATOM      9  C   UNL     1       0.972   4.794   0.182  0.00  0.00    +0.201 A 
ATOM     10  N   UNL     1      -0.305   4.963   0.618  0.00  0.00    -0.194 NA
ATOM     11  C   UNL     1      -0.438   4.347   1.768  0.00  0.00    +0.266 A 
ATOM     12  O   UNL     1       0.734   3.778   2.111  0.00  0.00    -0.417 OA
BRANCH  11  13
ATOM     13  C   UNL     1      -1.673   4.292   2.562  0.00  0.00    +0.189 A 
ATOM     14  C   UNL     1      -2.866   4.862   2.229  0.00  0.00    +0.055 A 
ATOM     15  C   UNL     1      -3.764   4.558   3.270  0.00  0.00    +0.042 A 
ATOM     16  C   UNL     1      -3.087   3.827   4.177  0.00  0.00    +0.196 A 
ATOM     17  O   UNL     1      -1.826   3.663   3.745  0.00  0.00    -0.458 OA
ENDBRANCH  11  13
BRANCH   9  18
ATOM     18  C   UNL     1       1.531   5.303  -1.034  0.00  0.00    +0.124 C 
ATOM     19  N   UNL     1       1.975   5.707  -1.999  0.00  0.00    -0.189 NA
ENDBRANCH   9  18
ENDBRANCH   4   8
BRANCH   1  20
ATOM     20  C   UNL     1       6.468   1.304   1.007  0.00  0.00    +0.019 C 
BRANCH  20  22
ATOM     21  N   UNL     1       7.965  -0.136   2.349  0.00  0.00    -0.310 N 
ATOM     22  C   UNL     1       6.715   0.304   2.107  0.00  0.00    +0.197 C 
ATOM     23  O   UNL     1       5.788  -0.105   2.773  0.00  0.00    -0.278 OA
ATOM     24  H   UNL     1       8.806   0.235   1.745  0.00  0.00    +0.149 HD
BRANCH  21  26
ATOM     25  C   UNL     1       8.363  -0.373   4.751  0.00  0.00    +0.033 C 
ATOM     26  C   UNL     1       8.205  -1.109   3.418  0.00  0.00    +0.100 C 
BRANCH  26  27
ATOM     27  C   UNL     1       9.463  -1.883   3.120  0.00  0.00    -0.027 A 
ATOM     28  C   UNL     1      10.566  -1.238   2.592  0.00  0.00    +0.006 A 
ATOM     29  C   UNL     1      11.713  -1.954   2.320  0.00  0.00    +0.004 A 
ATOM     30  C   UNL     1      11.770  -3.319   2.570  0.00  0.00    -0.044 A 
ATOM     31  C   UNL     1      10.673  -3.960   3.100  0.00  0.00    -0.044 A 
ATOM     32  C   UNL     1       9.520  -3.237   3.377  0.00  0.00    +0.009 A 
ATOM     33  C   UNL     1      10.666  -5.435   3.407  0.00  0.00    +0.035 C 
ATOM     34  C   UNL     1      11.799  -6.143   2.666  0.00  0.00    +0.005 C 
ATOM     35  C   UNL     1      13.105  -5.391   2.948  0.00  0.00    +0.005 C 
ATOM     36  C   UNL     1      13.049  -4.041   2.236  0.00  0.00    +0.035 C 
ENDBRANCH  26  27
ENDBRANCH  21  26
ENDBRANCH  20  22
ENDBRANCH   1  20
TORSDOF 7
