REMARK  Name = ZINC22882826
REMARK  4 active torsions:
REMARK  status: ('A' for Active; 'I' for Inactive)
REMARK    1  A    between atoms: C_4  and  N_22
REMARK    2  A    between atoms: C_5  and  C_7
REMARK    3  A    between atoms: N_9  and  C_10
REMARK    4  A    between atoms: C_15  and  C_18
REMARK                            x       y       z     vdW  Elec       q    Type
REMARK                         _______ _______ _______ _____ _____    ______ ____
ROOT
ATOM      1  C   UNL     1       1.489  -2.110  -0.041  0.00  0.00    +0.266 C 
ATOM      2  O   UNL     1       2.605  -2.587   0.031  0.00  0.00    -0.268 OA
ATOM      3  N   UNL     1       0.415  -2.919  -0.139  0.00  0.00    -0.307 N 
ATOM      4  H   UNL     1      -0.475  -2.538  -0.197  0.00  0.00    +0.149 HD
ENDROOT
BRANCH   1   9
ATOM      5  C   UNL     1      -0.069   1.188   0.026  0.00  0.00    +0.131 A 
ATOM      6  C   UNL     1       1.037   2.027   0.010  0.00  0.00    +0.132 A 
ATOM      7  N   UNL     1       2.256   1.522  -0.022  0.00  0.00    -0.237 NA
ATOM      8  C   UNL     1       2.429   0.205  -0.039  0.00  0.00    +0.147 A 
ATOM      9  C   UNL     1       1.310  -0.643  -0.022  0.00  0.00    +0.165 A 
ATOM     10  N   UNL     1       0.087  -0.120   0.010  0.00  0.00    -0.246 NA
BRANCH   8  11
ATOM     11  N   UNL     1       3.704  -0.329  -0.073  0.00  0.00    -0.341 N 
ATOM     12  H   UNL     1       4.472   0.257  -0.164  0.00  0.00    +0.144 HD
ATOM     13  H   UNL     1       3.831  -1.288  -0.006  0.00  0.00    +0.144 HD
ENDBRANCH   8  11
ENDBRANCH   1   9
BRANCH   3  14
ATOM     14  C   UNL     1       0.593  -4.373  -0.158  0.00  0.00    +0.074 C 
ATOM     15  C   UNL     1       0.886  -4.832  -1.588  0.00  0.00    +0.022 C 
ATOM     16  C   UNL     1      -0.284  -4.450  -2.496  0.00  0.00    +0.002 C 
ATOM     17  C   UNL     1      -1.561  -5.126  -1.995  0.00  0.00    +0.012 C 
ATOM     18  C   UNL     1      -1.854  -4.667  -0.565  0.00  0.00    +0.095 C 
ATOM     19  C   UNL     1      -0.684  -5.049   0.343  0.00  0.00    +0.034 C 
BRANCH  18  20
ATOM     20  C   UNL     1      -3.132  -5.343  -0.064  0.00  0.00    +0.393 C 
ATOM     21  F   UNL     1      -2.962  -6.732  -0.082  0.00  0.00    -0.170 F 
ATOM     22  F   UNL     1      -3.400  -4.923   1.243  0.00  0.00    -0.170 F 
ATOM     23  F   UNL     1      -4.202  -4.993  -0.895  0.00  0.00    -0.170 F 
ENDBRANCH  18  20
ENDBRANCH   3  14
TORSDOF 4
