REMARK  Name = ZINC23461016
REMARK  9 active torsions:
REMARK  status: ('A' for Active; 'I' for Inactive)
REMARK    1  A    between atoms: C_1  and  C_2
REMARK    2  A    between atoms: C_2  and  C_3
REMARK    3  A    between atoms: C_10  and  C_12
REMARK    4  A    between atoms: C_15  and  S_18
REMARK    5  A    between atoms: N_16  and  C_17
REMARK    6  A    between atoms: S_18  and  C_19
REMARK    7  A    between atoms: C_19  and  C_20
REMARK    8  A    between atoms: C_22  and  O_23
REMARK    9  A    between atoms: C_32  and  C_34
REMARK                            x       y       z     vdW  Elec       q    Type
REMARK                         _______ _______ _______ _____ _____    ______ ____
ROOT
ATOM      1  S   UNL     1       1.169  -1.046  11.278  0.00  0.00    -0.081 S 
ENDROOT
BRANCH   1   5
ATOM      2  C   UNL     1       0.364   0.026   7.607  0.00  0.00    +0.171 A 
ATOM      3  N   UNL     1      -0.120   1.024   8.314  0.00  0.00    -0.128 NA
ATOM      4  N   UNL     1       0.074   0.809   9.566  0.00  0.00    -0.122 NA
ATOM      5  C   UNL     1       0.693  -0.337   9.737  0.00  0.00    +0.192 A 
ATOM      6  N   UNL     1       0.895  -0.879   8.498  0.00  0.00    -0.305 N 
ATOM      7  C   UNL     1       1.544  -2.154   8.185  0.00  0.00    +0.153 C 
BRANCH   2  14
ATOM      8  C   UNL     1      -0.358   0.840   1.445  0.00  0.00    -0.007 C 
ATOM      9  C   UNL     1      -0.149  -0.656   1.196  0.00  0.00    +0.009 C 
ATOM     10  C   UNL     1       0.926  -1.172   2.163  0.00  0.00    +0.043 C 
ATOM     11  C   UNL     1       0.604  -0.672   3.534  0.00  0.00    -0.006 A 
ATOM     12  C   UNL     1      -0.273   0.317   3.872  0.00  0.00    -0.036 A 
ATOM     13  C   UNL     1      -0.401   0.601   5.226  0.00  0.00    +0.023 A 
ATOM     14  C   UNL     1       0.337  -0.102   6.141  0.00  0.00    +0.057 A 
ATOM     15  S   UNL     1       1.259  -1.214   5.090  0.00  0.00    -0.090 S 
ATOM     16  C   UNL     1      -1.057   1.052   2.789  0.00  0.00    +0.039 C 
BRANCH   8  18
ATOM     17  C   UNL     1      -1.324   2.942   0.502  0.00  0.00    +0.004 C 
ATOM     18  C   UNL     1      -1.222   1.426   0.326  0.00  0.00    +0.000 C 
ENDBRANCH   8  18
ENDBRANCH   2  14
ENDBRANCH   1   5
BRANCH   1  19
ATOM     19  C   UNL     1       0.608   0.161  12.510  0.00  0.00    +0.113 C 
BRANCH  19  20
ATOM     20  C   UNL     1       0.957  -0.330  13.891  0.00  0.00    -0.020 A 
ATOM     21  C   UNL     1       0.240  -1.353  14.479  0.00  0.00    +0.092 A 
ATOM     22  C   UNL     1       0.577  -1.791  15.751  0.00  0.00    +0.285 A 
ATOM     23  O   UNL     1       1.590  -1.244  16.431  0.00  0.00    -0.425 OA
ATOM     24  C   UNL     1       2.324  -0.242  15.904  0.00  0.00    +0.141 A 
ATOM     25  C   UNL     1       2.029   0.241  14.609  0.00  0.00    +0.022 A 
ATOM     26  C   UNL     1       2.795   1.282  14.054  0.00  0.00    +0.013 A 
ATOM     27  C   UNL     1       3.822   1.820  14.762  0.00  0.00    +0.024 A 
ATOM     28  C   UNL     1       4.127   1.341  16.049  0.00  0.00    +0.037 A 
ATOM     29  C   UNL     1       3.369   0.317  16.618  0.00  0.00    +0.070 A 
ATOM     30  N   UNL     1       5.159   1.888  16.747  0.00  0.00    -0.286 N 
ATOM     31  C   UNL     1       5.653   1.258  17.795  0.00  0.00    +0.214 C 
ATOM     32  O   UNL     1       5.270   0.134  18.066  0.00  0.00    -0.276 OA
ATOM     33  C   UNL     1       6.691   1.929  18.658  0.00  0.00    +0.109 C 
ATOM     34  H   UNL     1       5.531   2.741  16.475  0.00  0.00    +0.155 HD
BRANCH  22  35
ATOM     35  O   UNL     1      -0.131  -2.790  16.313  0.00  0.00    -0.480 OA
ATOM     36  H   UNL     1       0.169  -3.034  17.200  0.00  0.00    +0.295 HD
ENDBRANCH  22  35
ENDBRANCH  19  20
ENDBRANCH   1  19
TORSDOF 6
