REMARK  Name = ZINC24834457
REMARK  10 active torsions:
REMARK  status: ('A' for Active; 'I' for Inactive)
REMARK    1  A    between atoms: C_1  and  C_2
REMARK    2  A    between atoms: C_2  and  O_3
REMARK    3  A    between atoms: O_3  and  C_4
REMARK    4  A    between atoms: C_11  and  C_18
REMARK    5  A    between atoms: C_13  and  O_14
REMARK    6  A    between atoms: C_18  and  S_19
REMARK    7  A    between atoms: S_19  and  C_20
REMARK    8  A    between atoms: N_30  and  C_31
REMARK    9  A    between atoms: C_31  and  C_32
REMARK   10  A    between atoms: C_31  and  C_33
REMARK                            x       y       z     vdW  Elec       q    Type
REMARK                         _______ _______ _______ _____ _____    ______ ____
ROOT
ATOM      1  C   UNL     1      -2.580   4.966   0.722  0.00  0.00    +0.405 C 
ATOM      2  O   UNL     1      -1.607   5.475   1.242  0.00  0.00    -0.226 OA
ATOM      3  N   UNL     1      -2.453   3.807   0.045  0.00  0.00    -0.251 N 
ATOM      4  C   UNL     1      -1.226   3.143   0.023  0.00  0.00    +0.040 A 
ATOM      5  C   UNL     1      -1.194   1.749   0.014  0.00  0.00    +0.024 A 
ATOM      6  C   UNL     1      -0.002   1.085  -0.002  0.00  0.00    +0.013 A 
ATOM      7  C   UNL     1       1.196   1.808  -0.023  0.00  0.00    +0.022 A 
ATOM      8  C   UNL     1       2.490   1.123  -0.047  0.00  0.00    -0.020 A 
ATOM      9  C   UNL     1       3.618   1.880  -0.068  0.00  0.00    +0.092 A 
ATOM     10  C   UNL     1       3.518   3.286  -0.064  0.00  0.00    +0.285 A 
ATOM     11  O   UNL     1       2.329   3.909  -0.041  0.00  0.00    -0.425 OA
ATOM     12  C   UNL     1       1.171   3.216  -0.020  0.00  0.00    +0.141 A 
ATOM     13  C   UNL     1      -0.049   3.875   0.003  0.00  0.00    +0.070 A 
ATOM     14  H   UNL     1      -3.317   3.385  -0.489  0.00  0.00    +0.158 HD
ENDROOT
BRANCH  10  15
ATOM     15  O   UNL     1       4.537   3.953  -0.082  0.00  0.00    -0.480 OA
ATOM     16  H   UNL     1       4.476   5.052  -0.079  0.00  0.00    +0.295 HD
ENDBRANCH  10  15
BRANCH   1  17
ATOM     17  O   UNL     1      -3.785   5.560   0.820  0.00  0.00    -0.450 OA
BRANCH  17  19
ATOM     18  C   UNL     1      -5.285   7.326   1.567  0.00  0.00    +0.048 C 
ATOM     19  C   UNL     1      -3.846   6.806   1.563  0.00  0.00    +0.230 C 
ENDBRANCH  17  19
ENDBRANCH   1  17
BRANCH   8  20
ATOM     20  C   UNL     1       2.568  -0.382  -0.050  0.00  0.00    +0.113 C 
BRANCH  20  21
ATOM     21  S   UNL     1       2.568  -0.983  -1.757  0.00  0.00    -0.083 S 
BRANCH  21  22
ATOM     22  C   UNL     1       2.664  -2.719  -1.470  0.00  0.00    +0.173 A 
ATOM     23  N   UNL     1       2.714  -3.146  -0.233  0.00  0.00    -0.223 NA
ATOM     24  C   UNL     1       2.783  -4.460   0.059  0.00  0.00    +0.079 A 
ATOM     25  C   UNL     1       2.832  -4.916   1.380  0.00  0.00    +0.028 A 
ATOM     26  C   UNL     1       2.907  -6.257   1.630  0.00  0.00    +0.002 A 
ATOM     27  C   UNL     1       2.935  -7.178   0.591  0.00  0.00    +0.001 A 
ATOM     28  C   UNL     1       2.889  -6.763  -0.712  0.00  0.00    +0.015 A 
ATOM     29  C   UNL     1       2.812  -5.400  -0.996  0.00  0.00    +0.065 A 
ATOM     30  C   UNL     1       2.760  -4.897  -2.375  0.00  0.00    +0.263 A 
ATOM     31  O   UNL     1       2.782  -5.657  -3.326  0.00  0.00    -0.267 OA
ATOM     32  N   UNL     1       2.688  -3.557  -2.549  0.00  0.00    -0.285 N 
BRANCH  32  33
ATOM     33  C   UNL     1       2.633  -3.001  -3.903  0.00  0.00    +0.087 C 
ATOM     34  C   UNL     1       3.892  -3.408  -4.673  0.00  0.00    +0.031 C 
ATOM     35  C   UNL     1       1.397  -3.538  -4.627  0.00  0.00    +0.031 C 
ENDBRANCH  32  33
ENDBRANCH  21  22
ENDBRANCH  20  21
ENDBRANCH   8  20
TORSDOF 7
