REMARK  Name = ZINC13214131
REMARK  5 active torsions:
REMARK  status: ('A' for Active; 'I' for Inactive)
REMARK    1  A    between atoms: C_3  and  C_30
REMARK    2  A    between atoms: C_5  and  N_7
REMARK    3  A    between atoms: C_8  and  C_22
REMARK    4  A    between atoms: C_10  and  C_15
REMARK    5  A    between atoms: C_15  and  C_17
REMARK                            x       y       z     vdW  Elec       q    Type
REMARK                         _______ _______ _______ _____ _____    ______ ____
ROOT
ATOM      1  N   UNL     1       1.235  -2.087  -0.023  0.00  0.00    -0.253 N 
ATOM      2  C   UNL     1       0.054  -2.958  -0.014  0.00  0.00    +0.150 C 
ATOM      3  C   UNL     1       0.577  -4.376  -0.028  0.00  0.00    +0.080 C 
ATOM      4  C   UNL     1       1.927  -4.293  -0.044  0.00  0.00    +0.250 C 
ATOM      5  C   UNL     1       2.327  -2.873  -0.046  0.00  0.00    +0.292 C 
ATOM      6  O   UNL     1       3.474  -2.471  -0.064  0.00  0.00    -0.266 OA
ATOM      7  O   UNL     1       2.777  -5.347  -0.060  0.00  0.00    -0.282 OA
ENDROOT
BRANCH   2   8
ATOM      8  C   UNL     1      -0.759  -2.716   1.232  0.00  0.00    -0.021 A 
ATOM      9  C   UNL     1      -0.128  -2.613   2.459  0.00  0.00    +0.008 A 
ATOM     10  C   UNL     1      -0.872  -2.391   3.602  0.00  0.00    +0.040 A 
ATOM     11  C   UNL     1      -2.249  -2.272   3.520  0.00  0.00    +0.137 A 
ATOM     12  C   UNL     1      -2.880  -2.375   2.291  0.00  0.00    +0.053 A 
ATOM     13  C   UNL     1      -2.133  -2.592   1.147  0.00  0.00    +0.024 A 
ATOM     14 BR   UNL     1      -4.760  -2.213   2.176  0.00  0.00    -0.047 Br
ATOM     15  F   UNL     1      -2.977  -2.055   4.637  0.00  0.00    -0.204 F 
ENDBRANCH   2   8
BRANCH   1  20
ATOM     16  C   UNL     1       0.004   1.381   0.017  0.00  0.00    +0.003 A 
ATOM     17  C   UNL     1       1.189   2.088   0.001  0.00  0.00    +0.015 A 
ATOM     18  C   UNL     1       2.409   1.407  -0.023  0.00  0.00    +0.065 A 
ATOM     19  C   UNL     1       2.423   0.011  -0.031  0.00  0.00    +0.038 A 
ATOM     20  C   UNL     1       1.227  -0.689  -0.015  0.00  0.00    +0.038 A 
ATOM     21  C   UNL     1       0.018  -0.001   0.009  0.00  0.00    +0.023 A 
BRANCH  18  22
ATOM     22  C   UNL     1       3.677   2.161  -0.041  0.00  0.00    +0.387 C 
ATOM     23  O   UNL     1       3.663   3.383  -0.034  0.00  0.00    -0.241 OA
ATOM     24  O   UNL     1       4.744   1.562  -0.063  0.00  0.00    -0.241 OA
ENDBRANCH  18  22
ENDBRANCH   1  20
BRANCH   3  25
ATOM     25  C   UNL     1      -0.225  -5.604  -0.025  0.00  0.00    +0.230 C 
ATOM     26  O   UNL     1      -0.180  -6.359   0.930  0.00  0.00    -0.283 OA
BRANCH  25  27
ATOM     27  C   UNL     1      -1.081  -5.924  -1.172  0.00  0.00    +0.175 A 
ATOM     28  C   UNL     1      -1.956  -6.985  -1.262  0.00  0.00    +0.053 A 
ATOM     29  C   UNL     1      -2.558  -6.901  -2.526  0.00  0.00    +0.042 A 
ATOM     30  C   UNL     1      -2.038  -5.816  -3.144  0.00  0.00    +0.196 A 
ATOM     31  O   UNL     1      -1.155  -5.229  -2.326  0.00  0.00    -0.460 OA
ENDBRANCH  25  27
ENDBRANCH   3  25
TORSDOF 5
