REMARK  Name = ZINC40014597
REMARK  14 active torsions:
REMARK  status: ('A' for Active; 'I' for Inactive)
REMARK    1  A    between atoms: C_1  and  C_2
REMARK    2  A    between atoms: C_2  and  C_3
REMARK    3  A    between atoms: C_3  and  C_4
REMARK    4  A    between atoms: C_4  and  N_5
REMARK    5  A    between atoms: N_5  and  C_6
REMARK    6  A    between atoms: N_5  and  C_10
REMARK    7  A    between atoms: C_6  and  C_7
REMARK    8  A    between atoms: C_7  and  C_8
REMARK    9  A    between atoms: C_8  and  C_9
REMARK   10  A    between atoms: C_10  and  C_11
REMARK   11  A    between atoms: C_11  and  C_12
REMARK   12  A    between atoms: C_12  and  N_13
REMARK   13  A    between atoms: C_14  and  C_30
REMARK   14  A    between atoms: C_33  and  N_36
REMARK                            x       y       z     vdW  Elec       q    Type
REMARK                         _______ _______ _______ _____ _____    ______ ____
ROOT
ATOM      1  N   UNL     1       3.870  -5.928  -0.300  0.00  0.00    -0.284 N 
ATOM      2  C   UNL     1       3.352  -6.239  -1.642  0.00  0.00    +0.144 C 
ATOM      3  C   UNL     1       4.554  -6.397  -2.516  0.00  0.00    +0.072 A 
ATOM      4  C   UNL     1       4.676  -6.717  -3.942  0.00  0.00    +0.199 A 
ATOM      5  O   UNL     1       3.726  -6.741  -4.704  0.00  0.00    -0.287 OA
ATOM      6  C   UNL     1       6.068  -7.008  -4.368  0.00  0.00    +0.066 A 
ATOM      7  C   UNL     1       6.324  -7.521  -5.639  0.00  0.00    +0.035 A 
ATOM      8  C   UNL     1       7.622  -7.790  -6.016  0.00  0.00    +0.042 A 
ATOM      9  C   UNL     1       8.667  -7.552  -5.132  0.00  0.00    +0.023 A 
ATOM     10  C   UNL     1       8.426  -7.045  -3.876  0.00  0.00    +0.048 A 
ATOM     11  C   UNL     1       7.121  -6.761  -3.472  0.00  0.00    +0.140 A 
ATOM     12  O   UNL     1       6.913  -6.253  -2.235  0.00  0.00    -0.450 OA
ATOM     13  C   UNL     1       5.661  -6.189  -1.743  0.00  0.00    +0.199 A 
ATOM     14  C   UNL     1       5.217  -5.897  -0.368  0.00  0.00    +0.283 C 
ATOM     15  O   UNL     1       5.956  -5.665   0.567  0.00  0.00    -0.267 OA
ATOM     16 CL   UNL     1       7.952  -8.428  -7.597  0.00  0.00    -0.084 Cl
ENDROOT
BRANCH   2  17
ATOM     17  C   UNL     1       2.490  -5.108  -2.141  0.00  0.00    -0.022 A 
ATOM     18  C   UNL     1       2.866  -3.798  -1.911  0.00  0.00    +0.008 A 
ATOM     19  C   UNL     1       2.075  -2.761  -2.368  0.00  0.00    +0.033 A 
ATOM     20  C   UNL     1       0.908  -3.034  -3.057  0.00  0.00    +0.126 A 
ATOM     21  C   UNL     1       0.532  -4.343  -3.288  0.00  0.00    +0.033 A 
ATOM     22  C   UNL     1       1.325  -5.381  -2.834  0.00  0.00    +0.008 A 
BRANCH  20  23
ATOM     23  N   UNL     1       0.061  -1.923  -3.546  0.00  0.00    +0.056 N 
ATOM     24  O   UNL     1       0.389  -0.777  -3.343  0.00  0.00    -0.126 OA
ATOM     25  O   UNL     1      -0.960  -2.162  -4.148  0.00  0.00    -0.126 OA
ENDBRANCH  20  23
ENDBRANCH   2  17
BRANCH   1  26
ATOM     26  C   UNL     1       3.064  -5.689   0.900  0.00  0.00    +0.107 C 
BRANCH  26  27
ATOM     27  C   UNL     1       2.735  -4.199   1.004  0.00  0.00    +0.000 C 
BRANCH  27  28
ATOM     28  C   UNL     1       1.893  -3.949   2.257  0.00  0.00    -0.077 C 
BRANCH  28  29
ATOM     29  N   UNL     1       1.577  -2.517   2.357  0.00  0.00    +0.380 N 
ATOM     30  H   UNL     1       2.432  -1.982   2.334  0.00  0.00    -0.082 HD
BRANCH  29  31
ATOM     31  C   UNL     1       0.722  -2.124   1.229  0.00  0.00    -0.079 C 
BRANCH  31  32
ATOM     32  C   UNL     1       0.508  -0.610   1.255  0.00  0.00    -0.019 C 
BRANCH  32  34
ATOM     33  C   UNL     1      -0.486   1.331   0.036  0.00  0.00    +0.004 C 
ATOM     34  C   UNL     1      -0.272  -0.183   0.010  0.00  0.00    -0.005 C 
ENDBRANCH  32  34
ENDBRANCH  31  32
ENDBRANCH  29  31
BRANCH  29  35
ATOM     35  C   UNL     1       0.872  -2.259   3.620  0.00  0.00    -0.079 C 
BRANCH  35  36
ATOM     36  C   UNL     1       1.813  -2.531   4.795  0.00  0.00    -0.019 C 
BRANCH  36  37
ATOM     37  C   UNL     1       1.125  -2.135   6.102  0.00  0.00    -0.005 C 
ATOM     38  C   UNL     1       2.066  -2.408   7.277  0.00  0.00    +0.004 C 
ENDBRANCH  36  37
ENDBRANCH  35  36
ENDBRANCH  29  35
ENDBRANCH  28  29
ENDBRANCH  27  28
ENDBRANCH  26  27
ENDBRANCH   1  26
TORSDOF 12
