REMARK  Name = ZINC09171070
REMARK  13 active torsions:
REMARK  status: ('A' for Active; 'I' for Inactive)
REMARK    1  A    between atoms: C_1  and  C_2
REMARK    2  A    between atoms: C_2  and  C_4
REMARK    3  A    between atoms: C_4  and  O_38
REMARK    4  A    between atoms: C_9  and  C_37
REMARK    5  A    between atoms: N_21  and  O_22
REMARK    6  A    between atoms: O_22  and  C_23
REMARK    7  A    between atoms: C_23  and  C_24
REMARK    8  A    between atoms: N_26  and  C_27
REMARK    9  A    between atoms: C_27  and  C_28
REMARK   10  A    between atoms: C_28  and  C_29
REMARK   11  A    between atoms: C_29  and  C_30
REMARK   12  A    between atoms: C_30  and  C_31
REMARK   13  A    between atoms: C_35  and  C_36
REMARK                            x       y       z     vdW  Elec       q    Type
REMARK                         _______ _______ _______ _____ _____    ______ ____
ROOT
ATOM      1  C   UNL     1      -0.716   3.086   1.737  0.00  0.00    +0.129 C 
ATOM      2  C   UNL     1       0.301   3.601   2.790  0.00  0.00    +0.043 C 
ATOM      3  C   UNL     1      -0.466   3.687   4.137  0.00  0.00    +0.008 C 
ATOM      4  C   UNL     1      -1.785   2.952   3.855  0.00  0.00    +0.002 C 
ATOM      5  C   UNL     1      -2.079   3.358   2.399  0.00  0.00    +0.007 C 
ATOM      6  C   UNL     1      -3.265   2.633   1.821  0.00  0.00    +0.010 C 
ATOM      7  C   UNL     1      -4.161   2.095   2.958  0.00  0.00    +0.005 C 
ATOM      8  C   UNL     1      -4.249   3.169   4.028  0.00  0.00    +0.002 C 
ATOM      9  C   UNL     1      -2.921   3.223   4.795  0.00  0.00    -0.003 C 
ATOM     10  C   UNL     1      -2.846   4.495   5.621  0.00  0.00    +0.008 C 
ATOM     11  C   UNL     1      -3.981   4.447   6.665  0.00  0.00    +0.031 C 
ATOM     12  C   UNL     1      -5.295   4.247   5.928  0.00  0.00    -0.062 C 
ATOM     13  C   UNL     1      -6.256   5.141   6.113  0.00  0.00    +0.026 C 
ATOM     14  C   UNL     1      -7.511   5.021   5.346  0.00  0.00    +0.080 C 
ATOM     15  N   UNL     1      -8.633   5.501   5.775  0.00  0.00    -0.089 NA
ATOM     16  C   UNL     1      -7.394   4.298   4.016  0.00  0.00    +0.059 C 
ATOM     17  C   UNL     1      -6.747   2.943   4.299  0.00  0.00    +0.017 C 
ATOM     18  C   UNL     1      -5.412   3.069   4.995  0.00  0.00    -0.007 C 
ATOM     19  C   UNL     1      -5.262   1.798   5.834  0.00  0.00    +0.016 C 
ATOM     20  C   UNL     1      -2.308   4.876   2.291  0.00  0.00    +0.015 C 
ENDROOT
BRANCH   1  22
ATOM     21  C   UNL     1       0.447   1.182   0.390  0.00  0.00    +0.089 C 
ATOM     22  C   UNL     1      -0.492   1.623   1.483  0.00  0.00    +0.162 C 
ATOM     23  O   UNL     1      -1.065   0.799   2.155  0.00  0.00    -0.295 OA
ENDBRANCH   1  22
BRANCH   1  24
ATOM     24  O   UNL     1      -0.601   3.834   0.528  0.00  0.00    -0.381 OA
ATOM     25  H   UNL     1       0.260   3.752   0.095  0.00  0.00    +0.211 HD
ENDBRANCH   1  24
BRANCH  15  26
ATOM     26  O   UNL     1      -9.807   5.360   4.995  0.00  0.00    -0.384 OA
BRANCH  26  27
ATOM     27  C   UNL     1     -10.971   5.937   5.589  0.00  0.00    +0.358 C 
BRANCH  27  28
ATOM     28  C   UNL     1     -12.155   5.729   4.679  0.00  0.00    +0.253 C 
ATOM     29  O   UNL     1     -12.014   5.146   3.625  0.00  0.00    -0.272 OA
ATOM     30  N   UNL     1     -13.369   6.193   5.036  0.00  0.00    -0.312 N 
ATOM     31  H   UNL     1     -13.481   6.660   5.879  0.00  0.00    +0.149 HD
BRANCH  30  32
ATOM     32  C   UNL     1     -14.519   5.992   4.151  0.00  0.00    +0.104 C 
BRANCH  32  33
ATOM     33  C   UNL     1     -15.766   6.609   4.787  0.00  0.00    +0.019 C 
BRANCH  33  34
ATOM     34  C   UNL     1     -16.967   6.399   3.863  0.00  0.00    +0.013 C 
BRANCH  34  35
ATOM     35  C   UNL     1     -18.214   7.016   4.499  0.00  0.00    +0.125 C 
BRANCH  35  36
ATOM     36  C   UNL     1     -19.397   6.809   3.589  0.00  0.00    +0.356 C 
ATOM     37  O   UNL     1     -19.257   6.228   2.539  0.00  0.00    -0.246 OA
ATOM     38  O   UNL     1     -20.606   7.271   3.944  0.00  0.00    -0.246 OA
ENDBRANCH  35  36
ENDBRANCH  34  35
ENDBRANCH  33  34
ENDBRANCH  32  33
ENDBRANCH  30  32
ENDBRANCH  27  28
ENDBRANCH  26  27
ENDBRANCH  15  26
TORSDOF 10
