REMARK  Name = ZINC13031551
REMARK  15 active torsions:
REMARK  status: ('A' for Active; 'I' for Inactive)
REMARK    1  A    between atoms: C_1  and  C_2
REMARK    2  A    between atoms: C_2  and  O_3
REMARK    3  A    between atoms: O_3  and  C_4
REMARK    4  A    between atoms: C_8  and  N_10
REMARK    5  A    between atoms: N_10  and  C_11
REMARK    6  A    between atoms: C_11  and  C_13
REMARK    7  A    between atoms: C_11  and  C_19
REMARK    8  A    between atoms: C_16  and  C_18
REMARK    9  A    between atoms: N_21  and  C_22
REMARK   10  A    between atoms: C_22  and  C_23
REMARK   11  A    between atoms: C_23  and  C_24
REMARK   12  A    between atoms: C_24  and  C_25
REMARK   13  A    between atoms: C_24  and  C_26
REMARK   14  A    between atoms: C_27  and  C_29
REMARK   15  A    between atoms: C_29  and  N_30
REMARK                            x       y       z     vdW  Elec       q    Type
REMARK                         _______ _______ _______ _____ _____    ______ ____
ROOT
ATOM      1  N   UNL     1      -5.468   3.399  -1.598  0.00  0.00    -0.251 N 
ATOM      2  C   UNL     1      -4.139   3.405  -1.374  0.00  0.00    +0.242 C 
ATOM      3  O   UNL     1      -3.374   3.681  -2.274  0.00  0.00    -0.273 OA
ENDROOT
BRANCH   1   8
ATOM      4  C   UNL     1      -6.826   3.342   1.822  0.00  0.00    +0.122 A 
ATOM      5  C   UNL     1      -8.120   2.901   1.580  0.00  0.00    +0.046 A 
ATOM      6  C   UNL     1      -8.529   2.627   0.289  0.00  0.00    +0.005 A 
ATOM      7  C   UNL     1      -7.652   2.792  -0.765  0.00  0.00    +0.024 A 
ATOM      8  C   UNL     1      -6.356   3.233  -0.530  0.00  0.00    +0.041 A 
ATOM      9  C   UNL     1      -5.942   3.504   0.767  0.00  0.00    +0.069 A 
BRANCH   4  10
ATOM     10  O   UNL     1      -6.425   3.610   3.092  0.00  0.00    -0.492 OA
BRANCH  10  12
ATOM     11  C   UNL     1      -6.758   3.766   5.481  0.00  0.00    +0.048 C 
ATOM     12  C   UNL     1      -7.388   3.416   4.131  0.00  0.00    +0.225 C 
ENDBRANCH  10  12
ENDBRANCH   4  10
ENDBRANCH   1   8
BRANCH   1  13
ATOM     13  C   UNL     1      -5.982   3.567  -2.959  0.00  0.00    +0.233 C 
BRANCH  13  14
ATOM     14  C   UNL     1      -6.856   4.793  -3.019  0.00  0.00    +0.135 A 
ATOM     15  C   UNL     1      -6.893   5.685  -4.025  0.00  0.00    +0.047 A 
ATOM     16  C   UNL     1      -7.845   6.667  -3.667  0.00  0.00    +0.045 A 
ATOM     17  C   UNL     1      -8.333   6.317  -2.464  0.00  0.00    +0.102 A 
ATOM     18  O   UNL     1      -7.734   5.178  -2.078  0.00  0.00    -0.462 OA
ATOM     19  C   UNL     1      -9.379   7.071  -1.683  0.00  0.00    +0.086 C 
ENDBRANCH  13  14
BRANCH  13  20
ATOM     20  C   UNL     1      -6.791   2.355  -3.344  0.00  0.00    +0.242 C 
ATOM     21  O   UNL     1      -6.924   1.441  -2.558  0.00  0.00    -0.273 OA
ATOM     22  N   UNL     1      -7.366   2.286  -4.561  0.00  0.00    -0.313 N 
ATOM     23  H   UNL     1      -7.259   3.017  -5.189  0.00  0.00    +0.149 HD
BRANCH  22  24
ATOM     24  C   UNL     1      -8.152   1.108  -4.934  0.00  0.00    +0.104 C 
BRANCH  24  25
ATOM     25  C   UNL     1      -8.689   1.283  -6.356  0.00  0.00    +0.022 C 
BRANCH  25  26
ATOM     26  C   UNL     1      -9.510   0.052  -6.747  0.00  0.00    -0.016 C 
ATOM     27  C   UNL     1     -10.749  -0.038  -5.854  0.00  0.00    +0.007 C 
ATOM     28  C   UNL     1      -9.943   0.171  -8.209  0.00  0.00    +0.007 C 
ENDBRANCH  25  26
ENDBRANCH  24  25
ENDBRANCH  22  24
ENDBRANCH  13  20
ENDBRANCH   1  13
BRANCH   2  29
ATOM     29  C   UNL     1      -3.603   3.068  -0.006  0.00  0.00    +0.242 C 
BRANCH  29  30
ATOM     30  N   UNL     1      -2.274   2.466  -0.137  0.00  0.00    -0.235 N 
ATOM     31  C   UNL     1      -1.987   1.129  -0.276  0.00  0.00    +0.090 A 
ATOM     32  C   UNL     1      -2.762  -0.024  -0.343  0.00  0.00    +0.029 A 
ATOM     33  C   UNL     1      -2.157  -1.241  -0.484  0.00  0.00    +0.002 A 
ATOM     34  C   UNL     1      -0.774  -1.338  -0.571  0.00  0.00    +0.002 A 
ATOM     35  C   UNL     1       0.008  -0.222  -0.512  0.00  0.00    +0.032 A 
ATOM     36  C   UNL     1      -0.587   1.039  -0.363  0.00  0.00    +0.113 A 
ATOM     37  N   UNL     1      -0.090   2.288  -0.277  0.00  0.00    -0.129 NA
ATOM     38  N   UNL     1      -1.044   3.141  -0.144  0.00  0.00    -0.064 NA
ENDBRANCH  29  30
ENDBRANCH   2  29
TORSDOF 11
