REMARK  Name = ZINC26441405
REMARK  7 active torsions:
REMARK  status: ('A' for Active; 'I' for Inactive)
REMARK    1  A    between atoms: C_1  and  C_2
REMARK    2  A    between atoms: C_2  and  C_3
REMARK    3  A    between atoms: C_2  and  C_4
REMARK    4  A    between atoms: C_13  and  C_15
REMARK    5  A    between atoms: N_20  and  C_21
REMARK    6  A    between atoms: C_21  and  C_23
REMARK    7  A    between atoms: C_23  and  N_24
REMARK                            x       y       z     vdW  Elec       q    Type
REMARK                         _______ _______ _______ _____ _____    ______ ____
ROOT
ATOM      1  C   UNL     1      -5.592   3.822  -0.817  0.00  0.00    +0.055 A 
ATOM      2  C   UNL     1      -6.250   4.809  -0.137  0.00  0.00    +0.074 A 
ATOM      3  S   UNL     1      -7.555   5.197  -1.297  0.00  0.00    -0.060 S 
ATOM      4  C   UNL     1      -7.093   4.015  -2.556  0.00  0.00    +0.163 A 
ATOM      5  N   UNL     1      -6.029   3.454  -2.012  0.00  0.00    -0.335 N 
ATOM      6  N   UNL     1      -7.692   3.759  -3.783  0.00  0.00    -0.155 NA
ATOM      7  H   UNL     1      -5.502   2.667  -2.572  0.00  0.00    +0.168 HD
ENDROOT
BRANCH   1  17
ATOM      8  C   UNL     1      -0.388   1.334   2.447  0.00  0.00    +0.222 C 
ATOM      9  O   UNL     1      -0.761   2.152   3.261  0.00  0.00    -0.275 OA
ATOM     10  N   UNL     1      -1.009   1.238   1.255  0.00  0.00    -0.271 N 
ATOM     11  C   UNL     1      -0.585   0.368   0.155  0.00  0.00    +0.118 C 
ATOM     12  C   UNL     1      -1.600   0.615  -0.973  0.00  0.00    +0.056 C 
ATOM     13  C   UNL     1      -2.556   1.641  -0.406  0.00  0.00    -0.024 A 
ATOM     14  C   UNL     1      -2.154   1.954   0.884  0.00  0.00    +0.040 A 
ATOM     15  C   UNL     1      -2.888   2.888   1.619  0.00  0.00    +0.024 A 
ATOM     16  C   UNL     1      -3.997   3.492   1.072  0.00  0.00    +0.012 A 
ATOM     17  C   UNL     1      -4.397   3.174  -0.225  0.00  0.00    -0.001 A 
ATOM     18  C   UNL     1      -3.667   2.243  -0.961  0.00  0.00    +0.015 A 
BRANCH   8  20
ATOM     19  C   UNL     1       2.066   1.042   2.238  0.00  0.00    +0.017 C 
ATOM     20  C   UNL     1       0.770   0.425   2.769  0.00  0.00    +0.069 C 
ATOM     21  C   UNL     1       0.873   0.247   4.285  0.00  0.00    +0.017 C 
ENDBRANCH   8  20
ENDBRANCH   1  17
BRANCH   6  22
ATOM     22  C   UNL     1      -8.784   4.455  -4.159  0.00  0.00    +0.252 C 
ATOM     23  O   UNL     1      -9.243   5.304  -3.426  0.00  0.00    -0.272 OA
BRANCH  22  24
ATOM     24  C   UNL     1      -9.433   4.176  -5.490  0.00  0.00    +0.182 C 
BRANCH  24  25
ATOM     25  N   UNL     1     -10.595   5.059  -5.662  0.00  0.00    -0.290 NA
ATOM     26  C   UNL     1     -11.650   4.737  -4.691  0.00  0.00    +0.113 C 
ATOM     27  C   UNL     1     -12.814   5.717  -4.865  0.00  0.00    +0.175 C 
ATOM     28  O   UNL     1     -13.283   5.656  -6.215  0.00  0.00    -0.377 OA
ATOM     29  C   UNL     1     -12.281   5.965  -7.187  0.00  0.00    +0.175 C 
ATOM     30  C   UNL     1     -11.112   4.988  -7.036  0.00  0.00    +0.113 C 
ENDBRANCH  24  25
ENDBRANCH  22  24
ENDBRANCH   6  22
TORSDOF 5
