REMARK  Name = ZINC33581062
REMARK  8 active torsions:
REMARK  status: ('A' for Active; 'I' for Inactive)
REMARK    1  A    between atoms: C_5  and  C_7
REMARK    2  A    between atoms: C_7  and  C_8
REMARK    3  A    between atoms: C_8  and  N_9
REMARK    4  A    between atoms: C_14  and  C_29
REMARK    5  A    between atoms: C_17  and  C_22
REMARK    6  A    between atoms: C_17  and  C_26
REMARK    7  A    between atoms: C_22  and  C_23
REMARK    8  A    between atoms: C_34  and  N_35
REMARK                            x       y       z     vdW  Elec       q    Type
REMARK                         _______ _______ _______ _____ _____    ______ ____
ROOT
ATOM      1  N   UNL     1       2.323  -4.158  -1.185  0.00  0.00    -0.241 N 
ATOM      2  C   UNL     1       3.282  -4.917  -0.561  0.00  0.00    +0.224 C 
ATOM      3  O   UNL     1       4.106  -4.551   0.250  0.00  0.00    -0.275 OA
ATOM      4  C   UNL     1       3.090  -6.250  -1.085  0.00  0.00    +0.077 C 
ATOM      5  C   UNL     1       3.425  -7.645  -0.769  0.00  0.00    -0.024 C 
ATOM      6  N   UNL     1       2.453  -8.452  -1.578  0.00  0.00    +0.396 N 
ATOM      7  C   UNL     1       1.508  -7.492  -2.237  0.00  0.00    +0.058 C 
ATOM      8  C   UNL     1       1.519  -6.303  -1.253  0.00  0.00    +0.086 C 
ATOM      9  C   UNL     1       1.376  -4.915  -1.814  0.00  0.00    +0.225 C 
ATOM     10  O   UNL     1       0.584  -4.545  -2.654  0.00  0.00    -0.275 OA
ATOM     11  H   UNL     1       2.947  -8.982  -2.279  0.00  0.00    -0.083 HD
ATOM     12  H   UNL     1       1.940  -9.076  -0.973  0.00  0.00    -0.083 HD
ENDROOT
BRANCH   5  13
ATOM     13  C   UNL     1       3.239  -7.912   0.703  0.00  0.00    -0.029 A 
ATOM     14  C   UNL     1       2.046  -8.435   1.165  0.00  0.00    +0.024 A 
ATOM     15  C   UNL     1       1.876  -8.680   2.516  0.00  0.00    +0.041 A 
ATOM     16  C   UNL     1       2.900  -8.400   3.403  0.00  0.00    +0.022 A 
ATOM     17  C   UNL     1       4.092  -7.877   2.940  0.00  0.00    +0.034 A 
ATOM     18  C   UNL     1       4.263  -7.637   1.589  0.00  0.00    +0.128 A 
ATOM     19 CL   UNL     1       0.378  -9.337   3.097  0.00  0.00    -0.084 Cl
BRANCH  18  20
ATOM     20  N   UNL     1       5.543  -7.082   1.093  0.00  0.00    +0.057 N 
ATOM     21  O   UNL     1       6.439  -6.842   1.868  0.00  0.00    -0.126 OA
ATOM     22  O   UNL     1       5.691  -6.869  -0.088  0.00  0.00    -0.126 OA
ENDBRANCH  18  20
ENDBRANCH   5  13
BRANCH   7  23
ATOM     23  C   UNL     1       0.126  -8.084  -2.332  0.00  0.00    +0.347 C 
ATOM     24  O   UNL     1      -0.084  -9.214  -1.924  0.00  0.00    -0.248 OA
ATOM     25  O   UNL     1      -0.784  -7.433  -2.818  0.00  0.00    -0.248 OA
ENDBRANCH   7  23
BRANCH   1  26
ATOM     26  C   UNL     1       2.314  -2.693  -1.172  0.00  0.00    +0.122 C 
BRANCH  26  27
ATOM     27  C   UNL     1       1.521  -2.199   0.040  0.00  0.00    +0.075 C 
BRANCH  27  32
ATOM     28  C   UNL     1       0.308   1.369   0.108  0.00  0.00    +0.003 A 
ATOM     29  C   UNL     1       1.528   2.028   0.075  0.00  0.00    +0.020 A 
ATOM     30  C   UNL     1       2.693   1.286   0.033  0.00  0.00    +0.111 A 
ATOM     31  N   UNL     1       2.653  -0.033   0.023  0.00  0.00    -0.260 NA
ATOM     32  C   UNL     1       1.511  -0.692   0.053  0.00  0.00    +0.043 A 
ATOM     33  C   UNL     1       0.306  -0.017   0.097  0.00  0.00    +0.023 A 
ENDBRANCH  27  32
ENDBRANCH  26  27
ENDBRANCH   1  26
BRANCH   7  34
ATOM     34  C   UNL     1       2.023  -7.088  -3.620  0.00  0.00    +0.125 C 
BRANCH  34  35
ATOM     35  C   UNL     1       2.080  -8.303  -4.509  0.00  0.00    +0.355 C 
ATOM     36  O   UNL     1       1.740  -9.392  -4.077  0.00  0.00    -0.246 OA
ATOM     37  O   UNL     1       2.466  -8.198  -5.661  0.00  0.00    -0.246 OA
ENDBRANCH  34  35
ENDBRANCH   7  34
TORSDOF 8
