REMARK  Name = ZINC24363147
REMARK  7 active torsions:
REMARK  status: ('A' for Active; 'I' for Inactive)
REMARK    1  A    between atoms: C_1  and  C_2
REMARK    2  A    between atoms: C_4  and  C_30
REMARK    3  A    between atoms: C_7  and  C_13
REMARK    4  A    between atoms: C_11  and  C_12
REMARK    5  A    between atoms: N_15  and  C_16
REMARK    6  A    between atoms: N_15  and  C_17
REMARK    7  A    between atoms: C_17  and  C_18
REMARK                            x       y       z     vdW  Elec       q    Type
REMARK                         _______ _______ _______ _____ _____    ______ ____
ROOT
ATOM      1  C   UNL     1      -4.048  -1.317  -1.117  0.00  0.00    +0.263 C 
ATOM      2  O   UNL     1      -3.498  -1.564  -2.174  0.00  0.00    -0.268 OA
ATOM      3  N   UNL     1      -3.599  -1.877   0.023  0.00  0.00    -0.292 N 
ATOM      4  C   UNL     1      -4.263  -1.581   1.295  0.00  0.00    +0.133 C 
ENDROOT
BRANCH   1  11
ATOM      5  C   UNL     1      -9.703   3.221   0.546  0.00  0.00    +0.044 C 
ATOM      6  C   UNL     1      -8.714   2.401  -0.242  0.00  0.00    -0.045 A 
ATOM      7  C   UNL     1      -8.787   2.384  -1.630  0.00  0.00    +0.007 A 
ATOM      8  C   UNL     1      -7.902   1.648  -2.363  0.00  0.00    -0.041 A 
ATOM      9  C   UNL     1      -6.909   0.903  -1.713  0.00  0.00    +0.004 A 
ATOM     10  C   UNL     1      -5.866   0.064  -2.173  0.00  0.00    +0.041 A 
ATOM     11  C   UNL     1      -5.203  -0.407  -1.085  0.00  0.00    +0.103 A 
ATOM     12  N   UNL     1      -5.782   0.111   0.057  0.00  0.00    -0.350 N 
ATOM     13  H   UNL     1      -5.380  -0.153   1.046  0.00  0.00    +0.166 HD
ATOM     14  C   UNL     1      -6.834   0.919  -0.307  0.00  0.00    +0.050 A 
ATOM     15  C   UNL     1      -7.748   1.677   0.419  0.00  0.00    -0.024 A 
ATOM     16  C   UNL     1      -7.681   1.704   1.924  0.00  0.00    +0.046 C 
ATOM     17  C   UNL     1      -7.991   1.638  -3.867  0.00  0.00    +0.044 C 
ENDBRANCH   1  11
BRANCH   3  18
ATOM     18  C   UNL     1      -2.447  -2.782  -0.009  0.00  0.00    +0.182 C 
BRANCH  18  19
ATOM     19  C   UNL     1      -1.180  -1.989   0.178  0.00  0.00    +0.128 A 
ATOM     20  N   UNL     1       0.004  -2.656   0.178  0.00  0.00    -0.309 N 
ATOM     21  H   UNL     1       0.020  -3.747   0.043  0.00  0.00    +0.170 HD
ATOM     22  C   UNL     1       1.170  -1.989   0.343  0.00  0.00    +0.259 A 
ATOM     23  O   UNL     1       2.238  -2.574   0.344  0.00  0.00    -0.267 OA
ATOM     24  C   UNL     1       1.098  -0.531   0.519  0.00  0.00    +0.065 A 
ATOM     25  C   UNL     1       2.240   0.247   0.696  0.00  0.00    +0.015 A 
ATOM     26  C   UNL     1       2.114   1.610   0.858  0.00  0.00    +0.001 A 
ATOM     27  C   UNL     1       0.861   2.210   0.845  0.00  0.00    +0.002 A 
ATOM     28  C   UNL     1      -0.279   1.458   0.671  0.00  0.00    +0.028 A 
ATOM     29  C   UNL     1      -0.177   0.075   0.505  0.00  0.00    +0.078 A 
ATOM     30  N   UNL     1      -1.275  -0.703   0.332  0.00  0.00    -0.232 NA
ENDBRANCH  18  19
ENDBRANCH   3  18
TORSDOF 3
