REMARK  Name = ZINC64773936
REMARK  7 active torsions:
REMARK  status: ('A' for Active; 'I' for Inactive)
REMARK    1  A    between atoms: C_2  and  C_3
REMARK    2  A    between atoms: C_3  and  O_4
REMARK    3  A    between atoms: O_4  and  C_5
REMARK    4  A    between atoms: C_8  and  C_11
REMARK    5  A    between atoms: C_19  and  S_25
REMARK    6  A    between atoms: S_25  and  C_26
REMARK    7  A    between atoms: C_26  and  C_27
REMARK                            x       y       z     vdW  Elec       q    Type
REMARK                         _______ _______ _______ _____ _____    ______ ____
ROOT
ATOM      1  C   UNL     1       1.985   7.556   0.024  0.00  0.00    +0.047 C 
ATOM      2  C   UNL     1       2.791   7.975   1.257  0.00  0.00    +0.105 C 
ATOM      3  C   UNL     1       3.246   9.400   1.143  0.00  0.00    +0.219 C 
ATOM      4  O   UNL     1       3.566   9.982   2.157  0.00  0.00    -0.275 OA
ATOM      5  N   UNL     1       3.318  10.065  -0.019  0.00  0.00    -0.273 N 
ATOM      6  C   UNL     1       2.897   9.490  -1.185  0.00  0.00    +0.117 C 
ATOM      7  N   UNL     1       2.619  10.221  -2.225  0.00  0.00    -0.212 NA
ATOM      8  C   UNL     1       2.096   9.702  -3.343  0.00  0.00    +0.182 C 
ATOM      9  N   UNL     1       1.788   8.417  -3.447  0.00  0.00    -0.154 NA
ATOM     10  C   UNL     1       2.051   7.557  -2.474  0.00  0.00    +0.249 C 
ATOM     11  O   UNL     1       1.715   6.395  -2.597  0.00  0.00    -0.273 OA
ATOM     12  C   UNL     1       2.755   7.989  -1.226  0.00  0.00    +0.148 C 
ATOM     13  H   UNL     1       3.673  10.967  -0.032  0.00  0.00    +0.156 HD
ENDROOT
BRANCH   1  17
ATOM     14  C   UNL     1       1.482   3.312   0.006  0.00  0.00    +0.122 A 
ATOM     15  C   UNL     1       0.372   4.143   0.027  0.00  0.00    +0.046 A 
ATOM     16  C   UNL     1       0.537   5.515   0.033  0.00  0.00    +0.007 A 
ATOM     17  C   UNL     1       1.808   6.059   0.018  0.00  0.00    -0.042 A 
ATOM     18  C   UNL     1       2.916   5.233  -0.003  0.00  0.00    +0.007 A 
ATOM     19  C   UNL     1       2.757   3.861  -0.004  0.00  0.00    +0.046 A 
BRANCH  14  20
ATOM     20  O   UNL     1       1.323   1.962   0.000  0.00  0.00    -0.480 OA
BRANCH  20  21
ATOM     21  C   UNL     1      -0.018   1.468   0.010  0.00  0.00    +0.317 C 
BRANCH  21  23
ATOM     22  C   UNL     1       0.018  -1.178  -0.004  0.00  0.00    +0.007 C 
ATOM     23  C   UNL     1       0.002  -0.004   0.002  0.00  0.00    -0.065 C 
ENDBRANCH  21  23
ENDBRANCH  20  21
ENDBRANCH  14  20
ENDBRANCH   1  17
BRANCH   8  24
ATOM     24  S   UNL     1       1.808  10.762  -4.721  0.00  0.00    -0.084 S 
BRANCH  24  25
ATOM     25  C   UNL     1       1.110   9.661  -5.983  0.00  0.00    +0.113 C 
BRANCH  25  26
ATOM     26  C   UNL     1       0.813  10.452  -7.231  0.00  0.00    -0.019 A 
ATOM     27  C   UNL     1      -0.422  11.051  -7.393  0.00  0.00    +0.006 A 
ATOM     28  C   UNL     1      -0.694  11.776  -8.537  0.00  0.00    +0.000 A 
ATOM     29  C   UNL     1       0.269  11.904  -9.521  0.00  0.00    +0.001 A 
ATOM     30  C   UNL     1       1.504  11.306  -9.360  0.00  0.00    +0.020 A 
ATOM     31  C   UNL     1       1.780  10.584  -8.212  0.00  0.00    +0.045 A 
ATOM     32 CL   UNL     1       3.334   9.839  -8.006  0.00  0.00    -0.083 Cl
ENDBRANCH  25  26
ENDBRANCH  24  25
ENDBRANCH   8  24
TORSDOF 7
