REMARK  Name = ZINC38903017
REMARK  17 active torsions:
REMARK  status: ('A' for Active; 'I' for Inactive)
REMARK    1  A    between atoms: C_1  and  C_2
REMARK    2  A    between atoms: C_2  and  O_3
REMARK    3  A    between atoms: O_3  and  C_4
REMARK    4  A    between atoms: C_7  and  C_13
REMARK    5  A    between atoms: C_9  and  O_10
REMARK    6  A    between atoms: O_10  and  C_11
REMARK    7  A    between atoms: C_11  and  C_12
REMARK    8  A    between atoms: C_13  and  C_15
REMARK    9  A    between atoms: C_13  and  N_16
REMARK   10  A    between atoms: C_17  and  C_19
REMARK   11  A    between atoms: N_24  and  C_26
REMARK   12  A    between atoms: C_26  and  C_27
REMARK   13  A    between atoms: C_29  and  C_32
REMARK   14  A    between atoms: C_35  and  C_38
REMARK   15  A    between atoms: C_38  and  C_39
REMARK   16  A    between atoms: C_38  and  C_40
REMARK   17  A    between atoms: C_38  and  C_41
REMARK                            x       y       z     vdW  Elec       q    Type
REMARK                         _______ _______ _______ _____ _____    ______ ____
ROOT
ATOM      1  C   UNL     1      -1.776  -8.541  -1.514  0.00  0.00    +0.058 C 
ATOM      2  C   UNL     1      -2.957  -7.637  -1.879  0.00  0.00    +0.009 C 
ATOM      3  C   UNL     1      -4.263  -8.347  -1.515  0.00  0.00    -0.018 C 
ATOM      4  C   UNL     1      -4.322  -9.696  -2.235  0.00  0.00    -0.078 C 
ATOM      5  N   UNL     1      -3.182 -10.524  -1.824  0.00  0.00    +0.386 N 
ATOM      6  C   UNL     1      -1.926  -9.883  -2.233  0.00  0.00    -0.065 C 
ATOM      7  H   UNL     1      -3.191 -10.633  -0.821  0.00  0.00    -0.081 HD
ENDROOT
BRANCH   1   9
ATOM      8  N   UNL     1      -0.145  -6.683  -1.431  0.00  0.00    -0.309 N 
ATOM      9  C   UNL     1      -0.488  -7.884  -1.938  0.00  0.00    +0.215 C 
ATOM     10  O   UNL     1       0.240  -8.435  -2.736  0.00  0.00    -0.276 OA
ATOM     11  H   UNL     1      -0.727  -6.242  -0.792  0.00  0.00    +0.149 HD
BRANCH   8  12
ATOM     12  C   UNL     1       1.107  -6.044  -1.844  0.00  0.00    +0.100 C 
ATOM     13  C   UNL     1       2.257  -6.572  -0.983  0.00  0.00    +0.033 C 
BRANCH  12  17
ATOM     14  C   UNL     1       0.777  -1.811  -1.336  0.00  0.00    +0.162 A 
ATOM     15  C   UNL     1       0.243  -2.669  -0.388  0.00  0.00    +0.050 A 
ATOM     16  C   UNL     1       0.352  -4.037  -0.555  0.00  0.00    +0.009 A 
ATOM     17  C   UNL     1       0.992  -4.552  -1.667  0.00  0.00    -0.024 A 
ATOM     18  C   UNL     1       1.526  -3.702  -2.616  0.00  0.00    +0.055 A 
ATOM     19  C   UNL     1       1.416  -2.330  -2.458  0.00  0.00    +0.162 A 
BRANCH  14  20
ATOM     20  O   UNL     1       0.671  -0.465  -1.174  0.00  0.00    -0.489 OA
BRANCH  20  22
ATOM     21  C   UNL     1      -0.019   1.526   0.010  0.00  0.00    +0.048 C 
ATOM     22  C   UNL     1       0.002  -0.004   0.002  0.00  0.00    +0.226 C 
ENDBRANCH  20  22
ENDBRANCH  14  20
BRANCH  19  23
ATOM     23  O   UNL     1       1.936  -1.492  -3.394  0.00  0.00    -0.489 OA
BRANCH  23  24
ATOM     24  C   UNL     1       2.578  -2.095  -4.520  0.00  0.00    +0.226 C 
ATOM     25  C   UNL     1       3.096  -1.002  -5.457  0.00  0.00    +0.048 C 
ENDBRANCH  23  24
ENDBRANCH  19  23
ENDBRANCH  12  17
ENDBRANCH   8  12
ENDBRANCH   1   9
BRANCH   5  26
ATOM     26  C   UNL     1      -3.284 -11.846  -2.457  0.00  0.00    +0.022 C 
BRANCH  26  27
ATOM     27  C   UNL     1      -4.505 -12.559  -1.936  0.00  0.00    +0.211 A 
ATOM     28  N   UNL     1      -5.698 -12.505  -2.455  0.00  0.00    -0.193 NA
ATOM     29  C   UNL     1      -6.548 -13.262  -1.737  0.00  0.00    +0.202 A 
ATOM     30  N   UNL     1      -5.887 -13.806  -0.746  0.00  0.00    -0.056 NA
ATOM     31  O   UNL     1      -4.545 -13.361  -0.864  0.00  0.00    -0.340 OA
BRANCH  29  32
ATOM     32  C   UNL     1      -7.993 -13.447  -2.021  0.00  0.00    +0.022 A 
ATOM     33  C   UNL     1      -8.577 -12.813  -3.115  0.00  0.00    +0.012 A 
ATOM     34  C   UNL     1      -9.922 -12.990  -3.374  0.00  0.00    +0.005 A 
ATOM     35  C   UNL     1     -10.688 -13.794  -2.550  0.00  0.00    -0.042 A 
ATOM     36  C   UNL     1     -10.112 -14.425  -1.462  0.00  0.00    +0.005 A 
ATOM     37  C   UNL     1      -8.768 -14.261  -1.198  0.00  0.00    +0.012 A 
BRANCH  35  38
ATOM     38  C   UNL     1     -12.155 -13.982  -2.837  0.00  0.00    -0.013 C 
ATOM     39  C   UNL     1     -12.328 -14.602  -4.226  0.00  0.00    +0.015 C 
ATOM     40  C   UNL     1     -12.767 -14.909  -1.785  0.00  0.00    +0.015 C 
ATOM     41  C   UNL     1     -12.861 -12.625  -2.794  0.00  0.00    +0.015 C 
ENDBRANCH  35  38
ENDBRANCH  29  32
ENDBRANCH  26  27
ENDBRANCH   5  26
TORSDOF 11
