REMARK  Name = ZINC36145495
REMARK  15 active torsions:
REMARK  status: ('A' for Active; 'I' for Inactive)
REMARK    1  A    between atoms: C_1  and  C_2
REMARK    2  A    between atoms: C_5  and  C_8
REMARK    3  A    between atoms: C_8  and  N_9
REMARK    4  A    between atoms: N_9  and  C_10
REMARK    5  A    between atoms: N_9  and  C_34
REMARK    6  A    between atoms: C_10  and  C_11
REMARK    7  A    between atoms: C_14  and  C_16
REMARK    8  A    between atoms: C_16  and  C_17
REMARK    9  A    between atoms: C_16  and  C_25
REMARK   10  A    between atoms: C_16  and  O_33
REMARK   11  A    between atoms: C_20  and  O_23
REMARK   12  A    between atoms: O_23  and  C_24
REMARK   13  A    between atoms: C_28  and  O_31
REMARK   14  A    between atoms: O_31  and  C_32
REMARK   15  A    between atoms: C_34  and  C_35
REMARK                            x       y       z     vdW  Elec       q    Type
REMARK                         _______ _______ _______ _____ _____    ______ ____
ROOT
ATOM      1  C   UNL     1       3.665  -6.471   1.024  0.00  0.00    +0.089 A 
ATOM      2  C   UNL     1       4.880  -6.584   1.593  0.00  0.00    +0.043 A 
ATOM      3  C   UNL     1       5.801  -6.818   0.546  0.00  0.00    +0.048 A 
ATOM      4  C   UNL     1       5.095  -6.834  -0.599  0.00  0.00    +0.146 A 
ATOM      5  O   UNL     1       3.801  -6.629  -0.302  0.00  0.00    -0.463 OA
ENDROOT
BRANCH   1   6
ATOM      6  C   UNL     1       2.371  -6.218   1.754  0.00  0.00    -0.003 C 
BRANCH   6   7
ATOM      7  N   UNL     1       2.138  -4.770   1.848  0.00  0.00    +0.389 N 
ATOM      8  H   UNL     1       2.936  -4.328   2.279  0.00  0.00    -0.081 HD
BRANCH   7   9
ATOM      9  C   UNL     1       0.941  -4.519   2.661  0.00  0.00    -0.042 C 
BRANCH   9  14
ATOM     10  C   UNL     1       1.930  -6.165   8.111  0.00  0.00    +0.044 C 
ATOM     11  C   UNL     1       1.672  -5.736   6.690  0.00  0.00    -0.050 A 
ATOM     12  C   UNL     1       2.071  -4.483   6.263  0.00  0.00    +0.003 A 
ATOM     13  C   UNL     1       1.835  -4.090   4.959  0.00  0.00    +0.002 A 
ATOM     14  C   UNL     1       1.199  -4.949   4.082  0.00  0.00    -0.064 A 
ATOM     15  C   UNL     1       0.800  -6.202   4.509  0.00  0.00    +0.002 A 
ATOM     16  C   UNL     1       1.041  -6.597   5.811  0.00  0.00    +0.003 A 
ENDBRANCH   9  14
ENDBRANCH   7   9
BRANCH   7  17
ATOM     17  C   UNL     1       1.940  -4.217   0.501  0.00  0.00    -0.046 C 
BRANCH  17  18
ATOM     18  C   UNL     1       1.862  -2.692   0.583  0.00  0.00    +0.102 C 
ATOM     19  C   UNL     1       1.620  -2.104  -0.824  0.00  0.00    +0.032 C 
ATOM     20  C   UNL     1       2.517  -0.836  -0.810  0.00  0.00    +0.030 C 
ATOM     21  C   UNL     1       3.699  -1.321   0.066  0.00  0.00    +0.160 C 
ATOM     22  O   UNL     1       3.103  -2.166   1.066  0.00  0.00    -0.378 OA
ENDBRANCH  17  18
ENDBRANCH   7  17
ENDBRANCH   6   7
ENDBRANCH   1   6
BRANCH   4  23
ATOM     23  C   UNL     1       5.660  -7.050  -1.979  0.00  0.00    +0.174 C 
BRANCH  23  24
ATOM     24  C   UNL     1       4.622  -7.713  -2.848  0.00  0.00    -0.004 A 
ATOM     25  C   UNL     1       4.865  -8.967  -3.378  0.00  0.00    +0.011 A 
ATOM     26  C   UNL     1       3.916  -9.577  -4.175  0.00  0.00    +0.046 A 
ATOM     27  C   UNL     1       2.718  -8.931  -4.443  0.00  0.00    +0.120 A 
ATOM     28  C   UNL     1       2.476  -7.673  -3.909  0.00  0.00    +0.046 A 
ATOM     29  C   UNL     1       3.427  -7.070  -3.108  0.00  0.00    +0.011 A 
BRANCH  27  30
ATOM     30  O   UNL     1       1.782  -9.528  -5.227  0.00  0.00    -0.495 OA
ATOM     31  C   UNL     1       0.573  -8.804  -5.460  0.00  0.00    +0.277 C 
ENDBRANCH  27  30
ENDBRANCH  23  24
BRANCH  23  32
ATOM     32  C   UNL     1       6.043  -5.722  -2.579  0.00  0.00    -0.004 A 
ATOM     33  C   UNL     1       5.208  -4.630  -2.428  0.00  0.00    +0.011 A 
ATOM     34  C   UNL     1       5.557  -3.411  -2.977  0.00  0.00    +0.046 A 
ATOM     35  C   UNL     1       6.746  -3.284  -3.681  0.00  0.00    +0.120 A 
ATOM     36  C   UNL     1       7.582  -4.381  -3.831  0.00  0.00    +0.046 A 
ATOM     37  C   UNL     1       7.231  -5.596  -3.275  0.00  0.00    +0.011 A 
BRANCH  35  38
ATOM     38  O   UNL     1       7.091  -2.086  -4.223  0.00  0.00    -0.495 OA
ATOM     39  C   UNL     1       8.329  -2.028  -4.934  0.00  0.00    +0.277 C 
ENDBRANCH  35  38
ENDBRANCH  23  32
BRANCH  23  40
ATOM     40  O   UNL     1       6.816  -7.886  -1.895  0.00  0.00    -0.372 OA
ATOM     41  H   UNL     1       6.643  -8.759  -1.517  0.00  0.00    +0.212 HD
ENDBRANCH  23  40
ENDBRANCH   4  23
TORSDOF 12
