REMARK  Name = ZINC41333445
REMARK  14 active torsions:
REMARK  status: ('A' for Active; 'I' for Inactive)
REMARK    1  A    between atoms: C_1  and  C_2
REMARK    2  A    between atoms: C_2  and  N_3
REMARK    3  A    between atoms: N_3  and  C_4
REMARK    4  A    between atoms: N_3  and  C_6
REMARK    5  A    between atoms: C_4  and  C_5
REMARK    6  A    between atoms: C_6  and  C_8
REMARK    7  A    between atoms: C_6  and  C_12
REMARK    8  A    between atoms: C_8  and  C_9
REMARK    9  A    between atoms: C_9  and  C_10
REMARK   10  A    between atoms: C_9  and  C_11
REMARK   11  A    between atoms: C_12  and  N_13
REMARK   12  A    between atoms: C_14  and  C_16
REMARK   13  A    between atoms: N_18  and  C_19
REMARK   14  A    between atoms: C_22  and  C_25
REMARK                            x       y       z     vdW  Elec       q    Type
REMARK                         _______ _______ _______ _____ _____    ______ ____
ROOT
ATOM      1  N   UNL     1       2.268  -2.483   2.439  0.00  0.00    -0.309 N 
ATOM      2  C   UNL     1       2.459  -3.420   3.389  0.00  0.00    +0.299 C 
ATOM      3  O   UNL     1       2.919  -3.106   4.467  0.00  0.00    -0.265 OA
ATOM      4  H   UNL     1       1.833  -2.720   1.605  0.00  0.00    +0.149 HD
ENDROOT
BRANCH   2   5
ATOM      5  C   UNL     1       2.104  -4.845   3.116  0.00  0.00    +0.303 C 
ATOM      6  O   UNL     1       1.559  -5.145   2.074  0.00  0.00    -0.265 OA
ATOM      7  N   UNL     1       2.388  -5.797   4.026  0.00  0.00    -0.278 N 
ATOM      8  H   UNL     1       2.752  -5.549   4.890  0.00  0.00    +0.155 HD
BRANCH   7   9
ATOM      9  C   UNL     1       2.159  -7.138   3.727  0.00  0.00    +0.034 A 
ATOM     10  C   UNL     1       2.235  -7.578   2.409  0.00  0.00    +0.024 A 
ATOM     11  C   UNL     1       2.009  -8.902   2.109  0.00  0.00    +0.015 A 
ATOM     12  C   UNL     1       1.702  -9.805   3.131  0.00  0.00    +0.037 A 
ATOM     13  C   UNL     1       1.626  -9.360   4.453  0.00  0.00    +0.015 A 
ATOM     14  C   UNL     1       1.858  -8.036   4.747  0.00  0.00    +0.024 A 
BRANCH  12  15
ATOM     15  C   UNL     1       1.458 -11.226   2.813  0.00  0.00    +0.242 C 
ATOM     16  O   UNL     1       1.525 -11.612   1.662  0.00  0.00    -0.270 OA
ATOM     17  N   UNL     1       1.163 -12.096   3.799  0.00  0.00    -0.325 N 
ATOM     18  H   UNL     1       1.110 -11.788   4.718  0.00  0.00    +0.145 HD
ATOM     19  H   UNL     1       1.002 -13.029   3.591  0.00  0.00    +0.145 HD
ENDBRANCH  12  15
ENDBRANCH   7   9
ENDBRANCH   2   5
BRANCH   1  20
ATOM     20  C   UNL     1       2.717  -1.107   2.666  0.00  0.00    +0.089 C 
BRANCH  20  21
ATOM     21  C   UNL     1       2.268  -0.226   1.499  0.00  0.00    -0.051 C 
BRANCH  21  22
ATOM     22  N   UNL     1       0.817  -0.362   1.312  0.00  0.00    +0.382 N 
ATOM     23  H   UNL     1       0.586  -1.334   1.169  0.00  0.00    -0.081 HD
BRANCH  22  25
ATOM     24  C   UNL     1      -0.104  -1.019   3.485  0.00  0.00    -0.017 C 
ATOM     25  C   UNL     1       0.120   0.136   2.506  0.00  0.00    -0.082 C 
ENDBRANCH  22  25
BRANCH  22  26
ATOM     26  C   UNL     1       0.399   0.419   0.141  0.00  0.00    -0.082 C 
ATOM     27  C   UNL     1       1.043  -0.166  -1.118  0.00  0.00    -0.017 C 
ENDBRANCH  22  26
ENDBRANCH  21  22
BRANCH  21  28
ATOM     28  C   UNL     1       2.607   1.235   1.804  0.00  0.00    -0.011 C 
BRANCH  28  29
ATOM     29  C   UNL     1       4.127   1.399   1.884  0.00  0.00    -0.019 C 
ATOM     30  C   UNL     1       4.746   1.093   0.519  0.00  0.00    +0.007 C 
ATOM     31  C   UNL     1       4.464   2.836   2.287  0.00  0.00    +0.007 C 
ENDBRANCH  28  29
ENDBRANCH  21  28
ENDBRANCH  20  21
ENDBRANCH   1  20
TORSDOF 10
