REMARK  Name = ZINC57800733
REMARK  8 active torsions:
REMARK  status: ('A' for Active; 'I' for Inactive)
REMARK    1  A    between atoms: C_5  and  C_10
REMARK    2  A    between atoms: C_10  and  C_33
REMARK    3  A    between atoms: C_11  and  N_12
REMARK    4  A    between atoms: N_12  and  C_13
REMARK    5  A    between atoms: C_15  and  N_19
REMARK    6  A    between atoms: C_20  and  C_21
REMARK    7  A    between atoms: C_21  and  C_22
REMARK    8  A    between atoms: C_21  and  C_31
REMARK                            x       y       z     vdW  Elec       q    Type
REMARK                         _______ _______ _______ _____ _____    ______ ____
ROOT
ATOM      1  C   UNL     1       6.688  -2.768   0.238  0.00  0.00    +0.101 A 
ATOM      2  N   UNL     1       6.033  -3.913   0.331  0.00  0.00    -0.328 N 
ATOM      3  C   UNL     1       6.669  -5.064   0.518  0.00  0.00    +0.132 A 
ATOM      4  C   UNL     1       8.059  -5.096   0.623  0.00  0.00    +0.046 A 
ATOM      5  C   UNL     1       8.773  -3.913   0.530  0.00  0.00    +0.007 A 
ATOM      6  C   UNL     1       8.075  -2.732   0.330  0.00  0.00    +0.042 A 
ATOM      7  H   UNL     1       5.065  -3.913   0.261  0.00  0.00    +0.169 HD
ENDROOT
BRANCH   1   8
ATOM      8  N   UNL     1       5.981  -1.584   0.042  0.00  0.00    -0.306 N 
ATOM      9  H   UNL     1       5.022  -1.610  -0.100  0.00  0.00    +0.153 HD
BRANCH   8  11
ATOM     10  C   UNL     1       5.921   0.786  -0.028  0.00  0.00    +0.090 C 
ATOM     11  C   UNL     1       6.635  -0.393   0.049  0.00  0.00    +0.089 C 
BRANCH  10  16
ATOM     12  C   UNL     1      -0.015   1.389   0.202  0.00  0.00    +0.002 A 
ATOM     13  C   UNL     1       1.164   2.101   0.154  0.00  0.00    +0.031 A 
ATOM     14  C   UNL     1       2.382   1.421   0.108  0.00  0.00    +0.110 A 
ATOM     15  N   UNL     1       3.679   1.823   0.057  0.00  0.00    -0.209 NA
ATOM     16  C   UNL     1       4.448   0.762   0.030  0.00  0.00    +0.233 A 
ATOM     17  O   UNL     1       3.695  -0.354   0.062  0.00  0.00    -0.435 OA
ATOM     18  C   UNL     1       2.395   0.017   0.112  0.00  0.00    +0.156 A 
ATOM     19  C   UNL     1       1.201  -0.683   0.160  0.00  0.00    +0.048 A 
ATOM     20  C   UNL     1       0.003   0.003   0.206  0.00  0.00    +0.004 A 
ENDBRANCH  10  16
BRANCH  10  21
ATOM     21  C   UNL     1       6.604   2.019  -0.163  0.00  0.00    +0.265 C 
ATOM     22  O   UNL     1       5.976   3.056  -0.231  0.00  0.00    -0.295 OA
ENDBRANCH  10  21
ENDBRANCH   8  11
ENDBRANCH   1   8
BRANCH   3  23
ATOM     23  N   UNL     1       5.953  -6.230   0.609  0.00  0.00    -0.241 NA
ATOM     24  C   UNL     1       6.345  -7.280  -0.033  0.00  0.00    +0.106 C 
BRANCH  24  25
ATOM     25  C   UNL     1       5.558  -8.561   0.067  0.00  0.00    +0.179 C 
BRANCH  25  26
ATOM     26  C   UNL     1       5.081  -8.966  -1.305  0.00  0.00    +0.212 A 
ATOM     27  O   UNL     1       5.883  -9.236  -2.347  0.00  0.00    -0.439 OA
ATOM     28  C   UNL     1       5.107  -9.562  -3.403  0.00  0.00    +0.155 A 
ATOM     29  C   UNL     1       3.779  -9.478  -2.954  0.00  0.00    +0.110 A 
ATOM     30  N   UNL     1       3.836  -9.110  -1.646  0.00  0.00    -0.212 NA
ATOM     31  C   UNL     1       2.734  -9.763  -3.833  0.00  0.00    +0.031 A 
ATOM     32  C   UNL     1       3.013 -10.123  -5.133  0.00  0.00    +0.002 A 
ATOM     33  C   UNL     1       4.326 -10.204  -5.573  0.00  0.00    +0.004 A 
ATOM     34  C   UNL     1       5.369  -9.925  -4.715  0.00  0.00    +0.048 A 
ENDBRANCH  25  26
BRANCH  25  35
ATOM     35  C   UNL     1       6.435  -9.647   0.634  0.00  0.00    +0.241 C 
ATOM     36  O   UNL     1       6.127 -10.194   1.666  0.00  0.00    -0.300 OA
ENDBRANCH  25  35
ENDBRANCH  24  25
ENDBRANCH   3  23
TORSDOF 8
