REMARK  Name = ZINC36491162
REMARK  10 active torsions:
REMARK  status: ('A' for Active; 'I' for Inactive)
REMARK    1  A    between atoms: C_1  and  C_2
REMARK    2  A    between atoms: C_2  and  C_3
REMARK    3  A    between atoms: C_2  and  C_4
REMARK    4  A    between atoms: C_2  and  N_5
REMARK    5  A    between atoms: C_6  and  C_8
REMARK    6  A    between atoms: C_8  and  C_10
REMARK    7  A    between atoms: C_8  and  N_19
REMARK    8  A    between atoms: N_19  and  C_20
REMARK    9  A    between atoms: C_26  and  C_28
REMARK   10  A    between atoms: C_32  and  N_34
REMARK                            x       y       z     vdW  Elec       q    Type
REMARK                         _______ _______ _______ _____ _____    ______ ____
ROOT
ATOM      1  C   UNL     1       2.244  -0.910  -2.945  0.00  0.00    +0.193 C 
ENDROOT
BRANCH   1   2
ATOM      2  C   UNL     1       1.584  -2.183  -3.409  0.00  0.00    -0.015 A 
ATOM      3  C   UNL     1       0.898  -2.974  -2.505  0.00  0.00    +0.010 A 
ATOM      4  C   UNL     1       0.291  -4.142  -2.926  0.00  0.00    +0.050 A 
ATOM      5  C   UNL     1       0.369  -4.524  -4.256  0.00  0.00    +0.166 A 
ATOM      6  C   UNL     1       1.060  -3.728  -5.166  0.00  0.00    +0.167 A 
ATOM      7  C   UNL     1       1.661  -2.555  -4.738  0.00  0.00    +0.055 A 
ATOM      8  O   UNL     1       0.992  -4.313  -6.397  0.00  0.00    -0.453 OA
ATOM      9  C   UNL     1       0.604  -5.678  -6.153  0.00  0.00    +0.466 C 
ATOM     10  O   UNL     1      -0.132  -5.608  -4.917  0.00  0.00    -0.453 OA
ENDBRANCH   1   2
BRANCH   1  12
ATOM     11  N   UNL     1       1.203  -1.104  -0.710  0.00  0.00    -0.309 N 
ATOM     12  C   UNL     1       2.317  -0.902  -1.440  0.00  0.00    +0.239 C 
ATOM     13  O   UNL     1       3.380  -0.714  -0.886  0.00  0.00    -0.273 OA
ATOM     14  H   UNL     1       0.353  -1.254  -1.153  0.00  0.00    +0.149 HD
BRANCH  11  16
ATOM     15  C   UNL     1       1.789   0.263   1.232  0.00  0.00    +0.031 C 
ATOM     16  C   UNL     1       1.275  -1.096   0.754  0.00  0.00    +0.026 C 
ATOM     17  C   UNL     1       2.229  -2.196   1.223  0.00  0.00    +0.031 C 
ATOM     18  C   UNL     1      -0.119  -1.347   1.334  0.00  0.00    +0.031 C 
ENDBRANCH  11  16
ENDBRANCH   1  12
BRANCH   1  19
ATOM     19  N   UNL     1       3.597  -0.831  -3.501  0.00  0.00    -0.279 N 
ATOM     20  C   UNL     1       3.929   0.183  -4.325  0.00  0.00    +0.248 C 
ATOM     21  O   UNL     1       3.200   1.151  -4.421  0.00  0.00    -0.270 OA
BRANCH  19  22
ATOM     22  C   UNL     1       4.590  -1.853  -3.161  0.00  0.00    +0.077 C 
ATOM     23  C   UNL     1       3.875  -3.153  -2.786  0.00  0.00    +0.022 C 
ATOM     24  C   UNL     1       4.912  -4.221  -2.431  0.00  0.00    +0.002 C 
ATOM     25  C   UNL     1       5.752  -3.741  -1.246  0.00  0.00    +0.000 C 
ATOM     26  C   UNL     1       6.467  -2.441  -1.621  0.00  0.00    +0.002 C 
ATOM     27  C   UNL     1       5.430  -1.373  -1.976  0.00  0.00    +0.022 C 
ENDBRANCH  19  22
BRANCH  20  28
ATOM     28  C   UNL     1       5.178   0.117  -5.112  0.00  0.00    +0.039 A 
ATOM     29  C   UNL     1       6.364  -0.309  -4.510  0.00  0.00    +0.013 A 
ATOM     30  C   UNL     1       7.526  -0.369  -5.250  0.00  0.00    +0.003 A 
ATOM     31  C   UNL     1       7.520  -0.007  -6.586  0.00  0.00    +0.033 A 
ATOM     32  C   UNL     1       6.348   0.417  -7.188  0.00  0.00    +0.127 A 
ATOM     33  C   UNL     1       5.177   0.475  -6.461  0.00  0.00    +0.045 A 
BRANCH  32  34
ATOM     34  N   UNL     1       6.350   0.803  -8.617  0.00  0.00    +0.056 N 
ATOM     35  O   UNL     1       7.375   0.748  -9.256  0.00  0.00    -0.126 OA
ATOM     36  O   UNL     1       5.328   1.174  -9.144  0.00  0.00    -0.126 OA
ENDBRANCH  32  34
ENDBRANCH  20  28
ENDBRANCH   1  19
TORSDOF 7
