REMARK  Name = ZINC40981918
REMARK  14 active torsions:
REMARK  status: ('A' for Active; 'I' for Inactive)
REMARK    1  A    between atoms: C_1  and  C_2
REMARK    2  A    between atoms: C_2  and  C_3
REMARK    3  A    between atoms: C_3  and  S_4
REMARK    4  A    between atoms: S_4  and  C_5
REMARK    5  A    between atoms: C_10  and  C_22
REMARK    6  A    between atoms: C_12  and  C_16
REMARK    7  A    between atoms: C_13  and  C_15
REMARK    8  A    between atoms: C_16  and  O_18
REMARK    9  A    between atoms: O_18  and  C_19
REMARK   10  A    between atoms: C_19  and  C_20
REMARK   11  A    between atoms: C_19  and  C_21
REMARK   12  A    between atoms: C_25  and  O_28
REMARK   13  A    between atoms: O_28  and  C_29
REMARK   14  A    between atoms: C_29  and  C_30
REMARK                            x       y       z     vdW  Elec       q    Type
REMARK                         _______ _______ _______ _____ _____    ______ ____
ROOT
ATOM      1  C   UNL     1       1.998  -2.757  -2.555  0.00  0.00    +0.210 A 
ATOM      2  N   UNL     1       2.442  -1.865  -3.452  0.00  0.00    -0.187 NA
ATOM      3  C   UNL     1       2.831  -2.489  -4.531  0.00  0.00    +0.219 A 
ATOM      4  N   UNL     1       2.636  -3.817  -4.343  0.00  0.00    -0.220 N 
ATOM      5  N   UNL     1       2.106  -3.966  -3.062  0.00  0.00    -0.141 NA
ATOM      6  C   UNL     1       2.949  -4.830  -5.348  0.00  0.00    +0.179 C 
ATOM      7  C   UNL     1       3.771  -4.209  -6.446  0.00  0.00    +0.082 C 
ATOM      8  C   UNL     1       3.933  -2.884  -6.579  0.00  0.00    +0.020 C 
ATOM      9  N   UNL     1       3.365  -1.986  -5.710  0.00  0.00    -0.287 N 
ATOM     10  C   UNL     1       4.767  -2.363  -7.721  0.00  0.00    +0.061 C 
ATOM     11  H   UNL     1       3.336  -1.038  -5.912  0.00  0.00    +0.155 HD
ENDROOT
BRANCH   6  12
ATOM     12  C   UNL     1       1.670  -5.377  -5.926  0.00  0.00    -0.018 A 
ATOM     13  C   UNL     1       0.788  -4.532  -6.574  0.00  0.00    +0.009 A 
ATOM     14  C   UNL     1      -0.386  -5.031  -7.105  0.00  0.00    +0.046 A 
ATOM     15  C   UNL     1      -0.679  -6.382  -6.987  0.00  0.00    +0.121 A 
ATOM     16  C   UNL     1       0.207  -7.228  -6.337  0.00  0.00    +0.046 A 
ATOM     17  C   UNL     1       1.382  -6.725  -5.813  0.00  0.00    +0.009 A 
BRANCH  15  18
ATOM     18  O   UNL     1      -1.833  -6.875  -7.508  0.00  0.00    -0.483 OA
BRANCH  18  19
ATOM     19  C   UNL     1      -2.070  -8.275  -7.350  0.00  0.00    +0.324 C 
BRANCH  19  20
ATOM     20  C   UNL     1      -3.388  -8.637  -7.986  0.00  0.00    +0.253 C 
ATOM     21  O   UNL     1      -4.058  -7.780  -8.521  0.00  0.00    -0.272 OA
ATOM     22  N   UNL     1      -3.821  -9.913  -7.959  0.00  0.00    -0.294 N 
ATOM     23  C   UNL     1      -3.028 -10.969  -7.310  0.00  0.00    +0.136 C 
ATOM     24  C   UNL     1      -3.942 -11.738  -6.349  0.00  0.00    +0.179 C 
ATOM     25  O   UNL     1      -5.112 -12.164  -7.052  0.00  0.00    -0.377 OA
ATOM     26  C   UNL     1      -5.914 -11.094  -7.555  0.00  0.00    +0.179 C 
ATOM     27  C   UNL     1      -5.104 -10.290  -8.573  0.00  0.00    +0.136 C 
ENDBRANCH  19  20
ENDBRANCH  18  19
ENDBRANCH  15  18
ENDBRANCH   6  12
BRANCH   7  28
ATOM     28  C   UNL     1       4.402  -5.062  -7.379  0.00  0.00    +0.339 C 
ATOM     29  O   UNL     1       5.388  -5.697  -7.053  0.00  0.00    -0.245 OA
BRANCH  28  30
ATOM     30  O   UNL     1       3.912  -5.172  -8.631  0.00  0.00    -0.459 OA
BRANCH  30  31
ATOM     31  C   UNL     1       4.600  -6.053  -9.522  0.00  0.00    +0.171 C 
ATOM     32  C   UNL     1       4.003  -7.457  -9.414  0.00  0.00    +0.052 C 
ATOM     33  C   UNL     1       4.451  -5.544 -10.957  0.00  0.00    +0.052 C 
ENDBRANCH  30  31
ENDBRANCH  28  30
ENDBRANCH   7  28
BRANCH   1  34
ATOM     34  S   UNL     1       1.376  -2.373  -0.952  0.00  0.00    -0.084 S 
BRANCH  34  35
ATOM     35  C   UNL     1       1.486  -0.564  -0.860  0.00  0.00    +0.077 C 
BRANCH  35  37
ATOM     36  C   UNL     1       1.062   1.435   0.577  0.00  0.00    +0.004 C 
ATOM     37  C   UNL     1       0.970  -0.090   0.500  0.00  0.00    +0.008 C 
ENDBRANCH  35  37
ENDBRANCH  34  35
ENDBRANCH   1  34
TORSDOF 10
