REMARK  Name = ZINC00617873
REMARK  6 active torsions:
REMARK  status: ('A' for Active; 'I' for Inactive)
REMARK    1  A    between atoms: C_1  and  C_2
REMARK    2  A    between atoms: C_5  and  C_25
REMARK    3  A    between atoms: C_6  and  C_12
REMARK    4  A    between atoms: C_10  and  C_11
REMARK    5  A    between atoms: N_14  and  C_15
REMARK    6  A    between atoms: C_15  and  C_16
REMARK                            x       y       z     vdW  Elec       q    Type
REMARK                         _______ _______ _______ _____ _____    ______ ____
ROOT
ATOM      1  C   UNL     1       0.070  -5.598  -2.280  0.00  0.00    +0.280 C 
ATOM      2  O   UNL     1       0.065  -5.661  -3.494  0.00  0.00    -0.267 OA
ATOM      3  N   UNL     1       0.089  -6.728  -1.546  0.00  0.00    -0.305 N 
ATOM      4  H   UNL     1       0.093  -6.677  -0.577  0.00  0.00    +0.149 HD
ENDROOT
BRANCH   1  10
ATOM      5  C   UNL     1      -0.018   1.503   0.010  0.00  0.00    +0.044 C 
ATOM      6  C   UNL     1       0.002  -0.004   0.002  0.00  0.00    -0.047 A 
ATOM      7  C   UNL     1       0.006  -0.676  -1.188  0.00  0.00    +0.015 A 
ATOM      8  C   UNL     1       0.025  -2.073  -1.194  0.00  0.00    +0.024 A 
ATOM      9  C   UNL     1       0.035  -3.088  -2.247  0.00  0.00    +0.008 A 
ATOM     10  C   UNL     1       0.054  -4.288  -1.612  0.00  0.00    +0.193 A 
ATOM     11  O   UNL     1       0.058  -4.097  -0.276  0.00  0.00    -0.450 OA
ATOM     12  C   UNL     1       0.041  -2.784   0.021  0.00  0.00    +0.136 A 
ATOM     13  C   UNL     1       0.037  -2.078   1.218  0.00  0.00    +0.050 A 
ATOM     14  C   UNL     1       0.023  -0.700   1.203  0.00  0.00    -0.044 A 
ATOM     15  C   UNL     1       0.025   0.060   2.504  0.00  0.00    +0.044 C 
ATOM     16  C   UNL     1       0.024  -2.849  -3.735  0.00  0.00    +0.048 C 
ENDBRANCH   1  10
BRANCH   3  17
ATOM     17  C   UNL     1       0.105  -8.033  -2.211  0.00  0.00    +0.140 C 
BRANCH  17  18
ATOM     18  C   UNL     1       0.125  -9.126  -1.173  0.00  0.00    -0.027 A 
ATOM     19  C   UNL     1       1.333  -9.605  -0.700  0.00  0.00    +0.009 A 
ATOM     20  C   UNL     1       1.356 -10.606   0.253  0.00  0.00    +0.050 A 
ATOM     21  C   UNL     1       0.169 -11.133   0.735  0.00  0.00    +0.166 A 
ATOM     22  C   UNL     1      -1.047 -10.651   0.257  0.00  0.00    +0.167 A 
ATOM     23  C   UNL     1      -1.063  -9.643  -0.693  0.00  0.00    +0.054 A 
ATOM     24  O   UNL     1      -2.058 -11.323   0.881  0.00  0.00    -0.453 OA
ATOM     25  C   UNL     1      -1.448 -12.502   1.440  0.00  0.00    +0.466 C 
ATOM     26  O   UNL     1      -0.080 -12.108   1.657  0.00  0.00    -0.453 OA
ENDBRANCH  17  18
ENDBRANCH   3  17
TORSDOF 3
