REMARK  Name = ZINC62805524
REMARK  3 active torsions:
REMARK  status: ('A' for Active; 'I' for Inactive)
REMARK    1  A    between atoms: C_6  and  O_7
REMARK    2  A    between atoms: O_7  and  C_8
REMARK    3  A    between atoms: N_20  and  O_21
REMARK                            x       y       z     vdW  Elec       q    Type
REMARK                         _______ _______ _______ _____ _____    ______ ____
ROOT
ATOM      1  C   UNL     1      -0.074   1.369  -0.435  0.00  0.00    +0.046 A 
ATOM      2  C   UNL     1       1.087   2.073  -0.672  0.00  0.00    +0.017 A 
ATOM      3  C   UNL     1       2.312   1.406  -0.699  0.00  0.00    +0.045 A 
ATOM      4  C   UNL     1       2.371   0.023  -0.487  0.00  0.00    +0.134 A 
ATOM      5  C   UNL     1       1.191  -0.673  -0.250  0.00  0.00    +0.092 A 
ATOM      6  C   UNL     1      -0.021  -0.004  -0.224  0.00  0.00    +0.125 A 
ATOM      7  O   UNL     1       3.648  -0.428  -0.553  0.00  0.00    -0.485 OA
ATOM      8  C   UNL     1       4.549   0.647  -0.820  0.00  0.00    +0.288 C 
ATOM      9  C   UNL     1       3.691   1.890  -0.924  0.00  0.00    +0.128 C 
ATOM     10  N   UNL     1       4.077   3.103  -1.158  0.00  0.00    -0.088 NA
ENDROOT
BRANCH  10  11
ATOM     11  O   UNL     1       5.451   3.384  -1.350  0.00  0.00    -0.409 OA
ATOM     12  H   UNL     1       5.642   4.317  -1.518  0.00  0.00    +0.328 HD
ENDBRANCH  10  11
BRANCH   6  13
ATOM     13  O   UNL     1      -1.167  -0.694   0.009  0.00  0.00    -0.480 OA
BRANCH  13  14
ATOM     14  C   UNL     1      -2.370   0.068   0.136  0.00  0.00    +0.259 C 
ATOM     15  C   UNL     1      -3.397  -0.723   0.950  0.00  0.00    +0.054 C 
ATOM     16  C   UNL     1      -3.278  -2.209   0.666  0.00  0.00    +0.006 C 
ATOM     17  C   UNL     1      -3.665  -2.595  -0.750  0.00  0.00    +0.019 C 
ATOM     18  C   UNL     1      -2.668  -2.026  -1.762  0.00  0.00    +0.104 C 
ATOM     19  N   UNL     1      -3.085  -0.659  -2.115  0.00  0.00    -0.312 N 
ATOM     20  C   UNL     1      -2.946   0.340  -1.237  0.00  0.00    +0.254 C 
ATOM     21  O   UNL     1      -3.287   1.465  -1.538  0.00  0.00    -0.272 OA
ATOM     22  H   UNL     1      -3.460  -0.481  -2.991  0.00  0.00    +0.149 HD
ENDBRANCH  13  14
ENDBRANCH   6  13
TORSDOF 3
