REMARK  Name = ZINC08817029
REMARK  8 active torsions:
REMARK  status: ('A' for Active; 'I' for Inactive)
REMARK    1  A    between atoms: C_1  and  C_2
REMARK    2  A    between atoms: C_2  and  N_65
REMARK    3  A    between atoms: N_5  and  C_8
REMARK    4  A    between atoms: C_9  and  C_20
REMARK    5  A    between atoms: C_16  and  C_19
REMARK    6  A    between atoms: N_24  and  C_28
REMARK    7  A    between atoms: C_28  and  C_29
REMARK    8  A    between atoms: C_29  and  C_30
REMARK                            x       y       z     vdW  Elec       q    Type
REMARK                         _______ _______ _______ _____ _____    ______ ____
ROOT
ATOM      1  C   UNL     1       4.835   1.550   0.459  0.00  0.00    +0.136 A 
ATOM      2  C   UNL     1       4.777   0.183   0.101  0.00  0.00    +0.081 A 
ATOM      3  C   UNL     1       3.511  -0.385  -0.180  0.00  0.00    +0.267 A 
ATOM      4  O   UNL     1       3.414  -1.559  -0.491  0.00  0.00    -0.267 OA
ATOM      5  N   UNL     1       2.413   0.397  -0.097  0.00  0.00    -0.267 N 
ATOM      6  C   UNL     1       1.189  -0.142  -0.366  0.00  0.00    +0.096 A 
ATOM      7  C   UNL     1       0.070   0.612  -0.293  0.00  0.00    +0.019 A 
ATOM      8  C   UNL     1       0.156   1.965   0.064  0.00  0.00    +0.008 A 
ATOM      9  C   UNL     1       1.374   2.513   0.334  0.00  0.00    -0.007 A 
ATOM     10  C   UNL     1       2.528   1.713   0.253  0.00  0.00    +0.145 A 
ATOM     11  N   UNL     1       3.716   2.257   0.521  0.00  0.00    -0.213 NA
ATOM     12  C   UNL     1       1.484   3.966   0.718  0.00  0.00    +0.047 C 
ENDROOT
BRANCH   2  13
ATOM     13  C   UNL     1       5.954  -0.598   0.028  0.00  0.00    +0.037 C 
ATOM     14  C   UNL     1       6.986  -0.202  -0.773  0.00  0.00    +0.077 C 
ATOM     15  C   UNL     1       8.268  -0.794  -0.957  0.00  0.00    +0.258 C 
ATOM     16  O   UNL     1       8.584  -1.805  -0.354  0.00  0.00    -0.269 OA
ATOM     17  N   UNL     1       9.105  -0.218  -1.802  0.00  0.00    -0.255 N 
ATOM     18  C   UNL     1       8.758   0.908  -2.465  0.00  0.00    +0.121 C 
ATOM     19  S   UNL     1       9.674   1.818  -3.589  0.00  0.00    -0.027 S 
ATOM     20  S   UNL     1       7.100   1.205  -1.869  0.00  0.00    -0.061 S 
BRANCH  17  21
ATOM     21  C   UNL     1      10.430  -0.804  -2.019  0.00  0.00    +0.119 C 
BRANCH  21  22
ATOM     22  C   UNL     1      11.421  -0.210  -1.017  0.00  0.00    +0.054 C 
BRANCH  22  23
ATOM     23  C   UNL     1      12.784  -0.812  -1.240  0.00  0.00    -0.046 A 
ATOM     24  C   UNL     1      13.151  -1.960  -0.563  0.00  0.00    +0.004 A 
ATOM     25  C   UNL     1      14.400  -2.516  -0.771  0.00  0.00    +0.000 A 
ATOM     26  C   UNL     1      15.284  -1.918  -1.649  0.00  0.00    +0.000 A 
ATOM     27  C   UNL     1      14.919  -0.767  -2.322  0.00  0.00    +0.000 A 
ATOM     28  C   UNL     1      13.669  -0.214  -2.117  0.00  0.00    +0.004 A 
ENDBRANCH  22  23
ENDBRANCH  21  22
ENDBRANCH  17  21
ENDBRANCH   2  13
BRANCH   1  31
ATOM     29  C   UNL     1       7.274   4.225   1.128  0.00  0.00    -0.060 C 
ATOM     30  C   UNL     1       5.898   3.597   0.894  0.00  0.00    +0.088 C 
ATOM     31  N   UNL     1       6.046   2.143   0.742  0.00  0.00    -0.318 N 
ATOM     32  C   UNL     1       6.655   1.550   1.941  0.00  0.00    +0.088 C 
ATOM     33  C   UNL     1       8.031   2.178   2.175  0.00  0.00    -0.060 C 
ATOM     34  N   UNL     1       7.865   3.637   2.348  0.00  0.00    +0.382 N 
ATOM     35  H   UNL     1       7.236   3.809   3.141  0.00  0.00    -0.082 HD
BRANCH  34  37
ATOM     36  C   UNL     1       9.890   3.465   3.720  0.00  0.00    -0.017 C 
ATOM     37  C   UNL     1       9.175   4.264   2.629  0.00  0.00    -0.082 C 
ENDBRANCH  34  37
ENDBRANCH   1  31
TORSDOF 6
