REMARK  Name = ZINC10570643
REMARK  9 active torsions:
REMARK  status: ('A' for Active; 'I' for Inactive)
REMARK    1  A    between atoms: C_1  and  C_2
REMARK    2  A    between atoms: C_2  and  O_3
REMARK    3  A    between atoms: O_3  and  C_4
REMARK    4  A    between atoms: C_7  and  C_13
REMARK    5  A    between atoms: C_9  and  N_10
REMARK    6  A    between atoms: C_13  and  O_15
REMARK    7  A    between atoms: O_15  and  C_16
REMARK    8  A    between atoms: C_16  and  C_17
REMARK    9  A    between atoms: N_19  and  C_20
REMARK                            x       y       z     vdW  Elec       q    Type
REMARK                         _______ _______ _______ _____ _____    ______ ____
ROOT
ATOM      1  C   UNL     1       2.372   1.127   0.003  0.00  0.00    +0.328 C 
ENDROOT
BRANCH   1   2
ATOM      2  C   UNL     1       3.554   2.061  -0.015  0.00  0.00    +0.255 C 
ATOM      3  O   UNL     1       3.380   3.261  -0.011  0.00  0.00    -0.272 OA
ATOM      4  N   UNL     1       4.806   1.562  -0.035  0.00  0.00    -0.282 N 
ATOM      5  H   UNL     1       4.948   0.605   0.027  0.00  0.00    +0.155 HD
BRANCH   4   6
ATOM      6  C   UNL     1       5.903   2.427  -0.147  0.00  0.00    +0.051 A 
ATOM      7  C   UNL     1       5.864   3.679   0.451  0.00  0.00    +0.073 A 
ATOM      8  C   UNL     1       6.949   4.534   0.342  0.00  0.00    +0.164 A 
ATOM      9  C   UNL     1       8.077   4.136  -0.367  0.00  0.00    +0.163 A 
ATOM     10  C   UNL     1       8.113   2.885  -0.965  0.00  0.00    +0.066 A 
ATOM     11  C   UNL     1       7.032   2.030  -0.852  0.00  0.00    +0.043 A 
ATOM     12 BR   UNL     1       7.088   0.323  -1.663  0.00  0.00    -0.048 Br
ATOM     13  O   UNL     1       9.155   4.961  -0.482  0.00  0.00    -0.485 OA
ATOM     14  C   UNL     1       8.938   6.346  -0.191  0.00  0.00    +0.270 C 
ATOM     15  C   UNL     1       8.139   6.443   1.115  0.00  0.00    +0.270 C 
ATOM     16  O   UNL     1       6.894   5.761   0.930  0.00  0.00    -0.485 OA
ENDBRANCH   4   6
ENDBRANCH   1   2
BRANCH   1  17
ATOM     17  O   UNL     1       1.144   1.902   0.023  0.00  0.00    -0.452 OA
BRANCH  17  18
ATOM     18  C   UNL     1      -0.014   1.212   0.040  0.00  0.00    +0.340 C 
ATOM     19  O   UNL     1       0.002  -0.003   0.039  0.00  0.00    -0.245 OA
BRANCH  18  23
ATOM     20  C   UNL     1      -3.719   3.286   0.084  0.00  0.00    +0.151 A 
ATOM     21  C   UNL     1      -2.525   3.999   0.072  0.00  0.00    +0.049 A 
ATOM     22  C   UNL     1      -1.322   3.331   0.063  0.00  0.00    +0.019 A 
ATOM     23  C   UNL     1      -1.301   1.933   0.055  0.00  0.00    +0.061 A 
ATOM     24  C   UNL     1      -2.503   1.220   0.068  0.00  0.00    +0.051 A 
ATOM     25  C   UNL     1      -3.702   1.896   0.082  0.00  0.00    +0.168 A 
BRANCH  25  26
ATOM     26  N   UNL     1      -4.976   1.142   0.094  0.00  0.00    +0.060 N 
ATOM     27  O   UNL     1      -4.963  -0.075   0.092  0.00  0.00    -0.126 OA
ATOM     28  O   UNL     1      -6.037   1.740   0.107  0.00  0.00    -0.126 OA
ENDBRANCH  25  26
BRANCH  20  29
ATOM     29  O   UNL     1      -4.902   3.949   0.097  0.00  0.00    -0.490 OA
BRANCH  29  31
ATOM     30  C   UNL     1      -6.268   5.943   0.115  0.00  0.00    +0.048 C 
ATOM     31  C   UNL     1      -4.847   5.377   0.098  0.00  0.00    +0.226 C 
ENDBRANCH  29  31
ENDBRANCH  20  29
ENDBRANCH  18  23
ENDBRANCH  17  18
ENDBRANCH   1  17
TORSDOF 8
