REMARK  Name = ZINC04015091
REMARK  8 active torsions:
REMARK  status: ('A' for Active; 'I' for Inactive)
REMARK    1  A    between atoms: C_1  and  C_2
REMARK    2  A    between atoms: C_14  and  O_32
REMARK    3  A    between atoms: C_18  and  C_31
REMARK    4  A    between atoms: C_23  and  C_30
REMARK    5  A    between atoms: C_24  and  C_25
REMARK    6  A    between atoms: C_24  and  O_29
REMARK    7  A    between atoms: C_25  and  C_27
REMARK    8  A    between atoms: C_27  and  O_28
REMARK                            x       y       z     vdW  Elec       q    Type
REMARK                         _______ _______ _______ _____ _____    ______ ____
ROOT
ATOM      1  C   UNL     1      -3.450   7.019   0.384  0.00  0.00    +0.011 C 
ATOM      2  C   UNL     1      -3.865   6.530   1.774  0.00  0.00    +0.026 C 
ATOM      3  C   UNL     1      -2.692   5.760   2.440  0.00  0.00    +0.011 C 
ATOM      4  C   UNL     1      -3.050   4.293   2.173  0.00  0.00    +0.002 C 
ATOM      5  C   UNL     1      -2.388   3.260   3.047  0.00  0.00    -0.004 C 
ATOM      6  C   UNL     1      -0.867   3.335   2.917  0.00  0.00    +0.004 C 
ATOM      7  C   UNL     1      -0.454   2.833   1.532  0.00  0.00    +0.004 C 
ATOM      8  C   UNL     1      -0.824   1.351   1.456  0.00  0.00    -0.002 C 
ATOM      9  C   UNL     1      -0.223   0.714   0.212  0.00  0.00    +0.035 C 
ATOM     10  C   UNL     1      -0.905   1.189  -1.064  0.00  0.00    +0.115 C 
ATOM     11  C   UNL     1      -2.412   0.964  -0.987  0.00  0.00    +0.032 C 
ATOM     12  C   UNL     1      -2.998   1.665   0.238  0.00  0.00    +0.010 C 
ATOM     13  C   UNL     1      -2.337   1.180   1.522  0.00  0.00    -0.026 C 
ATOM     14  C   UNL     1      -2.928   1.870   2.746  0.00  0.00    -0.001 C 
ATOM     15  C   UNL     1      -4.451   1.821   2.726  0.00  0.00    +0.005 C 
ATOM     16  C   UNL     1      -5.117   2.959   1.951  0.00  0.00    +0.010 C 
ATOM     17  C   UNL     1      -4.576   4.287   2.430  0.00  0.00    +0.007 C 
ATOM     18  C   UNL     1      -5.038   5.525   1.655  0.00  0.00    +0.134 C 
ATOM     19  C   UNL     1      -4.908   4.495   3.907  0.00  0.00    +0.015 C 
ATOM     20  C   UNL     1      -2.616  -0.334   1.672  0.00  0.00    +0.012 C 
ENDROOT
BRANCH  18  21
ATOM     21  C   UNL     1      -6.281   6.095   2.286  0.00  0.00    +0.190 C 
ATOM     22  O   UNL     1      -6.192   6.977   3.106  0.00  0.00    -0.292 OA
BRANCH  21  23
ATOM     23  C   UNL     1      -7.636   5.563   1.896  0.00  0.00    +0.233 C 
BRANCH  23  24
ATOM     24  O   UNL     1      -8.649   6.258   2.626  0.00  0.00    -0.387 OA
ATOM     25  H   UNL     1      -9.549   5.967   2.425  0.00  0.00    +0.210 HD
ENDBRANCH  23  24
ENDBRANCH  21  23
ENDBRANCH  18  21
BRANCH  18  26
ATOM     26  O   UNL     1      -5.278   5.194   0.288  0.00  0.00    -0.380 OA
ATOM     27  H   UNL     1      -5.573   5.940  -0.252  0.00  0.00    +0.211 HD
ENDBRANCH  18  26
BRANCH  10  28
ATOM     28  O   UNL     1      -0.625   2.568  -1.301  0.00  0.00    -0.392 OA
ATOM     29  H   UNL     1      -1.036   2.921  -2.102  0.00  0.00    +0.210 HD
ENDBRANCH  10  28
TORSDOF 5
