REMARK  Name = ZINC39665667
REMARK  12 active torsions:
REMARK  status: ('A' for Active; 'I' for Inactive)
REMARK    1  A    between atoms: C_1  and  C_2
REMARK    2  A    between atoms: C_2  and  C_4
REMARK    3  A    between atoms: C_2  and  O_31
REMARK    4  A    between atoms: C_4  and  N_5
REMARK    5  A    between atoms: C_6  and  C_8
REMARK    6  A    between atoms: C_19  and  C_21
REMARK    7  A    between atoms: C_21  and  C_23
REMARK    8  A    between atoms: C_21  and  O_24
REMARK    9  A    between atoms: O_24  and  C_25
REMARK   10  A    between atoms: O_31  and  C_32
REMARK   11  A    between atoms: C_35  and  O_38
REMARK   12  A    between atoms: O_38  and  C_39
REMARK                            x       y       z     vdW  Elec       q    Type
REMARK                         _______ _______ _______ _____ _____    ______ ____
ROOT
ATOM      1  C   UNL     1       0.349  -4.146  -2.098  0.00  0.00    +0.100 C 
ATOM      2  C   UNL     1       0.918  -4.629  -0.746  0.00  0.00    +0.121 C 
ATOM      3  N   UNL     1       1.376  -6.014  -1.005  0.00  0.00    -0.297 N 
ATOM      4  C   UNL     1       1.977  -5.957  -2.359  0.00  0.00    +0.115 C 
ATOM      5  C   UNL     1       1.046  -5.020  -3.155  0.00  0.00    -0.004 C 
ATOM      6  C   UNL     1       0.016  -5.834  -3.931  0.00  0.00    -0.010 C 
ATOM      7  C   UNL     1       0.728  -6.651  -5.013  0.00  0.00    -0.082 C 
ATOM      8  N   UNL     1       1.449  -5.747  -5.917  0.00  0.00    +0.379 N 
ATOM      9  C   UNL     1       2.500  -5.035  -5.180  0.00  0.00    -0.082 C 
ATOM     10  C   UNL     1       1.862  -4.149  -4.105  0.00  0.00    -0.010 C 
ATOM     11  C   UNL     1       1.271  -7.085  -0.193  0.00  0.00    +0.256 C 
ATOM     12  O   UNL     1       0.672  -6.992   0.858  0.00  0.00    -0.272 OA
ATOM     13  H   UNL     1       1.866  -6.282  -6.663  0.00  0.00    -0.086 HD
ATOM     14  H   UNL     1       0.801  -5.078  -6.307  0.00  0.00    -0.086 HD
ENDROOT
BRANCH   1  16
ATOM     15  N   UNL     1      -0.148  -1.916  -3.046  0.00  0.00    -0.312 N 
ATOM     16  C   UNL     1       0.679  -2.693  -2.318  0.00  0.00    +0.218 C 
ATOM     17  O   UNL     1       1.689  -2.221  -1.840  0.00  0.00    -0.275 OA
ATOM     18  H   UNL     1      -0.956  -2.293  -3.428  0.00  0.00    +0.149 HD
BRANCH  15  19
ATOM     19  C   UNL     1       0.173  -0.503  -3.260  0.00  0.00    +0.148 C 
BRANCH  19  21
ATOM     20  C   UNL     1      -0.524   1.586  -4.439  0.00  0.00    +0.053 C 
ATOM     21  C   UNL     1      -0.920   0.145  -4.112  0.00  0.00    +0.187 C 
BRANCH  21  22
ATOM     22  O   UNL     1      -2.152   0.143  -3.388  0.00  0.00    -0.488 OA
BRANCH  22  23
ATOM     23  C   UNL     1      -3.297   0.205  -4.119  0.00  0.00    +0.121 A 
ATOM     24  C   UNL     1      -4.526   0.271  -3.478  0.00  0.00    +0.049 A 
ATOM     25  C   UNL     1      -5.689   0.335  -4.221  0.00  0.00    +0.049 A 
ATOM     26  C   UNL     1      -5.629   0.333  -5.606  0.00  0.00    +0.120 A 
ATOM     27  C   UNL     1      -4.400   0.268  -6.247  0.00  0.00    +0.049 A 
ATOM     28  C   UNL     1      -3.237   0.209  -5.504  0.00  0.00    +0.049 A 
BRANCH  26  29
ATOM     29  O   UNL     1      -6.774   0.395  -6.337  0.00  0.00    -0.495 OA
ATOM     30  C   UNL     1      -6.637   0.389  -7.760  0.00  0.00    +0.277 C 
ENDBRANCH  26  29
ENDBRANCH  22  23
ENDBRANCH  21  22
ENDBRANCH  19  21
ENDBRANCH  15  19
ENDBRANCH   1  16
BRANCH  11  31
ATOM     31  C   UNL     1       1.896  -8.397  -0.591  0.00  0.00    +0.256 C 
ATOM     32  C   UNL     1       3.420  -8.256  -0.593  0.00  0.00    +0.062 C 
BRANCH  31  33
ATOM     33  O   UNL     1       1.513  -9.410   0.342  0.00  0.00    -0.480 OA
BRANCH  33  34
ATOM     34  C   UNL     1       1.525 -10.694  -0.103  0.00  0.00    +0.122 A 
ATOM     35  C   UNL     1       1.066 -11.716   0.715  0.00  0.00    +0.045 A 
ATOM     36  C   UNL     1       1.079 -13.021   0.261  0.00  0.00    +0.004 A 
ATOM     37  C   UNL     1       1.548 -13.308  -1.008  0.00  0.00    +0.000 A 
ATOM     38  C   UNL     1       2.006 -12.291  -1.825  0.00  0.00    +0.004 A 
ATOM     39  C   UNL     1       1.990 -10.984  -1.377  0.00  0.00    +0.045 A 
ENDBRANCH  33  34
ENDBRANCH  31  33
ENDBRANCH  11  31
TORSDOF 9
