REMARK  Name = ZINC15710306
REMARK  11 active torsions:
REMARK  status: ('A' for Active; 'I' for Inactive)
REMARK    1  A    between atoms: C_1  and  C_2
REMARK    2  A    between atoms: C_2  and  C_4
REMARK    3  A    between atoms: C_2  and  O_16
REMARK    4  A    between atoms: N_6  and  C_7
REMARK    5  A    between atoms: C_12  and  C_13
REMARK    6  A    between atoms: C_13  and  C_15
REMARK    7  A    between atoms: O_16  and  C_17
REMARK    8  A    between atoms: C_17  and  C_19
REMARK    9  A    between atoms: C_24  and  C_25
REMARK   10  A    between atoms: C_25  and  C_27
REMARK   11  A    between atoms: C_31  and  N_33
REMARK                            x       y       z     vdW  Elec       q    Type
REMARK                         _______ _______ _______ _____ _____    ______ ____
ROOT
ATOM      1  C   UNL     1      -0.050   0.984   0.326  0.00  0.00    +0.341 C 
ATOM      2  O   UNL     1      -0.165  -0.225   0.346  0.00  0.00    -0.245 OA
ENDROOT
BRANCH   1   3
ATOM      3  C   UNL     1      -1.249   1.839   0.199  0.00  0.00    +0.070 A 
ATOM      4  C   UNL     1      -1.138   3.222   0.307  0.00  0.00    +0.016 A 
ATOM      5  C   UNL     1      -2.262   4.018   0.183  0.00  0.00    +0.001 A 
ATOM      6  C   UNL     1      -3.503   3.447  -0.039  0.00  0.00    +0.001 A 
ATOM      7  C   UNL     1      -3.634   2.076  -0.143  0.00  0.00    +0.012 A 
ATOM      8  C   UNL     1      -2.512   1.258  -0.026  0.00  0.00    +0.036 A 
BRANCH   8   9
ATOM      9  C   UNL     1      -2.647  -0.210  -0.137  0.00  0.00    +0.194 C 
ATOM     10  O   UNL     1      -3.093  -0.852   0.794  0.00  0.00    -0.287 OA
BRANCH   9  11
ATOM     11  C   UNL     1      -2.239  -0.897  -1.379  0.00  0.00    +0.025 A 
ATOM     12  C   UNL     1      -1.653  -0.174  -2.422  0.00  0.00    +0.013 A 
ATOM     13  C   UNL     1      -1.270  -0.822  -3.576  0.00  0.00    +0.023 A 
ATOM     14  C   UNL     1      -1.475  -2.186  -3.709  0.00  0.00    +0.071 A 
ATOM     15  C   UNL     1      -2.061  -2.908  -2.682  0.00  0.00    +0.145 A 
ATOM     16  C   UNL     1      -2.443  -2.272  -1.520  0.00  0.00    +0.046 A 
ATOM     17 CL   UNL     1      -0.996  -2.994  -5.169  0.00  0.00    -0.081 Cl
BRANCH  15  18
ATOM     18  N   UNL     1      -2.275  -4.365  -2.832  0.00  0.00    +0.058 N 
ATOM     19  O   UNL     1      -2.789  -5.001  -1.929  0.00  0.00    -0.126 OA
ATOM     20  O   UNL     1      -1.938  -4.927  -3.858  0.00  0.00    -0.126 OA
ENDBRANCH  15  18
ENDBRANCH   9  11
ENDBRANCH   8   9
ENDBRANCH   1   3
BRANCH   1  21
ATOM     21  O   UNL     1       1.171   1.546   0.413  0.00  0.00    -0.449 OA
BRANCH  21  23
ATOM     22  C   UNL     1       2.583   0.365   2.007  0.00  0.00    +0.062 C 
ATOM     23  C   UNL     1       2.305   0.645   0.529  0.00  0.00    +0.259 C 
BRANCH  23  24
ATOM     24  C   UNL     1       3.518   1.281  -0.099  0.00  0.00    +0.258 C 
ATOM     25  O   UNL     1       3.460   2.418  -0.515  0.00  0.00    -0.271 OA
ATOM     26  N   UNL     1       4.668   0.585  -0.200  0.00  0.00    -0.282 N 
ATOM     27  H   UNL     1       4.694  -0.349   0.061  0.00  0.00    +0.155 HD
BRANCH  26  28
ATOM     28  C   UNL     1       5.818   1.206  -0.677  0.00  0.00    +0.044 A 
ATOM     29  C   UNL     1       6.059   2.542  -0.391  0.00  0.00    +0.024 A 
ATOM     30  C   UNL     1       7.203   3.155  -0.861  0.00  0.00    +0.002 A 
ATOM     31  C   UNL     1       8.114   2.448  -1.630  0.00  0.00    +0.001 A 
ATOM     32  C   UNL     1       7.891   1.123  -1.930  0.00  0.00    +0.013 A 
ATOM     33  C   UNL     1       6.739   0.484  -1.457  0.00  0.00    +0.038 A 
BRANCH  33  34
ATOM     34  C   UNL     1       6.493  -0.928  -1.773  0.00  0.00    +0.162 C 
ATOM     35  O   UNL     1       5.539  -1.500  -1.289  0.00  0.00    -0.292 OA
ATOM     36  C   UNL     1       7.426  -1.666  -2.697  0.00  0.00    +0.091 C 
ENDBRANCH  33  34
ENDBRANCH  26  28
ENDBRANCH  23  24
ENDBRANCH  21  23
ENDBRANCH   1  21
TORSDOF 9
