REMARK  Name = ZINC12579662
REMARK  4 active torsions:
REMARK  status: ('A' for Active; 'I' for Inactive)
REMARK    1  A    between atoms: C_4  and  O_38
REMARK    2  A    between atoms: C_5  and  C_7
REMARK    3  A    between atoms: N_32  and  C_35
REMARK    4  A    between atoms: C_35  and  C_36
REMARK                            x       y       z     vdW  Elec       q    Type
REMARK                         _______ _______ _______ _____ _____    ______ ____
ROOT
ATOM      1  C   UNL     1      -2.854   4.455  -0.971  0.00  0.00    +0.066 C 
ATOM      2  C   UNL     1      -2.007   5.430  -0.182  0.00  0.00    +0.032 A 
ATOM      3  C   UNL     1      -0.907   5.213   0.574  0.00  0.00    +0.087 A 
ATOM      4  N   UNL     1      -0.355   6.326   1.163  0.00  0.00    -0.311 N 
ATOM      5  H   UNL     1       0.437   6.236   1.716  0.00  0.00    +0.170 HD
ATOM      6  C   UNL     1      -0.907   7.542   0.976  0.00  0.00    +0.289 A 
ATOM      7  O   UNL     1      -0.550   8.619   1.419  0.00  0.00    -0.260 OA
ATOM      8  S   UNL     1      -2.255   7.182  -0.057  0.00  0.00    -0.030 S 
ATOM      9  S   UNL     1      -0.222   3.568   0.786  0.00  0.00    -0.103 S 
ATOM     10  C   UNL     1      -1.668   2.591   0.301  0.00  0.00    +0.061 C 
ATOM     11  C   UNL     1      -2.107   3.195  -1.052  0.00  0.00    +0.019 C 
ATOM     12  C   UNL     1      -2.208   2.024  -2.017  0.00  0.00    +0.007 C 
ATOM     13  C   UNL     1      -2.719   0.934  -0.965  0.00  0.00    +0.010 C 
ATOM     14  C   UNL     1      -1.477   1.108   0.045  0.00  0.00    +0.015 C 
ATOM     15  C   UNL     1      -0.442   0.642  -0.970  0.00  0.00    +0.092 C 
ATOM     16  C   UNL     1      -0.782   1.627  -2.158  0.00  0.00    +0.091 C 
ATOM     17  C   UNL     1       0.293   1.346  -3.076  0.00  0.00    +0.226 C 
ATOM     18  O   UNL     1       0.251   1.227  -4.277  0.00  0.00    -0.275 OA
ATOM     19  N   UNL     1       1.373   1.297  -2.212  0.00  0.00    -0.231 N 
ATOM     20  C   UNL     1       1.006   1.048  -0.912  0.00  0.00    +0.226 C 
ATOM     21  O   UNL     1       1.708   1.136   0.073  0.00  0.00    -0.275 OA
ENDROOT
BRANCH   1  26
ATOM     22  C   UNL     1      -5.455   3.779   1.681  0.00  0.00    +0.001 A 
ATOM     23  C   UNL     1      -6.627   3.867   0.952  0.00  0.00    +0.004 A 
ATOM     24  C   UNL     1      -6.582   4.147  -0.400  0.00  0.00    +0.046 A 
ATOM     25  C   UNL     1      -5.358   4.338  -1.026  0.00  0.00    +0.121 A 
ATOM     26  C   UNL     1      -4.184   4.248  -0.293  0.00  0.00    +0.002 A 
ATOM     27  C   UNL     1      -4.235   3.963   1.058  0.00  0.00    +0.008 A 
BRANCH  25  28
ATOM     28  O   UNL     1      -5.311   4.614  -2.356  0.00  0.00    -0.506 OA
ATOM     29  H   UNL     1      -5.252   3.830  -2.919  0.00  0.00    +0.292 HD
ENDBRANCH  25  28
ENDBRANCH   1  26
BRANCH  19  30
ATOM     30  C   UNL     1       2.757   1.524  -2.634  0.00  0.00    +0.241 C 
BRANCH  30  31
ATOM     31  C   UNL     1       3.393   0.207  -2.999  0.00  0.00    +0.373 C 
ATOM     32  O   UNL     1       2.755  -0.816  -2.916  0.00  0.00    -0.245 OA
ATOM     33  O   UNL     1       4.668   0.171  -3.417  0.00  0.00    -0.245 OA
ENDBRANCH  30  31
ENDBRANCH  19  30
TORSDOF 4
