REMARK  Name = ZINC09404782
REMARK  12 active torsions:
REMARK  status: ('A' for Active; 'I' for Inactive)
REMARK    1  A    between atoms: C_1  and  C_2
REMARK    2  A    between atoms: C_2  and  C_3
REMARK    3  A    between atoms: C_2  and  C_4
REMARK    4  A    between atoms: C_4  and  C_5
REMARK    5  A    between atoms: C_5  and  C_7
REMARK    6  A    between atoms: C_5  and  N_10
REMARK    7  A    between atoms: N_29  and  C_32
REMARK    8  A    between atoms: C_32  and  C_34
REMARK    9  A    between atoms: C_32  and  C_38
REMARK   10  A    between atoms: C_34  and  C_35
REMARK   11  A    between atoms: C_35  and  C_36
REMARK   12  A    between atoms: C_35  and  C_37
REMARK                            x       y       z     vdW  Elec       q    Type
REMARK                         _______ _______ _______ _____ _____    ______ ____
ROOT
ATOM      1  N   UNL     1      -0.289  -2.855  -1.105  0.00  0.00    -0.228 N 
ATOM      2  C   UNL     1      -0.931  -2.682  -2.306  0.00  0.00    +0.227 C 
ATOM      3  O   UNL     1      -1.949  -2.056  -2.510  0.00  0.00    -0.275 OA
ATOM      4  C   UNL     1      -0.114  -3.423  -3.308  0.00  0.00    +0.096 C 
ATOM      5  C   UNL     1      -0.041  -3.021  -4.780  0.00  0.00    +0.037 C 
ATOM      6  C   UNL     1       0.731  -4.329  -5.259  0.00  0.00    -0.026 C 
ATOM      7  C   UNL     1       1.903  -4.471  -4.646  0.00  0.00    -0.026 C 
ATOM      8  C   UNL     1       2.353  -3.464  -3.606  0.00  0.00    +0.037 C 
ATOM      9  C   UNL     1       1.265  -3.239  -2.649  0.00  0.00    +0.096 C 
ATOM     10  C   UNL     1       0.979  -3.385  -1.238  0.00  0.00    +0.227 C 
ATOM     11  O   UNL     1       1.685  -3.862  -0.376  0.00  0.00    -0.275 OA
ATOM     12  C   UNL     1       2.353  -2.056  -4.236  0.00  0.00    +0.096 C 
ATOM     13  C   UNL     1       1.103  -2.119  -5.127  0.00  0.00    +0.096 C 
ATOM     14  C   UNL     1       1.294  -1.067  -6.125  0.00  0.00    +0.227 C 
ATOM     15  O   UNL     1       0.458  -0.385  -6.677  0.00  0.00    -0.275 OA
ATOM     16  N   UNL     1       2.661  -1.044  -6.282  0.00  0.00    -0.228 N 
ATOM     17  C   UNL     1       3.351  -1.773  -5.332  0.00  0.00    +0.227 C 
ATOM     18  O   UNL     1       4.511  -2.123  -5.368  0.00  0.00    -0.275 OA
ENDROOT
BRANCH   1  19
ATOM     19  C   UNL     1      -0.887  -2.506   0.186  0.00  0.00    +0.197 C 
BRANCH  19  20
ATOM     20  C   UNL     1      -2.147  -3.307   0.389  0.00  0.00    +0.376 C 
ATOM     21  O   UNL     1      -2.612  -3.956  -0.533  0.00  0.00    -0.244 OA
ATOM     22  O   UNL     1      -2.702  -3.306   1.474  0.00  0.00    -0.244 OA
ENDBRANCH  19  20
BRANCH  19  23
ATOM     23  C   UNL     1      -1.222  -1.014   0.206  0.00  0.00    +0.037 C 
BRANCH  23  25
ATOM     24  C   UNL     1      -0.270   1.289   0.021  0.00  0.00    +0.007 C 
ATOM     25  C   UNL     1       0.070  -0.199   0.126  0.00  0.00    -0.015 C 
ATOM     26  C   UNL     1       0.906  -0.444   1.384  0.00  0.00    +0.007 C 
ENDBRANCH  23  25
ENDBRANCH  19  23
ENDBRANCH   1  19
BRANCH  16  27
ATOM     27  C   UNL     1       3.332  -0.302  -7.352  0.00  0.00    +0.197 C 
BRANCH  27  28
ATOM     28  C   UNL     1       4.011  -1.270  -8.285  0.00  0.00    +0.376 C 
ATOM     29  O   UNL     1       3.942  -2.470  -8.076  0.00  0.00    -0.244 OA
ATOM     30  O   UNL     1       4.631  -0.855  -9.250  0.00  0.00    -0.244 OA
ENDBRANCH  27  28
BRANCH  27  31
ATOM     31  C   UNL     1       4.375   0.638  -6.744  0.00  0.00    +0.037 C 
BRANCH  31  32
ATOM     32  C   UNL     1       3.672   1.695  -5.890  0.00  0.00    -0.015 C 
ATOM     33  C   UNL     1       4.720   2.565  -5.192  0.00  0.00    +0.007 C 
ATOM     34  C   UNL     1       2.795   2.573  -6.785  0.00  0.00    +0.007 C 
ENDBRANCH  31  32
ENDBRANCH  27  31
ENDBRANCH  16  27
TORSDOF 8
