REMARK  Name = ZINC31653168
REMARK  13 active torsions:
REMARK  status: ('A' for Active; 'I' for Inactive)
REMARK    1  A    between atoms: C_1  and  C_2
REMARK    2  A    between atoms: C_5  and  C_30
REMARK    3  A    between atoms: C_6  and  O_8
REMARK    4  A    between atoms: O_8  and  C_9
REMARK    5  A    between atoms: C_9  and  C_10
REMARK    6  A    between atoms: C_13  and  S_16
REMARK    7  A    between atoms: N_14  and  N_15
REMARK    8  A    between atoms: S_16  and  C_17
REMARK    9  A    between atoms: C_17  and  C_18
REMARK   10  A    between atoms: C_20  and  C_23
REMARK   11  A    between atoms: C_23  and  C_24
REMARK   12  A    between atoms: C_30  and  C_31
REMARK   13  A    between atoms: C_30  and  C_32
REMARK                            x       y       z     vdW  Elec       q    Type
REMARK                         _______ _______ _______ _____ _____    ______ ____
ROOT
ATOM      1  C   UNL     1      -0.282   1.804  -2.290  0.00  0.00    +0.189 A 
ATOM      2  N   UNL     1      -1.301   2.230  -2.982  0.00  0.00    -0.128 NA
ATOM      3  N   UNL     1      -2.363   2.213  -2.259  0.00  0.00    -0.121 NA
ATOM      4  C   UNL     1      -2.077   1.768  -1.057  0.00  0.00    +0.209 A 
ATOM      5  N   UNL     1      -0.741   1.490  -1.041  0.00  0.00    -0.225 N 
ENDROOT
BRANCH   5   6
ATOM      6  N   UNL     1      -0.012   1.005   0.008  0.00  0.00    -0.295 N 
ATOM      7  H   UNL     1      -0.504   0.791   0.968  0.00  0.00    +0.163 HD
ATOM      8  H   UNL     1       1.068   0.827  -0.108  0.00  0.00    +0.163 HD
ENDBRANCH   5   6
BRANCH   1   9
ATOM      9  C   UNL     1       1.139   1.680  -2.777  0.00  0.00    +0.306 C 
BRANCH   9  10
ATOM     10  O   UNL     1       1.337   0.381  -3.340  0.00  0.00    -0.484 OA
BRANCH  10  16
ATOM     11  C   UNL     1       5.922   1.815  -4.203  0.00  0.00    +0.044 C 
ATOM     12  C   UNL     1       4.833   0.776  -4.268  0.00  0.00    -0.047 A 
ATOM     13  C   UNL     1       5.092  -0.463  -4.826  0.00  0.00    +0.004 A 
ATOM     14  C   UNL     1       4.095  -1.418  -4.887  0.00  0.00    +0.008 A 
ATOM     15  C   UNL     1       2.838  -1.140  -4.385  0.00  0.00    -0.003 A 
ATOM     16  C   UNL     1       2.574   0.103  -3.830  0.00  0.00    +0.125 A 
ATOM     17  C   UNL     1       3.576   1.061  -3.770  0.00  0.00    +0.049 A 
BRANCH  15  18
ATOM     18  C   UNL     1       1.754  -2.184  -4.446  0.00  0.00    +0.016 C 
ATOM     19  C   UNL     1       1.497  -2.569  -5.905  0.00  0.00    +0.012 C 
ATOM     20  C   UNL     1       2.193  -3.423  -3.662  0.00  0.00    +0.012 C 
ENDBRANCH  15  18
ENDBRANCH  10  16
ENDBRANCH   9  10
ENDBRANCH   1   9
BRANCH   4  21
ATOM     21  S   UNL     1      -3.205   1.567   0.281  0.00  0.00    -0.075 S 
BRANCH  21  22
ATOM     22  C   UNL     1      -4.733   2.133  -0.507  0.00  0.00    +0.176 C 
BRANCH  22  23
ATOM     23  C   UNL     1      -5.869   2.046   0.479  0.00  0.00    +0.238 A 
ATOM     24  N   UNL     1      -6.254   2.984   1.311  0.00  0.00    -0.195 NA
ATOM     25  C   UNL     1      -7.296   2.464   1.985  0.00  0.00    +0.176 A 
ATOM     26  N   UNL     1      -7.483   1.257   1.542  0.00  0.00    -0.061 NA
ATOM     27  O   UNL     1      -6.674   0.997   0.676  0.00  0.00    -0.337 OA
BRANCH  25  28
ATOM     28  C   UNL     1      -8.095   3.154   3.061  0.00  0.00    +0.114 C 
BRANCH  28  29
ATOM     29  C   UNL     1      -7.468   2.883   4.404  0.00  0.00    -0.040 A 
ATOM     30  C   UNL     1      -7.865   1.784   5.143  0.00  0.00    +0.004 A 
ATOM     31  C   UNL     1      -7.287   1.533   6.373  0.00  0.00    +0.000 A 
ATOM     32  C   UNL     1      -6.319   2.387   6.869  0.00  0.00    +0.000 A 
ATOM     33  C   UNL     1      -5.926   3.488   6.132  0.00  0.00    +0.000 A 
ATOM     34  C   UNL     1      -6.500   3.736   4.900  0.00  0.00    +0.004 A 
ENDBRANCH  28  29
ENDBRANCH  25  28
ENDBRANCH  22  23
ENDBRANCH  21  22
ENDBRANCH   4  21
TORSDOF 10
