REMARK  Name = ZINC35919311
REMARK  8 active torsions:
REMARK  status: ('A' for Active; 'I' for Inactive)
REMARK    1  A    between atoms: C_1  and  N_2
REMARK    2  A    between atoms: C_12  and  O_14
REMARK    3  A    between atoms: O_14  and  C_15
REMARK    4  A    between atoms: C_18  and  O_21
REMARK    5  A    between atoms: O_21  and  C_22
REMARK    6  A    between atoms: N_24  and  C_27
REMARK    7  A    between atoms: C_27  and  C_28
REMARK    8  A    between atoms: C_31  and  C_34
REMARK                            x       y       z     vdW  Elec       q    Type
REMARK                         _______ _______ _______ _____ _____    ______ ____
ROOT
ATOM      1  C   UNL     1      -1.869   0.008  -0.159  0.00  0.00    -0.096 C 
ATOM      2  N   UNL     1      -1.499  -1.414  -0.147  0.00  0.00    +0.380 N 
ATOM      3  C   UNL     1      -0.703  -1.721  -1.341  0.00  0.00    -0.060 C 
ATOM      4  C   UNL     1      -0.414  -3.225  -1.389  0.00  0.00    +0.089 C 
ATOM      5  N   UNL     1       0.218  -3.619  -0.120  0.00  0.00    -0.303 N 
ATOM      6  C   UNL     1      -0.431  -3.208   1.135  0.00  0.00    +0.089 C 
ATOM      7  C   UNL     1      -0.719  -1.704   1.063  0.00  0.00    -0.060 C 
ATOM      8  C   UNL     1       1.391  -4.354  -0.107  0.00  0.00    +0.221 A 
ATOM      9  N   UNL     1       1.866  -4.791   1.049  0.00  0.00    -0.219 NA
ATOM     10  C   UNL     1       2.987  -5.501   1.102  0.00  0.00    +0.056 A 
ATOM     11  C   UNL     1       3.657  -5.785  -0.066  0.00  0.00    +0.050 A 
ATOM     12  C   UNL     1       3.133  -5.309  -1.270  0.00  0.00    +0.230 A 
ATOM     13  N   UNL     1       2.006  -4.609  -1.252  0.00  0.00    -0.179 NA
ATOM     14  C   UNL     1       4.925  -6.593  -0.084  0.00  0.00    +0.127 C 
ATOM     15  N   UNL     1       5.518  -6.644   1.258  0.00  0.00    -0.293 NA
ATOM     16  C   UNL     1       4.519  -7.090   2.241  0.00  0.00    +0.091 C 
ATOM     17  C   UNL     1       3.494  -5.972   2.439  0.00  0.00    +0.071 C 
ATOM     18  H   UNL     1      -2.336  -1.978  -0.149  0.00  0.00    -0.082 HD
ENDROOT
BRANCH  12  19
ATOM     19  O   UNL     1       3.765  -5.564  -2.442  0.00  0.00    -0.438 OA
BRANCH  19  20
ATOM     20  C   UNL     1       3.248  -5.021  -3.576  0.00  0.00    +0.131 A 
ATOM     21  C   UNL     1       2.455  -3.885  -3.503  0.00  0.00    +0.050 A 
ATOM     22  C   UNL     1       1.930  -3.334  -4.655  0.00  0.00    +0.049 A 
ATOM     23  C   UNL     1       2.196  -3.915  -5.886  0.00  0.00    +0.120 A 
ATOM     24  C   UNL     1       2.989  -5.051  -5.959  0.00  0.00    +0.049 A 
ATOM     25  C   UNL     1       3.519  -5.599  -4.808  0.00  0.00    +0.050 A 
BRANCH  23  26
ATOM     26  O   UNL     1       1.679  -3.373  -7.021  0.00  0.00    -0.495 OA
ATOM     27  C   UNL     1       1.994  -4.024  -8.253  0.00  0.00    +0.277 C 
ENDBRANCH  23  26
ENDBRANCH  19  20
ENDBRANCH  12  19
BRANCH  15  28
ATOM     28  C   UNL     1       6.702  -7.513   1.278  0.00  0.00    +0.120 C 
BRANCH  28  29
ATOM     29  C   UNL     1       7.787  -6.902   0.429  0.00  0.00    -0.033 A 
ATOM     30  C   UNL     1       7.866  -7.207  -0.917  0.00  0.00    +0.005 A 
ATOM     31  C   UNL     1       8.862  -6.647  -1.695  0.00  0.00    +0.012 A 
ATOM     32  C   UNL     1       9.779  -5.782  -1.127  0.00  0.00    +0.055 A 
ATOM     33  C   UNL     1       9.700  -5.478   0.219  0.00  0.00    +0.012 A 
ATOM     34  C   UNL     1       8.701  -6.034   0.996  0.00  0.00    +0.005 A 
BRANCH  32  35
ATOM     35  C   UNL     1      10.865  -5.173  -1.975  0.00  0.00    +0.417 C 
ATOM     36  F   UNL     1      10.412  -3.965  -2.516  0.00  0.00    -0.166 F 
ATOM     37  F   UNL     1      11.996  -4.936  -1.186  0.00  0.00    -0.166 F 
ATOM     38  F   UNL     1      11.196  -6.052  -3.012  0.00  0.00    -0.166 F 
ENDBRANCH  32  35
ENDBRANCH  28  29
ENDBRANCH  15  28
TORSDOF 6
