REMARK  Name = ZINC64502743
REMARK  9 active torsions:
REMARK  status: ('A' for Active; 'I' for Inactive)
REMARK    1  A    between atoms: C_1  and  O_2
REMARK    2  A    between atoms: O_2  and  C_3
REMARK    3  A    between atoms: C_3  and  C_4
REMARK    4  A    between atoms: C_8  and  C_11
REMARK    5  A    between atoms: N_13  and  C_14
REMARK    6  A    between atoms: C_17  and  C_20
REMARK    7  A    between atoms: N_22  and  C_23
REMARK    8  A    between atoms: C_23  and  C_24
REMARK    9  A    between atoms: C_24  and  C_25
REMARK                            x       y       z     vdW  Elec       q    Type
REMARK                         _______ _______ _______ _____ _____    ______ ____
ROOT
ATOM      1  C   UNL     1      -1.922  -4.567  -4.122  0.00  0.00    +0.034 A 
ATOM      2  C   UNL     1      -1.385  -3.652  -5.021  0.00  0.00    +0.024 A 
ATOM      3  C   UNL     1      -1.895  -3.557  -6.296  0.00  0.00    +0.015 A 
ATOM      4  C   UNL     1      -2.954  -4.381  -6.687  0.00  0.00    +0.037 A 
ATOM      5  C   UNL     1      -3.491  -5.300  -5.781  0.00  0.00    +0.015 A 
ATOM      6  C   UNL     1      -2.973  -5.393  -4.509  0.00  0.00    +0.024 A 
ENDROOT
BRANCH   1   9
ATOM      7  C   UNL     1      -0.965  -3.554  -2.199  0.00  0.00    +0.254 C 
ATOM      8  O   UNL     1      -0.944  -2.491  -2.782  0.00  0.00    -0.272 OA
ATOM      9  N   UNL     1      -1.403  -4.661  -2.831  0.00  0.00    -0.283 N 
ATOM     10  H   UNL     1      -1.357  -5.523  -2.388  0.00  0.00    +0.155 HD
BRANCH   7  14
ATOM     11  C   UNL     1      -0.781  -2.103   1.469  0.00  0.00    +0.213 C 
ATOM     12  N   UNL     1      -1.762  -3.166   1.154  0.00  0.00    -0.174 NA
ATOM     13  N   UNL     1      -1.637  -3.850   0.157  0.00  0.00    -0.167 NA
ATOM     14  C   UNL     1      -0.500  -3.638  -0.767  0.00  0.00    +0.272 C 
ATOM     15  S   UNL     1       0.098  -1.999  -0.154  0.00  0.00    -0.093 S 
BRANCH  11  16
ATOM     16  C   UNL     1      -1.478  -0.784   1.811  0.00  0.00    +0.199 C 
BRANCH  16  18
ATOM     17  C   UNL     1      -3.069   0.798   0.969  0.00  0.00    +0.194 C 
ATOM     18  O   UNL     1      -2.365  -0.425   0.749  0.00  0.00    -0.380 OA
ENDBRANCH  16  18
ENDBRANCH  11  16
ENDBRANCH   7  14
ENDBRANCH   1   9
BRANCH   4  19
ATOM     19  C   UNL     1      -3.504  -4.282  -8.053  0.00  0.00    +0.244 C 
ATOM     20  O   UNL     1      -3.035  -3.482  -8.840  0.00  0.00    -0.270 OA
ATOM     21  N   UNL     1      -4.525  -5.077  -8.428  0.00  0.00    -0.311 N 
ATOM     22  H   UNL     1      -4.899  -5.715  -7.800  0.00  0.00    +0.149 HD
BRANCH  21  23
ATOM     23  C   UNL     1      -5.071  -4.978  -9.784  0.00  0.00    +0.109 C 
BRANCH  23  24
ATOM     24  C   UNL     1      -6.213  -5.983  -9.948  0.00  0.00    +0.052 C 
BRANCH  24  25
ATOM     25  C   UNL     1      -6.774  -5.881 -11.343  0.00  0.00    -0.040 C 
ATOM     26  C   UNL     1      -6.441  -6.641 -12.411  0.00  0.00    +0.000 A 
ATOM     27  C   UNL     1      -5.492  -7.747 -12.587  0.00  0.00    +0.030 A 
ATOM     28  C   UNL     1      -5.375  -8.323 -13.806  0.00  0.00    +0.042 A 
ATOM     29  C   UNL     1      -6.136  -7.891 -14.902  0.00  0.00    +0.022 A 
ATOM     30  C   UNL     1      -7.028  -6.882 -14.817  0.00  0.00    +0.027 A 
ATOM     31  C   UNL     1      -7.233  -6.205 -13.583  0.00  0.00    +0.043 A 
ATOM     32  N   UNL     1      -8.025  -5.214 -13.253  0.00  0.00    -0.380 N 
ATOM     33  C   UNL     1      -7.830  -4.914 -11.830  0.00  0.00    +0.144 C 
ATOM     34 CL   UNL     1      -4.253  -9.631 -14.018  0.00  0.00    -0.084 Cl
ATOM     35  H   UNL     1      -8.640  -4.758 -13.848  0.00  0.00    +0.160 HD
ENDBRANCH  24  25
ENDBRANCH  23  24
ENDBRANCH  21  23
ENDBRANCH   4  19
TORSDOF 8
