REMARK  Name = ZINC11790486
REMARK  6 active torsions:
REMARK  status: ('A' for Active; 'I' for Inactive)
REMARK    1  A    between atoms: C_4  and  C_7
REMARK    2  A    between atoms: C_7  and  C_13
REMARK    3  A    between atoms: C_13  and  N_72
REMARK    4  A    between atoms: C_14  and  N_72
REMARK    5  A    between atoms: N_17  and  C_20
REMARK    6  A    between atoms: C_23  and  C_26
REMARK                            x       y       z     vdW  Elec       q    Type
REMARK                         _______ _______ _______ _____ _____    ______ ____
ROOT
ATOM      1  C   UNL     1      -7.369   5.082  -0.788  0.00  0.00    -0.069 C 
ATOM      2  C   UNL     1      -6.412   5.440   0.353  0.00  0.00    +0.003 C 
ATOM      3  C   UNL     1      -5.169   4.552   0.267  0.00  0.00    +0.103 C 
ATOM      4  N   UNL     1      -5.566   3.141   0.362  0.00  0.00    -0.330 N 
ATOM      5  C   UNL     1      -6.448   2.762  -0.750  0.00  0.00    +0.103 C 
ATOM      6  C   UNL     1      -7.729   3.597  -0.694  0.00  0.00    +0.003 C 
ENDROOT
BRANCH   4   7
ATOM      7  C   UNL     1      -4.451   2.312   0.418  0.00  0.00    +0.030 A 
ATOM      8  C   UNL     1      -4.616   0.933   0.512  0.00  0.00    +0.024 A 
ATOM      9  C   UNL     1      -3.514   0.110   0.568  0.00  0.00    +0.015 A 
ATOM     10  C   UNL     1      -2.230   0.660   0.532  0.00  0.00    +0.037 A 
ATOM     11  C   UNL     1      -2.068   2.046   0.444  0.00  0.00    +0.015 A 
ATOM     12  C   UNL     1      -3.173   2.863   0.382  0.00  0.00    +0.024 A 
BRANCH  10  13
ATOM     13  C   UNL     1      -1.047  -0.220   0.592  0.00  0.00    +0.247 C 
ATOM     14  O   UNL     1      -1.082  -1.322   0.080  0.00  0.00    -0.270 OA
ATOM     15  N   UNL     1       0.075   0.200   1.210  0.00  0.00    -0.293 N 
ATOM     16  C   UNL     1       0.170   1.560   1.764  0.00  0.00    +0.136 C 
ATOM     17  C   UNL     1       0.662   1.452   3.217  0.00  0.00    +0.179 C 
ATOM     18  O   UNL     1       1.857   0.668   3.250  0.00  0.00    -0.377 OA
ATOM     19  C   UNL     1       1.684  -0.682   2.813  0.00  0.00    +0.179 C 
ATOM     20  C   UNL     1       1.242  -0.685   1.345  0.00  0.00    +0.136 C 
ENDBRANCH  10  13
ENDBRANCH   4   7
BRANCH   1  21
ATOM     21  N   UNL     1      -8.593   5.897  -0.668  0.00  0.00    +0.382 N 
ATOM     22  H   UNL     1      -9.242   5.439  -0.018  0.00  0.00    -0.085 HD
ATOM     23  H   UNL     1      -8.347   6.827  -0.308  0.00  0.00    -0.085 HD
BRANCH  21  24
ATOM     24  C   UNL     1      -9.243   6.041  -1.984  0.00  0.00    -0.071 C 
BRANCH  24  25
ATOM     25  C   UNL     1     -10.575   6.772  -1.807  0.00  0.00    -0.019 C 
ATOM     26  C   UNL     1     -11.300   6.843  -3.153  0.00  0.00    +0.010 C 
ATOM     27  C   UNL     1     -10.433   7.600  -4.160  0.00  0.00    +0.001 C 
ATOM     28  C   UNL     1     -10.173   9.018  -3.646  0.00  0.00    +0.000 C 
ATOM     29  C   UNL     1      -9.448   8.947  -2.300  0.00  0.00    +0.001 C 
ATOM     30  C   UNL     1     -10.316   8.189  -1.293  0.00  0.00    +0.010 C 
BRANCH  25  34
ATOM     31  C   UNL     1     -12.997   4.657   1.006  0.00  0.00    +0.000 A 
ATOM     32  C   UNL     1     -12.526   4.013  -0.123  0.00  0.00    +0.000 A 
ATOM     33  C   UNL     1     -11.742   4.697  -1.033  0.00  0.00    +0.004 A 
ATOM     34  C   UNL     1     -11.430   6.026  -0.815  0.00  0.00    -0.043 A 
ATOM     35  C   UNL     1     -11.896   6.669   0.316  0.00  0.00    +0.004 A 
ATOM     36  C   UNL     1     -12.684   5.986   1.224  0.00  0.00    +0.000 A 
ENDBRANCH  25  34
ENDBRANCH  24  25
ENDBRANCH  21  24
ENDBRANCH   1  21
TORSDOF 6
