REMARK  Name = ZINC39693404
REMARK  10 active torsions:
REMARK  status: ('A' for Active; 'I' for Inactive)
REMARK    1  A    between atoms: C_1  and  C_2
REMARK    2  A    between atoms: C_2  and  C_3
REMARK    3  A    between atoms: C_2  and  C_4
REMARK    4  A    between atoms: C_2  and  O_5
REMARK    5  A    between atoms: O_5  and  C_6
REMARK    6  A    between atoms: N_8  and  C_9
REMARK    7  A    between atoms: C_9  and  C_10
REMARK    8  A    between atoms: C_10  and  N_11
REMARK    9  A    between atoms: C_12  and  C_14
REMARK   10  A    between atoms: C_25  and  C_27
REMARK                            x       y       z     vdW  Elec       q    Type
REMARK                         _______ _______ _______ _____ _____    ______ ____
ROOT
ATOM      1  C   UNL     1       8.089  -0.212  -5.351  0.00  0.00    +0.100 C 
ATOM      2  C   UNL     1       8.171   1.308  -5.616  0.00  0.00    +0.121 C 
ATOM      3  N   UNL     1       9.264   1.456  -6.607  0.00  0.00    -0.296 N 
ATOM      4  C   UNL     1       9.086   0.307  -7.527  0.00  0.00    +0.115 C 
ATOM      5  C   UNL     1       8.689  -0.865  -6.608  0.00  0.00    -0.004 C 
ATOM      6  C   UNL     1       7.649  -1.745  -7.295  0.00  0.00    -0.010 C 
ATOM      7  C   UNL     1       8.286  -2.429  -8.508  0.00  0.00    -0.082 C 
ATOM      8  N   UNL     1       9.429  -3.239  -8.070  0.00  0.00    +0.379 N 
ATOM      9  C   UNL     1      10.466  -2.374  -7.495  0.00  0.00    -0.082 C 
ATOM     10  C   UNL     1       9.921  -1.687  -6.239  0.00  0.00    -0.010 C 
ATOM     11  C   UNL     1      10.206   2.419  -6.660  0.00  0.00    +0.249 C 
ATOM     12  O   UNL     1      10.281   3.245  -5.771  0.00  0.00    -0.270 OA
ATOM     13  H   UNL     1       9.123  -3.903  -7.375  0.00  0.00    -0.086 HD
ATOM     14  H   UNL     1       9.809  -3.737  -8.861  0.00  0.00    -0.086 HD
ENDROOT
BRANCH  11  15
ATOM     15  C   UNL     1      11.146   2.469  -7.796  0.00  0.00    +0.072 A 
ATOM     16  C   UNL     1      10.720   2.107  -9.076  0.00  0.00    +0.019 A 
ATOM     17  C   UNL     1      11.602   2.156 -10.133  0.00  0.00    +0.039 A 
ATOM     18  C   UNL     1      12.913   2.563  -9.930  0.00  0.00    +0.126 A 
ATOM     19  C   UNL     1      13.344   2.924  -8.664  0.00  0.00    +0.077 A 
ATOM     20  C   UNL     1      12.467   2.885  -7.596  0.00  0.00    +0.138 A 
ATOM     21  F   UNL     1      12.886   3.243  -6.362  0.00  0.00    -0.205 F 
ATOM     22  F   UNL     1      13.772   2.608 -10.971  0.00  0.00    -0.205 F 
ENDBRANCH  11  15
BRANCH   1  24
ATOM     23  N   UNL     1       6.366  -1.790  -4.538  0.00  0.00    -0.314 N 
ATOM     24  C   UNL     1       6.654  -0.637  -5.174  0.00  0.00    +0.218 C 
ATOM     25  O   UNL     1       5.758   0.059  -5.603  0.00  0.00    -0.275 OA
ATOM     26  H   UNL     1       7.083  -2.346  -4.195  0.00  0.00    +0.149 HD
BRANCH  23  27
ATOM     27  C   UNL     1       4.971  -2.203  -4.366  0.00  0.00    +0.123 C 
BRANCH  27  28
ATOM     28  C   UNL     1       4.923  -3.537  -3.619  0.00  0.00    +0.126 C 
BRANCH  28  31
ATOM     29  C   UNL     1       3.240  -5.103  -2.811  0.00  0.00    +0.401 C 
ATOM     30  O   UNL     1       4.137  -5.800  -2.381  0.00  0.00    -0.226 OA
ATOM     31  N   UNL     1       3.528  -3.950  -3.446  0.00  0.00    -0.280 N 
ATOM     32  H   UNL     1       2.811  -3.393  -3.789  0.00  0.00    +0.152 HD
BRANCH  29  33
ATOM     33  O   UNL     1       1.958  -5.482  -2.652  0.00  0.00    -0.445 OA
BRANCH  33  35
ATOM     34  C   UNL     1       2.308  -6.633  -0.556  0.00  0.00    +0.055 C 
ATOM     35  C   UNL     1       1.726  -6.716  -1.969  0.00  0.00    +0.107 C 
ATOM     36  C   UNL     1       2.401  -7.856  -2.733  0.00  0.00    +0.055 C 
ATOM     37  C   UNL     1       0.221  -6.978  -1.886  0.00  0.00    +0.055 C 
ENDBRANCH  33  35
ENDBRANCH  29  33
ENDBRANCH  28  31
ENDBRANCH  27  28
ENDBRANCH  23  27
ENDBRANCH   1  24
TORSDOF 7
