REMARK  Name = ZINC41007002
REMARK  10 active torsions:
REMARK  status: ('A' for Active; 'I' for Inactive)
REMARK    1  A    between atoms: C_1  and  C_2
REMARK    2  A    between atoms: C_2  and  O_41
REMARK    3  A    between atoms: C_6  and  C_32
REMARK    4  A    between atoms: C_8  and  C_21
REMARK    5  A    between atoms: C_10  and  C_12
REMARK    6  A    between atoms: N_14  and  C_15
REMARK    7  A    between atoms: C_24  and  O_30
REMARK    8  A    between atoms: C_25  and  N_27
REMARK    9  A    between atoms: O_30  and  C_31
REMARK   10  A    between atoms: N_34  and  C_35
REMARK                            x       y       z     vdW  Elec       q    Type
REMARK                         _______ _______ _______ _____ _____    ______ ____
ROOT
ATOM      1  C   UNL     1      -0.193   0.237   0.912  0.00  0.00    +0.042 C 
ATOM      2  C   UNL     1       0.393  -1.168   0.761  0.00  0.00    +0.082 C 
ATOM      3  C   UNL     1      -0.743  -2.175   0.549  0.00  0.00    +0.110 C 
ATOM      4  C   UNL     1      -0.154  -3.568   0.536  0.00  0.00    +0.148 C 
ATOM      5  O   UNL     1      -0.400  -4.336  -0.363  0.00  0.00    -0.296 OA
ATOM      6  C   UNL     1       0.751  -3.975   1.678  0.00  0.00    +0.149 C 
ATOM      7  C   UNL     1       1.832  -2.903   1.848  0.00  0.00    +0.053 C 
ATOM      8  C   UNL     1       1.169  -1.536   2.026  0.00  0.00    +0.115 C 
ENDROOT
BRANCH   7   9
ATOM      9  C   UNL     1       2.666  -3.220   3.063  0.00  0.00    -0.040 A 
ATOM     10  C   UNL     1       2.126  -3.075   4.328  0.00  0.00    +0.007 A 
ATOM     11  C   UNL     1       2.888  -3.364   5.443  0.00  0.00    +0.048 A 
ATOM     12  C   UNL     1       4.197  -3.801   5.293  0.00  0.00    +0.150 A 
ATOM     13  C   UNL     1       4.736  -3.945   4.023  0.00  0.00    +0.168 A 
ATOM     14  C   UNL     1       3.968  -3.659   2.911  0.00  0.00    +0.040 A 
BRANCH  13  15
ATOM     15  N   UNL     1       6.132  -4.410   3.860  0.00  0.00    +0.060 N 
ATOM     16  O   UNL     1       6.601  -4.536   2.753  0.00  0.00    -0.126 OA
ATOM     17  O   UNL     1       6.802  -4.664   4.833  0.00  0.00    -0.126 OA
ENDBRANCH  13  15
BRANCH  12  18
ATOM     18  O   UNL     1       4.949  -4.085   6.388  0.00  0.00    -0.493 OA
ATOM     19  C   UNL     1       4.329  -3.913   7.664  0.00  0.00    +0.277 C 
ENDBRANCH  12  18
ENDBRANCH   7   9
BRANCH   8  20
ATOM     20  C   UNL     1       0.223  -1.587   3.198  0.00  0.00    +0.224 C 
ATOM     21  O   UNL     1      -0.886  -2.059   3.061  0.00  0.00    -0.275 OA
ATOM     22  N   UNL     1       0.609  -1.109   4.397  0.00  0.00    -0.285 N 
ATOM     23  H   UNL     1       1.474  -0.682   4.493  0.00  0.00    +0.155 HD
BRANCH  22  24
ATOM     24  C   UNL     1      -0.240  -1.227   5.503  0.00  0.00    +0.033 A 
ATOM     25  C   UNL     1      -1.609  -1.365   5.318  0.00  0.00    +0.023 A 
ATOM     26  C   UNL     1      -2.444  -1.481   6.412  0.00  0.00    +0.002 A 
ATOM     27  C   UNL     1      -1.918  -1.461   7.691  0.00  0.00    +0.000 A 
ATOM     28  C   UNL     1      -0.555  -1.323   7.879  0.00  0.00    +0.002 A 
ATOM     29  C   UNL     1       0.286  -1.213   6.788  0.00  0.00    +0.023 A 
ENDBRANCH  22  24
ENDBRANCH   8  20
BRANCH   6  30
ATOM     30  C   UNL     1      -0.056  -4.093   2.946  0.00  0.00    +0.228 C 
ATOM     31  O   UNL     1       0.504  -4.275   4.006  0.00  0.00    -0.275 OA
ATOM     32  N   UNL     1      -1.399  -3.995   2.901  0.00  0.00    -0.285 N 
ATOM     33  H   UNL     1      -1.852  -3.925   2.046  0.00  0.00    +0.155 HD
BRANCH  32  34
ATOM     34  C   UNL     1      -2.140  -3.994   4.088  0.00  0.00    +0.033 A 
ATOM     35  C   UNL     1      -1.494  -3.873   5.312  0.00  0.00    +0.023 A 
ATOM     36  C   UNL     1      -2.229  -3.873   6.481  0.00  0.00    +0.002 A 
ATOM     37  C   UNL     1      -3.605  -3.993   6.435  0.00  0.00    +0.000 A 
ATOM     38  C   UNL     1      -4.252  -4.114   5.218  0.00  0.00    +0.002 A 
ATOM     39  C   UNL     1      -3.523  -4.108   4.045  0.00  0.00    +0.023 A 
ENDBRANCH  32  34
ENDBRANCH   6  30
BRANCH   2  40
ATOM     40  O   UNL     1       1.273  -1.199  -0.364  0.00  0.00    -0.388 OA
ATOM     41  H   UNL     1       0.847  -0.976  -1.203  0.00  0.00    +0.210 HD
ENDBRANCH   2  40
TORSDOF 8
