REMARK  Name = ZINC09638500
REMARK  6 active torsions:
REMARK  status: ('A' for Active; 'I' for Inactive)
REMARK    1  A    between atoms: C_1  and  N_51
REMARK    2  A    between atoms: C_2  and  C_3
REMARK    3  A    between atoms: C_2  and  N_51
REMARK    4  A    between atoms: C_9  and  C_14
REMARK    5  A    between atoms: C_21  and  C_22
REMARK    6  A    between atoms: C_21  and  N_51
REMARK                            x       y       z     vdW  Elec       q    Type
REMARK                         _______ _______ _______ _____ _____    ______ ____
ROOT
ATOM      1  C   UNL     1       1.425   9.877   0.768  0.00  0.00    +0.094 A 
ATOM      2  N   UNL     1       1.837  11.122   0.417  0.00  0.00    -0.312 N 
ATOM      3  H   UNL     1       1.296  11.647  -0.194  0.00  0.00    +0.170 HD
ATOM      4  C   UNL     1       2.981  11.642   0.899  0.00  0.00    +0.260 A 
ATOM      5  O   UNL     1       3.337  12.762   0.574  0.00  0.00    -0.267 OA
ATOM      6  C   UNL     1       3.773  10.860   1.799  0.00  0.00    +0.080 A 
ATOM      7  C   UNL     1       5.035  11.196   2.448  0.00  0.00    +0.005 A 
ATOM      8  C   UNL     1       5.608  10.284   3.270  0.00  0.00    +0.056 A 
ATOM      9  S   UNL     1       4.473   8.911   3.217  0.00  0.00    -0.076 S 
ATOM     10  C   UNL     1       3.268   9.585   2.104  0.00  0.00    +0.116 A 
ATOM     11  N   UNL     1       2.124   9.141   1.591  0.00  0.00    -0.229 NA
ENDROOT
BRANCH   7  12
ATOM     12  C   UNL     1       5.678  12.510   2.212  0.00  0.00    +0.002 A 
ATOM     13  C   UNL     1       6.914  12.580   1.570  0.00  0.00    +0.010 A 
ATOM     14  C   UNL     1       7.506  13.806   1.350  0.00  0.00    +0.001 A 
ATOM     15  C   UNL     1       6.882  14.966   1.773  0.00  0.00    +0.001 A 
ATOM     16  C   UNL     1       5.658  14.904   2.415  0.00  0.00    +0.020 A 
ATOM     17  C   UNL     1       5.053  13.683   2.637  0.00  0.00    +0.049 A 
ATOM     18 CL   UNL     1       3.518  13.606   3.444  0.00  0.00    -0.083 Cl
ENDBRANCH   7  12
BRANCH   1  19
ATOM     19  C   UNL     1       0.137   9.336   0.203  0.00  0.00    -0.003 C 
BRANCH  19  21
ATOM     20  C   UNL     1      -0.334   8.009   2.173  0.00  0.00    -0.095 C 
ATOM     21  N   UNL     1      -0.072   7.966   0.719  0.00  0.00    +0.385 N 
ATOM     22  H   UNL     1       0.775   7.413   0.548  0.00  0.00    -0.081 HD
BRANCH  21  23
ATOM     23  C   UNL     1      -1.209   7.332   0.019  0.00  0.00    -0.030 C 
BRANCH  23  24
ATOM     24  C   UNL     1      -1.263   5.852   0.407  0.00  0.00    +0.194 C 
ATOM     25  C   UNL     1      -2.424   5.167  -0.326  0.00  0.00    +0.271 C 
ATOM     26  O   UNL     1      -2.437   3.785   0.048  0.00  0.00    -0.485 OA
ATOM     27  C   UNL     1      -1.241   3.136   0.030  0.00  0.00    +0.162 A 
ATOM     28  C   UNL     1      -1.219   1.749   0.017  0.00  0.00    +0.049 A 
ATOM     29  C   UNL     1      -0.013   1.076   0.008  0.00  0.00    +0.004 A 
ATOM     30  C   UNL     1       1.176   1.782   0.000  0.00  0.00    +0.004 A 
ATOM     31  C   UNL     1       1.161   3.164   0.007  0.00  0.00    +0.049 A 
ATOM     32  C   UNL     1      -0.046   3.846   0.020  0.00  0.00    +0.162 A 
ATOM     33  O   UNL     1      -0.045   5.207   0.019  0.00  0.00    -0.484 OA
ENDBRANCH  23  24
ENDBRANCH  21  23
ENDBRANCH  19  21
ENDBRANCH   1  19
TORSDOF 5
