REMARK  Name = ZINC58169028
REMARK  9 active torsions:
REMARK  status: ('A' for Active; 'I' for Inactive)
REMARK    1  A    between atoms: C_1  and  C_2
REMARK    2  A    between atoms: C_7  and  C_9
REMARK    3  A    between atoms: C_7  and  C_10
REMARK    4  A    between atoms: N_13  and  C_17
REMARK    5  A    between atoms: C_17  and  C_18
REMARK    6  A    between atoms: N_20  and  C_21
REMARK    7  A    between atoms: N_25  and  C_27
REMARK    8  A    between atoms: C_27  and  C_29
REMARK    9  A    between atoms: C_27  and  C_30
REMARK                            x       y       z     vdW  Elec       q    Type
REMARK                         _______ _______ _______ _____ _____    ______ ____
ROOT
ATOM      1  C   UNL     1       0.970  -4.657  -4.537  0.00  0.00    +0.231 C 
ATOM      2  O   UNL     1       1.179  -5.175  -3.461  0.00  0.00    -0.274 OA
ATOM      3  N   UNL     1       1.197  -5.348  -5.673  0.00  0.00    -0.313 N 
ATOM      4  H   UNL     1       1.030  -4.933  -6.534  0.00  0.00    +0.149 HD
ENDROOT
BRANCH   3   5
ATOM      5  C   UNL     1       1.694  -6.724  -5.606  0.00  0.00    +0.055 C 
ATOM      6  C   UNL     1       3.239  -6.734  -5.553  0.00  0.00    +0.002 C 
ATOM      7  C   UNL     1       3.609  -7.941  -6.451  0.00  0.00    -0.076 C 
ATOM      8  N   UNL     1       2.603  -7.874  -7.542  0.00  0.00    +0.385 N 
ATOM      9  C   UNL     1       1.329  -7.487  -6.892  0.00  0.00    -0.056 C 
ATOM     10  H   UNL     1       2.872  -7.180  -8.222  0.00  0.00    -0.081 HD
BRANCH   8  11
ATOM     11  C   UNL     1       2.464  -9.188  -8.184  0.00  0.00    -0.041 C 
ATOM     12  C   UNL     1       1.399  -9.110  -9.280  0.00  0.00    -0.008 C 
BRANCH  11  13
ATOM     13  C   UNL     1       3.782  -9.592  -8.792  0.00  0.00    -0.061 A 
ATOM     14  C   UNL     1       4.566  -8.649  -9.431  0.00  0.00    +0.002 A 
ATOM     15  C   UNL     1       5.775  -9.019  -9.989  0.00  0.00    +0.000 A 
ATOM     16  C   UNL     1       6.201 -10.332  -9.908  0.00  0.00    +0.000 A 
ATOM     17  C   UNL     1       5.418 -11.274  -9.268  0.00  0.00    +0.000 A 
ATOM     18  C   UNL     1       4.210 -10.903  -8.707  0.00  0.00    +0.002 A 
ENDBRANCH  11  13
ENDBRANCH   8  11
ENDBRANCH   3   5
BRANCH   1  19
ATOM     19  C   UNL     1       0.458  -3.241  -4.606  0.00  0.00    +0.213 C 
BRANCH  19  31
ATOM     20  C   UNL     1      -0.061   1.649   0.498  0.00  0.00    +0.007 C 
ATOM     21  C   UNL     1      -0.046   0.132   0.299  0.00  0.00    -0.011 C 
ATOM     22  C   UNL     1       0.612  -0.200  -1.042  0.00  0.00    +0.038 C 
ATOM     23  C   UNL     1       0.646  -1.713  -1.232  0.00  0.00    +0.113 C 
ATOM     24  C   UNL     1       1.417  -2.381  -0.099  0.00  0.00    +0.041 C 
ATOM     25  C   UNL     1       0.756  -2.041   1.240  0.00  0.00    -0.032 C 
ATOM     26  C   UNL     1       0.748  -0.523   1.431  0.00  0.00    +0.009 C 
ATOM     27  C   UNL     1      -0.682  -2.564   1.246  0.00  0.00    +0.011 C 
ATOM     28  C   UNL     1       1.542  -2.695   2.378  0.00  0.00    +0.011 C 
ATOM     29  C   UNL     1       1.261  -2.063  -2.567  0.00  0.00    +0.247 C 
ATOM     30  O   UNL     1       2.385  -1.813  -2.946  0.00  0.00    -0.273 OA
ATOM     31  N   UNL     1       0.296  -2.715  -3.249  0.00  0.00    -0.215 N 
ATOM     32  C   UNL     1      -0.829  -2.819  -2.531  0.00  0.00    +0.310 C 
ATOM     33  O   UNL     1      -1.838  -3.366  -2.931  0.00  0.00    -0.252 OA
ATOM     34  N   UNL     1      -0.717  -2.252  -1.315  0.00  0.00    -0.285 N 
ATOM     35  H   UNL     1      -1.402  -2.208  -0.629  0.00  0.00    +0.151 HD
ENDBRANCH  19  31
ENDBRANCH   1  19
TORSDOF 5
