REMARK  Name = ZINC13115516
REMARK  9 active torsions:
REMARK  status: ('A' for Active; 'I' for Inactive)
REMARK    1  A    between atoms: C_1  and  N_2
REMARK    2  A    between atoms: C_3  and  C_25
REMARK    3  A    between atoms: C_5  and  C_17
REMARK    4  A    between atoms: C_7  and  C_12
REMARK    5  A    between atoms: C_7  and  O_16
REMARK    6  A    between atoms: N_8  and  C_11
REMARK    7  A    between atoms: C_17  and  C_19
REMARK    8  A    between atoms: C_28  and  O_31
REMARK    9  A    between atoms: O_31  and  C_32
REMARK                            x       y       z     vdW  Elec       q    Type
REMARK                         _______ _______ _______ _____ _____    ______ ____
ROOT
ATOM      1  C   UNL     1      -5.902  -2.527   2.360  0.00  0.00    +0.134 C 
ATOM      2  N   UNL     1      -5.886  -2.025   0.983  0.00  0.00    -0.281 N 
ATOM      3  C   UNL     1      -4.968  -2.623   0.013  0.00  0.00    +0.123 C 
ATOM      4  C   UNL     1      -5.575  -2.510  -1.390  0.00  0.00    +0.144 C 
ATOM      5  C   UNL     1      -5.894  -1.037  -1.666  0.00  0.00    +0.245 C 
ATOM      6  N   UNL     1      -6.762  -0.525  -0.605  0.00  0.00    -0.252 N 
ATOM      7  C   UNL     1      -6.714  -1.027   0.638  0.00  0.00    +0.307 C 
ATOM      8  O   UNL     1      -7.449  -0.559   1.486  0.00  0.00    -0.252 OA
ATOM      9  C   UNL     1      -7.702   0.557  -0.905  0.00  0.00    +0.137 C 
ENDROOT
BRANCH   3  10
ATOM     10  C   UNL     1      -3.650  -1.893   0.051  0.00  0.00    -0.026 A 
ATOM     11  C   UNL     1      -3.589  -0.604   0.547  0.00  0.00    +0.009 A 
ATOM     12  C   UNL     1      -2.383   0.068   0.583  0.00  0.00    +0.046 A 
ATOM     13  C   UNL     1      -1.231  -0.552   0.121  0.00  0.00    +0.120 A 
ATOM     14  C   UNL     1      -1.296  -1.844  -0.382  0.00  0.00    +0.046 A 
ATOM     15  C   UNL     1      -2.504  -2.513  -0.411  0.00  0.00    +0.009 A 
BRANCH  13  16
ATOM     16  O   UNL     1      -0.043   0.106   0.155  0.00  0.00    -0.495 OA
ATOM     17  C   UNL     1       1.102  -0.595  -0.337  0.00  0.00    +0.277 C 
ENDBRANCH  13  16
ENDBRANCH   3  10
BRANCH   5  18
ATOM     18  C   UNL     1      -6.607  -0.912  -3.014  0.00  0.00    +0.436 C 
ATOM     19  F   UNL     1      -6.755   0.441  -3.340  0.00  0.00    -0.166 F 
ATOM     20  F   UNL     1      -5.850  -1.549  -4.003  0.00  0.00    -0.166 F 
ATOM     21  F   UNL     1      -7.867  -1.512  -2.933  0.00  0.00    -0.166 F 
ENDBRANCH   5  18
BRANCH   5  22
ATOM     22  O   UNL     1      -4.679  -0.284  -1.695  0.00  0.00    -0.364 OA
ATOM     23  H   UNL     1      -4.806   0.660  -1.861  0.00  0.00    +0.212 HD
ENDBRANCH   5  22
BRANCH   4  24
ATOM     24  C   UNL     1      -6.842  -3.324  -1.459  0.00  0.00    +0.173 C 
ATOM     25  O   UNL     1      -7.793  -3.024  -0.769  0.00  0.00    -0.292 OA
BRANCH  24  26
ATOM     26  C   UNL     1      -6.925  -4.481  -2.364  0.00  0.00    +0.018 A 
ATOM     27  C   UNL     1      -5.877  -4.758  -3.248  0.00  0.00    +0.011 A 
ATOM     28  C   UNL     1      -5.959  -5.848  -4.089  0.00  0.00    +0.001 A 
ATOM     29  C   UNL     1      -7.080  -6.660  -4.068  0.00  0.00    +0.000 A 
ATOM     30  C   UNL     1      -8.124  -6.388  -3.201  0.00  0.00    +0.001 A 
ATOM     31  C   UNL     1      -8.054  -5.306  -2.349  0.00  0.00    +0.011 A 
ENDBRANCH  24  26
ENDBRANCH   4  24
TORSDOF 6
