REMARK  Name = ZINC65739443
REMARK  14 active torsions:
REMARK  status: ('A' for Active; 'I' for Inactive)
REMARK    1  A    between atoms: C_1  and  C_2
REMARK    2  A    between atoms: C_2  and  C_3
REMARK    3  A    between atoms: C_6  and  C_11
REMARK    4  A    between atoms: N_8  and  C_10
REMARK    5  A    between atoms: N_13  and  C_14
REMARK    6  A    between atoms: C_14  and  C_16
REMARK    7  A    between atoms: C_14  and  C_36
REMARK    8  A    between atoms: C_18  and  O_35
REMARK    9  A    between atoms: C_20  and  O_34
REMARK   10  A    between atoms: C_22  and  O_29
REMARK   11  A    between atoms: C_24  and  S_27
REMARK   12  A    between atoms: S_27  and  C_28
REMARK   13  A    between atoms: O_29  and  P_30
REMARK   14  A    between atoms: C_36  and  C_38
REMARK                            x       y       z     vdW  Elec       q    Type
REMARK                         _______ _______ _______ _____ _____    ______ ____
ROOT
ATOM      1  C   UNL     1      -4.155  -0.838   5.219  0.00  0.00    +0.122 C 
ENDROOT
BRANCH   1   2
ATOM      2  C   UNL     1      -4.384   0.544   5.836  0.00  0.00    +0.172 C 
ATOM      3  C   UNL     1      -3.141   1.411   5.621  0.00  0.00    +0.176 C 
ATOM      4  C   UNL     1      -3.355   2.771   6.293  0.00  0.00    +0.178 C 
ATOM      5  C   UNL     1      -3.661   2.552   7.778  0.00  0.00    +0.200 C 
ATOM      6  C   UNL     1      -4.884   1.640   7.910  0.00  0.00    +0.208 C 
ATOM      7  O   UNL     1      -4.631   0.405   7.237  0.00  0.00    -0.356 OA
BRANCH   6   8
ATOM      8  S   UNL     1      -5.212   1.317   9.664  0.00  0.00    -0.130 S 
ATOM      9  C   UNL     1      -6.756   0.365   9.654  0.00  0.00    +0.087 C 
ENDBRANCH   6   8
BRANCH   4  10
ATOM     10  O   UNL     1      -2.172   3.562   6.159  0.00  0.00    -0.386 OA
ATOM     11  H   UNL     1      -2.237   4.438   6.563  0.00  0.00    +0.210 HD
ENDBRANCH   4  10
BRANCH   3  12
ATOM     12  O   UNL     1      -2.003   0.766   6.197  0.00  0.00    -0.387 OA
ATOM     13  H   UNL     1      -1.179   1.261   6.097  0.00  0.00    +0.210 HD
ENDBRANCH   3  12
BRANCH   5  14
ATOM     14  O   UNL     1      -2.537   1.939   8.412  0.00  0.00    -0.274 OA
BRANCH  14  15
ATOM     15  P   UNL     1      -1.741   2.619   9.635  0.00  0.00    +0.532 P 
ATOM     16  O   UNL     1      -1.266   4.052   9.217  0.00  0.00    -0.222 OA
ATOM     17  O   UNL     1      -2.688   2.726  10.879  0.00  0.00    -0.115 OA
ATOM     18  O   UNL     1      -0.496   1.742  10.001  0.00  0.00    -0.115 OA
ENDBRANCH  14  15
ENDBRANCH   5  14
ENDBRANCH   1   2
BRANCH   1  21
ATOM     19  C   UNL     1      -3.199  -1.639   3.126  0.00  0.00    +0.200 C 
ATOM     20  O   UNL     1      -2.776  -2.606   3.724  0.00  0.00    -0.278 OA
ATOM     21  N   UNL     1      -3.902  -0.695   3.783  0.00  0.00    -0.310 N 
ATOM     22  H   UNL     1      -4.240   0.078   3.305  0.00  0.00    +0.149 HD
BRANCH  19  25
ATOM     23  C   UNL     1      -1.433  -0.534   0.013  0.00  0.00    -0.029 C 
ATOM     24  C   UNL     1      -2.114  -0.212   1.363  0.00  0.00    -0.005 C 
ATOM     25  C   UNL     1      -2.938  -1.492   1.649  0.00  0.00    +0.019 C 
ATOM     26  N   UNL     1      -2.056  -2.582   1.158  0.00  0.00    +0.386 N 
ATOM     27  C   UNL     1      -1.437  -2.070  -0.086  0.00  0.00    -0.075 C 
ATOM     28  C   UNL     1      -2.849  -3.785   0.871  0.00  0.00    -0.095 C 
ATOM     29  H   UNL     1      -1.344  -2.788   1.843  0.00  0.00    -0.081 HD
BRANCH  23  31
ATOM     30  C   UNL     1      -0.019   1.526   0.010  0.00  0.00    +0.004 C 
ATOM     31  C   UNL     1       0.002  -0.004   0.002  0.00  0.00    -0.002 C 
ENDBRANCH  23  31
ENDBRANCH  19  25
ENDBRANCH   1  21
BRANCH   1  32
ATOM     32  C   UNL     1      -5.397  -1.705   5.434  0.00  0.00    +0.100 C 
ATOM     33  C   UNL     1      -5.168  -3.086   4.818  0.00  0.00    +0.026 C 
ATOM     34 CL   UNL     1      -5.709  -1.880   7.202  0.00  0.00    -0.120 Cl
ENDBRANCH   1  32
TORSDOF 10
