REMARK  Name = ZINC63491709
REMARK  6 active torsions:
REMARK  status: ('A' for Active; 'I' for Inactive)
REMARK    1  A    between atoms: C_1  and  C_2
REMARK    2  A    between atoms: C_5  and  C_8
REMARK    3  A    between atoms: N_25  and  C_26
REMARK    4  A    between atoms: C_30  and  C_31
REMARK    5  A    between atoms: C_31  and  O_33
REMARK    6  A    between atoms: O_33  and  C_34
REMARK                            x       y       z     vdW  Elec       q    Type
REMARK                         _______ _______ _______ _____ _____    ______ ____
ROOT
ATOM      1  C   UNL     1       0.107  -4.199  -0.018  0.00  0.00    +0.134 C 
ATOM      2  C   UNL     1      -1.283  -4.730   0.347  0.00  0.00    +0.131 C 
ATOM      3  C   UNL     1      -1.473  -4.465   1.835  0.00  0.00    -0.035 C 
ATOM      4  C   UNL     1      -2.587  -3.751   1.950  0.00  0.00    -0.001 A 
ATOM      5  C   UNL     1      -3.315  -3.256   3.128  0.00  0.00    +0.010 A 
ATOM      6  C   UNL     1      -4.438  -2.531   2.878  0.00  0.00    +0.001 A 
ATOM      7  C   UNL     1      -4.902  -2.252   1.589  0.00  0.00    +0.002 A 
ATOM      8  C   UNL     1      -4.298  -2.671   0.449  0.00  0.00    +0.026 A 
ATOM      9  C   UNL     1      -3.110  -3.447   0.583  0.00  0.00    +0.043 A 
ATOM     10  N   UNL     1      -2.345  -3.996  -0.344  0.00  0.00    -0.375 N 
ATOM     11  C   UNL     1      -0.472  -4.913   2.872  0.00  0.00    +0.052 C 
ATOM     12  C   UNL     1       0.907  -4.424   2.395  0.00  0.00    +0.114 C 
ATOM     13  N   UNL     1       1.065  -4.725   0.967  0.00  0.00    -0.276 N 
ATOM     14  C   UNL     1       2.094  -5.491   0.555  0.00  0.00    +0.307 C 
ATOM     15  O   UNL     1       2.286  -5.663  -0.634  0.00  0.00    -0.252 OA
ATOM     16  N   UNL     1       2.912  -6.066   1.459  0.00  0.00    -0.268 N 
ATOM     17  H   UNL     1       2.716  -5.991   2.406  0.00  0.00    +0.156 HD
ATOM     18  H   UNL     1      -2.454  -3.927  -1.306  0.00  0.00    +0.160 HD
ENDROOT
BRANCH   1  23
ATOM     19  C   UNL     1       0.098   1.577   0.148  0.00  0.00    +0.044 C 
ATOM     20  C   UNL     1       0.101   0.071   0.105  0.00  0.00    -0.050 A 
ATOM     21  C   UNL     1       0.374  -0.586  -1.080  0.00  0.00    +0.004 A 
ATOM     22  C   UNL     1       0.376  -1.968  -1.120  0.00  0.00    +0.006 A 
ATOM     23  C   UNL     1       0.106  -2.693   0.026  0.00  0.00    -0.025 A 
ATOM     24  C   UNL     1      -0.167  -2.036   1.211  0.00  0.00    +0.006 A 
ATOM     25  C   UNL     1      -0.165  -0.654   1.252  0.00  0.00    +0.004 A 
ENDBRANCH   1  23
BRANCH  16  26
ATOM     26  C   UNL     1       4.040  -6.768   1.033  0.00  0.00    +0.056 A 
ATOM     27  C   UNL     1       4.289  -7.024  -0.300  0.00  0.00    +0.032 A 
ATOM     28  C   UNL     1       5.404  -7.711  -0.641  0.00  0.00    +0.048 A 
ATOM     29  S   UNL     1       6.158  -8.038   0.824  0.00  0.00    -0.088 S 
ATOM     30  C   UNL     1       4.995  -7.254   1.925  0.00  0.00    +0.117 A 
BRANCH  30  31
ATOM     31  C   UNL     1       5.032  -7.154   3.336  0.00  0.00    +0.347 C 
ATOM     32  O   UNL     1       4.139  -6.576   3.928  0.00  0.00    -0.244 OA
BRANCH  31  33
ATOM     33  O   UNL     1       6.057  -7.698   4.025  0.00  0.00    -0.464 OA
ATOM     34  C   UNL     1       6.029  -7.559   5.447  0.00  0.00    +0.280 C 
ENDBRANCH  31  33
ENDBRANCH  30  31
ENDBRANCH  16  26
TORSDOF 4
