REMARK  Name = ZINC45630382
REMARK  8 active torsions:
REMARK  status: ('A' for Active; 'I' for Inactive)
REMARK    1  A    between atoms: C_1  and  C_2
REMARK    2  A    between atoms: C_5  and  O_8
REMARK    3  A    between atoms: O_8  and  C_9
REMARK    4  A    between atoms: C_14  and  N_15
REMARK    5  A    between atoms: C_16  and  C_18
REMARK    6  A    between atoms: C_18  and  N_19
REMARK    7  A    between atoms: C_22  and  C_26
REMARK    8  A    between atoms: C_22  and  C_27
REMARK                            x       y       z     vdW  Elec       q    Type
REMARK                         _______ _______ _______ _____ _____    ______ ____
ROOT
ATOM      1  C   UNL     1       0.286  -8.931  -1.306  0.00  0.00    +0.214 C 
ENDROOT
BRANCH   1   2
ATOM      2  N   UNL     1       0.293 -10.362  -0.994  0.00  0.00    -0.215 N 
ATOM      3  C   UNL     1       1.409 -11.112  -0.902  0.00  0.00    +0.251 C 
ATOM      4  O   UNL     1       2.553 -10.743  -1.056  0.00  0.00    -0.272 OA
ATOM      5  C   UNL     1       0.935 -12.512  -0.565  0.00  0.00    +0.136 C 
ATOM      6  N   UNL     1      -0.530 -12.376  -0.499  0.00  0.00    -0.281 N 
ATOM      7  C   UNL     1      -0.808 -11.085  -0.759  0.00  0.00    +0.310 C 
ATOM      8  O   UNL     1      -1.934 -10.628  -0.781  0.00  0.00    -0.252 OA
ATOM      9  C   UNL     1       1.495 -12.958   0.788  0.00  0.00    +0.047 C 
ATOM     10  H   UNL     1      -1.169 -13.079  -0.304  0.00  0.00    +0.152 HD
BRANCH   5  11
ATOM     11  C   UNL     1       1.330 -13.481  -1.649  0.00  0.00    -0.008 A 
ATOM     12  C   UNL     1       0.373 -14.130  -2.368  0.00  0.00    +0.007 A 
ATOM     13  C   UNL     1       0.719 -15.029  -3.375  0.00  0.00    +0.001 A 
ATOM     14  C   UNL     1       2.024 -15.285  -3.668  0.00  0.00    +0.008 A 
ATOM     15  C   UNL     1       3.039 -14.634  -2.947  0.00  0.00    -0.018 A 
ATOM     16  C   UNL     1       2.687 -13.715  -1.928  0.00  0.00    -0.012 A 
ATOM     17  C   UNL     1       3.703 -13.059  -1.211  0.00  0.00    +0.009 A 
ATOM     18  C   UNL     1       5.007 -13.311  -1.508  0.00  0.00    +0.001 A 
ATOM     19  C   UNL     1       5.353 -14.210  -2.515  0.00  0.00    +0.001 A 
ATOM     20  C   UNL     1       4.397 -14.873  -3.221  0.00  0.00    +0.008 A 
ENDBRANCH   5  11
ENDBRANCH   1   2
BRANCH   1  22
ATOM     21  N   UNL     1       0.391  -6.790  -0.070  0.00  0.00    -0.281 N 
ATOM     22  C   UNL     1       0.380  -8.138  -0.028  0.00  0.00    +0.235 C 
ATOM     23  O   UNL     1       0.446  -8.711   1.039  0.00  0.00    -0.274 OA
ATOM     24  H   UNL     1       0.406  -6.332  -0.925  0.00  0.00    +0.155 HD
BRANCH  21  30
ATOM     25  C   UNL     1      -0.296  -4.835   1.181  0.00  0.00    +0.150 A 
ATOM     26  C   UNL     1      -0.308  -4.112   2.363  0.00  0.00    +0.048 A 
ATOM     27  C   UNL     1       0.352  -4.596   3.477  0.00  0.00    +0.004 A 
ATOM     28  C   UNL     1       1.027  -5.802   3.416  0.00  0.00    +0.002 A 
ATOM     29  C   UNL     1       1.044  -6.529   2.241  0.00  0.00    +0.027 A 
ATOM     30  C   UNL     1       0.379  -6.052   1.121  0.00  0.00    +0.076 A 
BRANCH  25  31
ATOM     31  O   UNL     1      -0.945  -4.360   0.085  0.00  0.00    -0.454 OA
BRANCH  31  36
ATOM     32  C   UNL     1      -3.248   0.770   0.390  0.00  0.00    +0.044 C 
ATOM     33  C   UNL     1      -2.632  -0.602   0.308  0.00  0.00    -0.050 A 
ATOM     34  C   UNL     1      -1.259  -0.747   0.376  0.00  0.00    +0.007 A 
ATOM     35  C   UNL     1      -0.691  -2.005   0.301  0.00  0.00    +0.046 A 
ATOM     36  C   UNL     1      -1.501  -3.123   0.159  0.00  0.00    +0.129 A 
ATOM     37  C   UNL     1      -2.879  -2.974   0.092  0.00  0.00    +0.046 A 
ATOM     38  C   UNL     1      -3.441  -1.715   0.172  0.00  0.00    +0.007 A 
ENDBRANCH  31  36
ENDBRANCH  25  31
ENDBRANCH  21  30
ENDBRANCH   1  22
TORSDOF 6
