REMARK  Name = ZINC12712937
REMARK  12 active torsions:
REMARK  status: ('A' for Active; 'I' for Inactive)
REMARK    1  A    between atoms: C_1  and  C_2
REMARK    2  A    between atoms: C_5  and  N_9
REMARK    3  A    between atoms: N_9  and  C_10
REMARK    4  A    between atoms: C_10  and  C_12
REMARK    5  A    between atoms: C_10  and  C_19
REMARK    6  A    between atoms: N_21  and  C_22
REMARK    7  A    between atoms: C_22  and  C_23
REMARK    8  A    between atoms: C_23  and  C_24
REMARK    9  A    between atoms: C_24  and  C_25
REMARK   10  A    between atoms: C_24  and  C_26
REMARK   11  A    between atoms: C_27  and  C_29
REMARK   12  A    between atoms: C_29  and  N_30
REMARK                            x       y       z     vdW  Elec       q    Type
REMARK                         _______ _______ _______ _____ _____    ______ ____
ROOT
ATOM      1  N   UNL     1      -5.277   3.693  -1.871  0.00  0.00    -0.254 N 
ATOM      2  C   UNL     1      -4.143   3.035  -1.557  0.00  0.00    +0.242 C 
ATOM      3  O   UNL     1      -3.817   2.052  -2.188  0.00  0.00    -0.273 OA
ENDROOT
BRANCH   1   8
ATOM      4  C   UNL     1      -6.583   8.527   0.799  0.00  0.00    +0.047 C 
ATOM      5  C   UNL     1      -6.236   7.243   0.089  0.00  0.00    -0.015 A 
ATOM      6  C   UNL     1      -6.277   6.043   0.775  0.00  0.00    +0.008 A 
ATOM      7  C   UNL     1      -5.960   4.865   0.127  0.00  0.00    +0.024 A 
ATOM      8  C   UNL     1      -5.599   4.885  -1.214  0.00  0.00    +0.040 A 
ATOM      9  C   UNL     1      -5.554   6.091  -1.900  0.00  0.00    +0.062 A 
ATOM     10  C   UNL     1      -5.877   7.268  -1.248  0.00  0.00    +0.128 A 
ATOM     11  F   UNL     1      -5.837   8.443  -1.915  0.00  0.00    -0.205 F 
ENDBRANCH   1   8
BRANCH   1  12
ATOM     12  C   UNL     1      -6.171   3.159  -2.901  0.00  0.00    +0.197 C 
BRANCH  12  13
ATOM     13  C   UNL     1      -7.284   4.142  -3.159  0.00  0.00    -0.018 A 
ATOM     14  C   UNL     1      -8.082   4.572  -2.115  0.00  0.00    +0.009 A 
ATOM     15  C   UNL     1      -9.100   5.477  -2.349  0.00  0.00    +0.038 A 
ATOM     16  C   UNL     1      -9.326   5.946  -3.632  0.00  0.00    +0.123 A 
ATOM     17  C   UNL     1      -8.529   5.512  -4.678  0.00  0.00    +0.038 A 
ATOM     18  C   UNL     1      -7.509   4.610  -4.440  0.00  0.00    +0.009 A 
ATOM     19  F   UNL     1     -10.323   6.828  -3.863  0.00  0.00    -0.205 F 
ENDBRANCH  12  13
BRANCH  12  20
ATOM     20  C   UNL     1      -6.755   1.852  -2.430  0.00  0.00    +0.238 C 
ATOM     21  O   UNL     1      -6.454   1.410  -1.342  0.00  0.00    -0.273 OA
ATOM     22  N   UNL     1      -7.613   1.174  -3.219  0.00  0.00    -0.313 N 
ATOM     23  H   UNL     1      -7.854   1.528  -4.090  0.00  0.00    +0.149 HD
BRANCH  22  24
ATOM     24  C   UNL     1      -8.181  -0.097  -2.762  0.00  0.00    +0.104 C 
BRANCH  24  25
ATOM     25  C   UNL     1      -9.115  -0.654  -3.837  0.00  0.00    +0.022 C 
BRANCH  25  26
ATOM     26  C   UNL     1      -9.708  -1.981  -3.360  0.00  0.00    -0.016 C 
ATOM     27  C   UNL     1     -10.598  -1.733  -2.140  0.00  0.00    +0.007 C 
ATOM     28  C   UNL     1     -10.543  -2.600  -4.483  0.00  0.00    +0.007 C 
ENDBRANCH  25  26
ENDBRANCH  24  25
ENDBRANCH  22  24
ENDBRANCH  12  20
ENDBRANCH   1  12
BRANCH   2  29
ATOM     29  C   UNL     1      -3.280   3.522  -0.421  0.00  0.00    +0.242 C 
BRANCH  29  30
ATOM     30  N   UNL     1      -2.175   2.583  -0.210  0.00  0.00    -0.235 N 
ATOM     31  C   UNL     1      -2.173   1.489   0.622  0.00  0.00    +0.090 A 
ATOM     32  C   UNL     1      -3.114   0.921   1.475  0.00  0.00    +0.029 A 
ATOM     33  C   UNL     1      -2.795  -0.199   2.189  0.00  0.00    +0.002 A 
ATOM     34  C   UNL     1      -1.541  -0.784   2.063  0.00  0.00    +0.002 A 
ATOM     35  C   UNL     1      -0.603  -0.251   1.229  0.00  0.00    +0.032 A 
ATOM     36  C   UNL     1      -0.903   0.901   0.490  0.00  0.00    +0.113 A 
ATOM     37  N   UNL     1      -0.201   1.640  -0.392  0.00  0.00    -0.129 NA
ATOM     38  N   UNL     1      -0.911   2.624  -0.817  0.00  0.00    -0.064 NA
ENDBRANCH  29  30
ENDBRANCH   2  29
TORSDOF 9
