REMARK  Name = ZINC36309682
REMARK  16 active torsions:
REMARK  status: ('A' for Active; 'I' for Inactive)
REMARK    1  A    between atoms: C_1  and  C_2
REMARK    2  A    between atoms: C_2  and  C_3
REMARK    3  A    between atoms: C_2  and  C_4
REMARK    4  A    between atoms: C_4  and  C_5
REMARK    5  A    between atoms: C_5  and  N_6
REMARK    6  A    between atoms: N_6  and  C_7
REMARK    7  A    between atoms: N_6  and  C_15
REMARK    8  A    between atoms: C_7  and  C_8
REMARK    9  A    between atoms: C_8  and  C_10
REMARK   10  A    between atoms: C_8  and  O_14
REMARK   11  A    between atoms: C_10  and  C_11
REMARK   12  A    between atoms: C_11  and  C_12
REMARK   13  A    between atoms: C_15  and  C_16
REMARK   14  A    between atoms: C_26  and  C_28
REMARK   15  A    between atoms: C_28  and  O_29
REMARK   16  A    between atoms: O_29  and  C_30
REMARK                            x       y       z     vdW  Elec       q    Type
REMARK                         _______ _______ _______ _____ _____    ______ ____
ROOT
ATOM      1  C   UNL     1       2.652  -0.343   2.406  0.00  0.00    +0.200 C 
ATOM      2  O   UNL     1       2.147  -1.055   1.565  0.00  0.00    -0.278 OA
ATOM      3  N   UNL     1       3.873   0.187   2.196  0.00  0.00    -0.292 N 
ATOM      4  C   UNL     1       4.498   1.047   3.212  0.00  0.00    +0.113 C 
ATOM      5  C   UNL     1       5.757   0.338   3.736  0.00  0.00    +0.061 C 
ATOM      6  C   UNL     1       6.495  -0.246   2.575  0.00  0.00    -0.004 A 
ATOM      7  C   UNL     1       6.033  -0.466   1.315  0.00  0.00    -0.014 A 
ATOM      8  C   UNL     1       6.927  -1.036   0.410  0.00  0.00    +0.013 A 
ATOM      9  C   UNL     1       8.186  -1.337   0.803  0.00  0.00    +0.046 A 
ATOM     10  S   UNL     1       8.173  -0.818   2.512  0.00  0.00    -0.101 S 
ATOM     11  C   UNL     1       4.602  -0.091   0.951  0.00  0.00    +0.144 C 
ENDROOT
BRANCH   1  12
ATOM     12  C   UNL     1       1.915  -0.051   3.688  0.00  0.00    +0.019 C 
BRANCH  12  13
ATOM     13  N   UNL     1       0.687  -0.856   3.740  0.00  0.00    +0.387 N 
ATOM     14  H   UNL     1       0.152  -0.709   2.897  0.00  0.00    -0.081 HD
BRANCH  13  15
ATOM     15  C   UNL     1      -0.113  -0.452   4.904  0.00  0.00    -0.078 C 
BRANCH  15  16
ATOM     16  C   UNL     1      -0.592   0.989   4.720  0.00  0.00    -0.016 C 
BRANCH  16  18
ATOM     17  C   UNL     1      -0.772   1.357   7.185  0.00  0.00    +0.007 C 
ATOM     18  C   UNL     1      -1.540   1.362   5.861  0.00  0.00    -0.019 C 
ATOM     19  C   UNL     1      -2.116   2.757   5.611  0.00  0.00    +0.007 C 
ENDBRANCH  16  18
ENDBRANCH  15  16
ENDBRANCH  13  15
BRANCH  13  20
ATOM     20  C   UNL     1       1.038  -2.277   3.856  0.00  0.00    -0.047 C 
BRANCH  20  21
ATOM     21  C   UNL     1      -0.234  -3.124   3.786  0.00  0.00    +0.098 C 
BRANCH  21  22
ATOM     22  O   UNL     1      -0.828  -2.985   2.493  0.00  0.00    -0.394 OA
ATOM     23  H   UNL     1      -0.257  -3.268   1.766  0.00  0.00    +0.210 HD
ENDBRANCH  21  22
BRANCH  21  24
ATOM     24  C   UNL     1       0.117  -4.593   4.031  0.00  0.00    +0.033 C 
BRANCH  24  25
ATOM     25  C   UNL     1      -1.168  -5.422   4.084  0.00  0.00    +0.029 C 
BRANCH  25  26
ATOM     26  C   UNL     1      -0.822  -6.869   4.325  0.00  0.00    -0.034 C 
ATOM     27  C   UNL     1      -1.357  -7.511   5.335  0.00  0.00    +0.004 C 
ENDBRANCH  25  26
ENDBRANCH  24  25
ENDBRANCH  21  24
ENDBRANCH  20  21
ENDBRANCH  13  20
ENDBRANCH  12  13
ENDBRANCH   1  12
BRANCH  11  28
ATOM     28  C   UNL     1       4.606   1.155   0.064  0.00  0.00    +0.256 C 
BRANCH  28  29
ATOM     29  O   UNL     1       5.348   2.195   0.707  0.00  0.00    -0.490 OA
BRANCH  29  30
ATOM     30  C   UNL     1       5.450   3.378   0.047  0.00  0.00    +0.123 A 
ATOM     31  C   UNL     1       4.844   3.538  -1.191  0.00  0.00    +0.046 A 
ATOM     32  C   UNL     1       4.948   4.742  -1.861  0.00  0.00    +0.006 A 
ATOM     33  C   UNL     1       5.656   5.788  -1.299  0.00  0.00    +0.038 A 
ATOM     34  C   UNL     1       6.262   5.632  -0.063  0.00  0.00    +0.127 A 
ATOM     35  C   UNL     1       6.154   4.430   0.613  0.00  0.00    +0.084 A 
ATOM     36  F   UNL     1       6.953   6.656   0.484  0.00  0.00    -0.205 F 
ENDBRANCH  29  30
ENDBRANCH  28  29
ENDBRANCH  11  28
TORSDOF 14
