REMARK  Name = ZINC27504681
REMARK  5 active torsions:
REMARK  status: ('A' for Active; 'I' for Inactive)
REMARK    1  A    between atoms: C_9  and  O_28
REMARK    2  A    between atoms: C_10  and  C_11
REMARK    3  A    between atoms: C_11  and  N_12
REMARK    4  A    between atoms: N_15  and  C_18
REMARK    5  A    between atoms: C_23  and  N_24
REMARK                            x       y       z     vdW  Elec       q    Type
REMARK                         _______ _______ _______ _____ _____    ______ ____
ROOT
ATOM      1  N   UNL     1      -0.716   1.650   1.172  0.00  0.00    -0.295 NA
ATOM      2  C   UNL     1      -0.516   3.094   1.356  0.00  0.00    +0.103 C 
ATOM      3  C   UNL     1      -1.312   3.565   2.576  0.00  0.00    +0.120 C 
ATOM      4  N   UNL     1      -0.870   2.820   3.763  0.00  0.00    -0.326 N 
ATOM      5  C   UNL     1      -1.069   1.376   3.579  0.00  0.00    +0.120 C 
ATOM      6  C   UNL     1      -0.274   0.905   2.359  0.00  0.00    +0.103 C 
ENDROOT
BRANCH   4   7
ATOM      7  C   UNL     1      -1.524   3.274   4.912  0.00  0.00    +0.060 A 
ATOM      8  C   UNL     1      -2.910   3.216   4.992  0.00  0.00    +0.027 A 
ATOM      9  C   UNL     1      -3.554   3.665   6.128  0.00  0.00    +0.022 A 
ATOM     10  C   UNL     1      -2.820   4.171   7.187  0.00  0.00    +0.043 A 
ATOM     11  C   UNL     1      -1.440   4.230   7.109  0.00  0.00    +0.054 A 
ATOM     12  C   UNL     1      -0.790   3.778   5.977  0.00  0.00    +0.148 A 
ATOM     13 CL   UNL     1      -3.632   4.734   8.614  0.00  0.00    -0.083 Cl
BRANCH  12  14
ATOM     14  N   UNL     1       0.687   3.836   5.898  0.00  0.00    +0.058 N 
ATOM     15  O   UNL     1       1.335   4.189   6.866  0.00  0.00    -0.126 OA
ATOM     16  O   UNL     1       1.254   3.530   4.864  0.00  0.00    -0.126 OA
ENDBRANCH  12  14
ENDBRANCH   4   7
BRANCH   1  17
ATOM     17  C   UNL     1      -0.028   1.173  -0.035  0.00  0.00    +0.124 C 
BRANCH  17  27
ATOM     18  C   UNL     1       0.662   5.422  -2.803  0.00  0.00    +0.001 A 
ATOM     19  C   UNL     1       1.272   4.877  -1.674  0.00  0.00    +0.001 A 
ATOM     20  C   UNL     1       0.851   3.692  -1.154  0.00  0.00    +0.009 A 
ATOM     21  C   UNL     1      -0.214   3.005  -1.762  0.00  0.00    -0.010 A 
ATOM     22  C   UNL     1      -0.835   3.559  -2.910  0.00  0.00    -0.017 A 
ATOM     23  C   UNL     1      -0.372   4.786  -3.417  0.00  0.00    +0.008 A 
ATOM     24  C   UNL     1      -1.899   2.874  -3.519  0.00  0.00    +0.012 A 
ATOM     25  C   UNL     1      -2.322   1.689  -3.002  0.00  0.00    +0.046 A 
ATOM     26  C   UNL     1      -1.708   1.137  -1.874  0.00  0.00    +0.122 A 
ATOM     27  C   UNL     1      -0.675   1.779  -1.254  0.00  0.00    +0.016 A 
BRANCH  26  28
ATOM     28  O   UNL     1      -2.149  -0.052  -1.385  0.00  0.00    -0.506 OA
ATOM     29  H   UNL     1      -1.672  -0.493  -0.498  0.00  0.00    +0.292 HD
ENDBRANCH  26  28
ENDBRANCH  17  27
ENDBRANCH   1  17
TORSDOF 5
