REMARK  Name = ZINC40583537
REMARK  7 active torsions:
REMARK  status: ('A' for Active; 'I' for Inactive)
REMARK    1  A    between atoms: C_4  and  C_7
REMARK    2  A    between atoms: C_7  and  C_8
REMARK    3  A    between atoms: C_7  and  C_14
REMARK    4  A    between atoms: N_16  and  N_17
REMARK    5  A    between atoms: C_19  and  N_35
REMARK    6  A    between atoms: C_20  and  O_24
REMARK    7  A    between atoms: O_24  and  C_25
REMARK                            x       y       z     vdW  Elec       q    Type
REMARK                         _______ _______ _______ _____ _____    ______ ____
ROOT
ATOM      1  N   UNL     1       4.717  -3.351  -2.715  0.00  0.00    -0.246 N 
ATOM      2  C   UNL     1       5.794  -4.166  -3.026  0.00  0.00    +0.172 A 
ATOM      3  C   UNL     1       5.734  -5.030  -4.117  0.00  0.00    +0.228 A 
ATOM      4  C   UNL     1       6.840  -5.826  -4.387  0.00  0.00    +0.256 A 
ATOM      5  N   UNL     1       7.910  -5.735  -3.602  0.00  0.00    -0.199 NA
ATOM      6  C   UNL     1       7.929  -4.904  -2.579  0.00  0.00    +0.227 A 
ATOM      7  N   UNL     1       6.903  -4.130  -2.292  0.00  0.00    -0.217 NA
ATOM      8  H   UNL     1       3.912  -3.383  -3.255  0.00  0.00    +0.172 HD
ENDROOT
BRANCH   1  11
ATOM      9  C   UNL     1       3.744  -1.688  -1.316  0.00  0.00    +0.241 C 
ATOM     10  O   UNL     1       2.737  -1.729  -1.991  0.00  0.00    -0.273 OA
ATOM     11  N   UNL     1       4.791  -2.481  -1.619  0.00  0.00    -0.235 N 
ATOM     12  H   UNL     1       5.596  -2.449  -1.079  0.00  0.00    +0.173 HD
BRANCH   9  13
ATOM     13  C   UNL     1       3.823  -0.752  -0.137  0.00  0.00    +0.136 C 
BRANCH  13  17
ATOM     14  C   UNL     1       0.162   1.422   0.202  0.00  0.00    +0.000 A 
ATOM     15  C   UNL     1       1.366   2.099   0.153  0.00  0.00    +0.000 A 
ATOM     16  C   UNL     1       2.551   1.395   0.043  0.00  0.00    +0.005 A 
ATOM     17  C   UNL     1       2.532   0.015  -0.017  0.00  0.00    -0.031 A 
ATOM     18  C   UNL     1       1.328  -0.663   0.033  0.00  0.00    +0.005 A 
ATOM     19  C   UNL     1       0.143   0.041   0.141  0.00  0.00    +0.000 A 
ENDBRANCH  13  17
BRANCH  13  20
ATOM     20  C   UNL     1       4.054  -1.548   1.121  0.00  0.00    -0.031 A 
ATOM     21  C   UNL     1       3.231  -2.616   1.425  0.00  0.00    +0.005 A 
ATOM     22  C   UNL     1       3.443  -3.346   2.579  0.00  0.00    +0.000 A 
ATOM     23  C   UNL     1       4.478  -3.008   3.431  0.00  0.00    +0.000 A 
ATOM     24  C   UNL     1       5.302  -1.940   3.127  0.00  0.00    +0.000 A 
ATOM     25  C   UNL     1       5.093  -1.213   1.970  0.00  0.00    +0.005 A 
ENDBRANCH  13  20
ENDBRANCH   9  13
ENDBRANCH   1  11
BRANCH   3  26
ATOM     26  N   UNL     1       4.522  -5.100  -4.964  0.00  0.00    +0.065 N 
ATOM     27  O   UNL     1       4.416  -4.378  -5.928  0.00  0.00    -0.126 OA
ATOM     28  O   UNL     1       3.639  -5.880  -4.693  0.00  0.00    -0.126 OA
ENDBRANCH   3  26
BRANCH   4  29
ATOM     29  O   UNL     1       6.829  -6.684  -5.437  0.00  0.00    -0.435 OA
BRANCH  29  30
ATOM     30  C   UNL     1       7.892  -7.513  -5.593  0.00  0.00    +0.138 A 
ATOM     31  C   UNL     1       8.887  -7.205  -6.494  0.00  0.00    +0.047 A 
ATOM     32  C   UNL     1       9.982  -8.049  -6.662  0.00  0.00    +0.004 A 
ATOM     33  C   UNL     1      10.100  -9.199  -5.943  0.00  0.00    +0.009 A 
ATOM     34  C   UNL     1       9.106  -9.549  -5.013  0.00  0.00    -0.014 A 
ATOM     35  C   UNL     1       7.990  -8.695  -4.830  0.00  0.00    +0.024 A 
ATOM     36  C   UNL     1       7.000  -9.044  -3.897  0.00  0.00    +0.012 A 
ATOM     37  C   UNL     1       7.128 -10.193  -3.178  0.00  0.00    +0.001 A 
ATOM     38  C   UNL     1       8.228 -11.030  -3.353  0.00  0.00    +0.001 A 
ATOM     39  C   UNL     1       9.200 -10.730  -4.257  0.00  0.00    +0.008 A 
ENDBRANCH  29  30
ENDBRANCH   4  29
TORSDOF 7
