REMARK  Name = ZINC02254271
REMARK  9 active torsions:
REMARK  status: ('A' for Active; 'I' for Inactive)
REMARK    1  A    between atoms: C_1  and  C_2
REMARK    2  A    between atoms: C_5  and  C_8
REMARK    3  A    between atoms: C_19  and  C_21
REMARK    4  A    between atoms: C_24  and  O_29
REMARK    5  A    between atoms: C_25  and  O_27
REMARK    6  A    between atoms: O_27  and  C_28
REMARK    7  A    between atoms: O_29  and  C_30
REMARK    8  A    between atoms: C_35  and  S_37
REMARK    9  A    between atoms: S_37  and  C_38
REMARK                            x       y       z     vdW  Elec       q    Type
REMARK                         _______ _______ _______ _____ _____    ______ ____
ROOT
ATOM      1  C   UNL     1       0.059  -4.275  -0.021  0.00  0.00    +0.159 C 
ATOM      2  C   UNL     1       1.493  -4.730   0.141  0.00  0.00    +0.025 C 
ATOM      3  C   UNL     1       1.794  -5.521   1.190  0.00  0.00    +0.058 C 
ATOM      4  C   UNL     1       3.207  -5.951   1.341  0.00  0.00    +0.040 A 
ATOM      5  C   UNL     1       3.560  -7.001   2.178  0.00  0.00    +0.013 A 
ATOM      6  C   UNL     1       4.888  -7.369   2.288  0.00  0.00    +0.001 A 
ATOM      7  C   UNL     1       5.859  -6.695   1.569  0.00  0.00    +0.004 A 
ATOM      8  C   UNL     1       5.516  -5.647   0.734  0.00  0.00    +0.046 A 
ATOM      9  C   UNL     1       4.190  -5.268   0.615  0.00  0.00    +0.131 A 
ATOM     10  O   UNL     1       3.826  -4.238  -0.192  0.00  0.00    -0.479 OA
ATOM     11  C   UNL     1       2.555  -4.324  -0.840  0.00  0.00    +0.234 C 
ATOM     12  N   UNL     1       0.847  -5.912   2.078  0.00  0.00    -0.326 N 
ATOM     13  C   UNL     1      -0.421  -5.564   2.012  0.00  0.00    +0.216 C 
ATOM     14  N   UNL     1      -0.882  -4.751   1.000  0.00  0.00    -0.209 N 
ATOM     15  N   UNL     1      -2.250  -4.571   1.219  0.00  0.00    -0.239 N 
ATOM     16  C   UNL     1      -2.555  -5.280   2.351  0.00  0.00    +0.174 C 
ATOM     17  N   UNL     1      -1.471  -5.860   2.799  0.00  0.00    -0.192 NA
ATOM     18  H   UNL     1       1.122  -6.486   2.810  0.00  0.00    +0.169 HD
ATOM     19  H   UNL     1      -2.862  -4.046   0.679  0.00  0.00    +0.172 HD
ENDROOT
BRANCH   1  24
ATOM     20  C   UNL     1      -0.018   1.503   0.010  0.00  0.00    +0.044 C 
ATOM     21  C   UNL     1       0.002  -0.004   0.002  0.00  0.00    -0.050 A 
ATOM     22  C   UNL     1       0.006  -0.689  -1.199  0.00  0.00    +0.004 A 
ATOM     23  C   UNL     1       0.025  -2.071  -1.206  0.00  0.00    +0.006 A 
ATOM     24  C   UNL     1       0.040  -2.768  -0.013  0.00  0.00    -0.021 A 
ATOM     25  C   UNL     1       0.037  -2.084   1.188  0.00  0.00    +0.006 A 
ATOM     26  C   UNL     1       0.023  -0.702   1.195  0.00  0.00    +0.004 A 
ENDBRANCH   1  24
BRANCH  11  27
ATOM     27  C   UNL     1       2.627  -5.343  -1.947  0.00  0.00    +0.001 A 
ATOM     28  C   UNL     1       3.304  -6.532  -1.746  0.00  0.00    +0.011 A 
ATOM     29  C   UNL     1       3.374  -7.471  -2.759  0.00  0.00    +0.050 A 
ATOM     30  C   UNL     1       2.764  -7.222  -3.977  0.00  0.00    +0.162 A 
ATOM     31  C   UNL     1       2.082  -6.025  -4.179  0.00  0.00    +0.162 A 
ATOM     32  C   UNL     1       2.012  -5.091  -3.159  0.00  0.00    +0.057 A 
BRANCH  31  33
ATOM     33  O   UNL     1       1.482  -5.776  -5.374  0.00  0.00    -0.491 OA
ATOM     34  C   UNL     1       0.800  -4.528  -5.509  0.00  0.00    +0.277 C 
ENDBRANCH  31  33
BRANCH  30  35
ATOM     35  O   UNL     1       2.831  -8.144  -4.975  0.00  0.00    -0.491 OA
ATOM     36  C   UNL     1       3.548  -9.348  -4.697  0.00  0.00    +0.277 C 
ENDBRANCH  30  35
ENDBRANCH  11  27
BRANCH  16  37
ATOM     37  S   UNL     1      -4.154  -5.400   3.082  0.00  0.00    -0.092 S 
ATOM     38  C   UNL     1      -3.896  -6.465   4.529  0.00  0.00    +0.093 C 
ENDBRANCH  16  37
TORSDOF 5
