REMARK  Name = ZINC25023294
REMARK  11 active torsions:
REMARK  status: ('A' for Active; 'I' for Inactive)
REMARK    1  A    between atoms: C_1  and  C_2
REMARK    2  A    between atoms: C_2  and  C_4
REMARK    3  A    between atoms: C_2  and  S_20
REMARK    4  A    between atoms: N_6  and  C_7
REMARK    5  A    between atoms: C_10  and  N_17
REMARK    6  A    between atoms: C_12  and  C_13
REMARK    7  A    between atoms: S_20  and  C_21
REMARK    8  A    between atoms: C_24  and  C_27
REMARK    9  A    between atoms: N_25  and  C_26
REMARK   10  A    between atoms: C_30  and  O_33
REMARK   11  A    between atoms: O_33  and  C_34
REMARK                            x       y       z     vdW  Elec       q    Type
REMARK                         _______ _______ _______ _____ _____    ______ ____
ROOT
ATOM      1  C   UNL     1      -5.003   1.356   1.879  0.00  0.00    +0.029 C 
ATOM      2  C   UNL     1      -4.650   2.534   0.969  0.00  0.00    +0.137 C 
ENDROOT
BRANCH   2   3
ATOM      3  C   UNL     1      -5.789   2.791   0.016  0.00  0.00    +0.230 C 
ATOM      4  O   UNL     1      -5.773   2.303  -1.094  0.00  0.00    -0.274 OA
ATOM      5  N   UNL     1      -6.825   3.564   0.398  0.00  0.00    -0.284 N 
ATOM      6  H   UNL     1      -6.804   4.070   1.375  0.00  0.00    +0.155 HD
BRANCH   5   7
ATOM      7  C   UNL     1      -7.928   3.723  -0.448  0.00  0.00    +0.045 A 
ATOM      8  C   UNL     1      -7.751   3.747  -1.825  0.00  0.00    +0.026 A 
ATOM      9  C   UNL     1      -8.842   3.903  -2.657  0.00  0.00    +0.034 A 
ATOM     10  C   UNL     1     -10.110   4.035  -2.121  0.00  0.00    +0.127 A 
ATOM     11  C   UNL     1     -10.289   4.012  -0.750  0.00  0.00    +0.047 A 
ATOM     12  C   UNL     1      -9.203   3.850   0.088  0.00  0.00    +0.078 A 
BRANCH  12  13
ATOM     13  C   UNL     1      -9.400   3.819   1.581  0.00  0.00    +0.419 C 
ATOM     14  F   UNL     1     -10.760   3.966   1.875  0.00  0.00    -0.166 F 
ATOM     15  F   UNL     1      -8.943   2.598   2.087  0.00  0.00    -0.166 F 
ATOM     16  F   UNL     1      -8.681   4.865   2.169  0.00  0.00    -0.166 F 
ENDBRANCH  12  13
BRANCH  10  17
ATOM     17  N   UNL     1     -11.277   4.202  -3.015  0.00  0.00    +0.056 N 
ATOM     18  O   UNL     1     -11.121   4.223  -4.223  0.00  0.00    -0.126 OA
ATOM     19  O   UNL     1     -12.394   4.319  -2.544  0.00  0.00    -0.126 OA
ENDBRANCH  10  17
ENDBRANCH   5   7
ENDBRANCH   2   3
BRANCH   2  20
ATOM     20  S   UNL     1      -3.154   2.143   0.029  0.00  0.00    -0.074 S 
BRANCH  20  21
ATOM     21  C   UNL     1      -1.984   2.042   1.342  0.00  0.00    +0.192 A 
ATOM     22  N   UNL     1      -2.231   2.216   2.621  0.00  0.00    -0.122 NA
ATOM     23  N   UNL     1      -1.151   2.076   3.303  0.00  0.00    -0.128 NA
ATOM     24  C   UNL     1      -0.148   1.799   2.502  0.00  0.00    +0.165 A 
ATOM     25  N   UNL     1      -0.651   1.766   1.222  0.00  0.00    -0.305 N 
ATOM     26  C   UNL     1       0.089   1.496  -0.013  0.00  0.00    +0.153 C 
BRANCH  24  27
ATOM     27  C   UNL     1       1.256   1.568   2.900  0.00  0.00    +0.019 A 
ATOM     28  C   UNL     1       1.710   1.997   4.149  0.00  0.00    +0.015 A 
ATOM     29  C   UNL     1       3.019   1.775   4.519  0.00  0.00    +0.046 A 
ATOM     30  C   UNL     1       3.889   1.134   3.647  0.00  0.00    +0.120 A 
ATOM     31  C   UNL     1       3.444   0.711   2.402  0.00  0.00    +0.046 A 
ATOM     32  C   UNL     1       2.135   0.924   2.027  0.00  0.00    +0.015 A 
BRANCH  30  33
ATOM     33  O   UNL     1       5.180   0.921   4.013  0.00  0.00    -0.495 OA
ATOM     34  C   UNL     1       5.572   1.383   5.307  0.00  0.00    +0.277 C 
ENDBRANCH  30  33
ENDBRANCH  24  27
ENDBRANCH  20  21
ENDBRANCH   2  20
TORSDOF 8
