REMARK  Name = ZINC39484343
REMARK  5 active torsions:
REMARK  status: ('A' for Active; 'I' for Inactive)
REMARK    1  A    between atoms: C_1  and  C_2
REMARK    2  A    between atoms: C_2  and  C_3
REMARK    3  A    between atoms: C_3  and  C_4
REMARK    4  A    between atoms: C_4  and  C_6
REMARK    5  A    between atoms: C_8  and  C_24
REMARK                            x       y       z     vdW  Elec       q    Type
REMARK                         _______ _______ _______ _____ _____    ______ ____
ROOT
ATOM      1  C   UNL     1       1.391  -2.743  -2.406  0.00  0.00    +0.088 C 
ATOM      2  C   UNL     1       1.834  -4.124  -1.931  0.00  0.00    +0.061 C 
ATOM      3  C   UNL     1       2.371  -4.946  -3.071  0.00  0.00    -0.025 A 
ATOM      4  C   UNL     1       3.229  -5.993  -2.796  0.00  0.00    +0.054 A 
ATOM      5  C   UNL     1       3.740  -6.773  -3.824  0.00  0.00    +0.167 A 
ATOM      6  C   UNL     1       3.389  -6.505  -5.149  0.00  0.00    +0.167 A 
ATOM      7  C   UNL     1       2.533  -5.462  -5.435  0.00  0.00    +0.061 A 
ATOM      8  C   UNL     1       2.022  -4.675  -4.396  0.00  0.00    +0.026 A 
ATOM      9  C   UNL     1       1.117  -3.555  -4.708  0.00  0.00    +0.178 C 
ATOM     10  O   UNL     1       0.961  -3.173  -5.849  0.00  0.00    -0.291 OA
ATOM     11  C   UNL     1       0.387  -2.898  -3.555  0.00  0.00    +0.139 C 
ATOM     12 BR   UNL     1      -1.115  -4.031  -2.983  0.00  0.00    -0.079 Br
ATOM     13  O   UNL     1       4.019  -7.408  -5.957  0.00  0.00    -0.453 OA
ATOM     14  C   UNL     1       5.075  -7.968  -5.156  0.00  0.00    +0.466 C 
ATOM     15  O   UNL     1       4.587  -7.841  -3.807  0.00  0.00    -0.453 OA
ENDROOT
BRANCH   2  16
ATOM     16  C   UNL     1       2.910  -3.966  -0.888  0.00  0.00    -0.038 A 
ATOM     17  C   UNL     1       4.089  -3.316  -1.204  0.00  0.00    +0.004 A 
ATOM     18  C   UNL     1       5.076  -3.170  -0.248  0.00  0.00    +0.001 A 
ATOM     19  C   UNL     1       4.885  -3.674   1.025  0.00  0.00    +0.015 A 
ATOM     20  C   UNL     1       3.706  -4.324   1.342  0.00  0.00    +0.018 A 
ATOM     21  C   UNL     1       2.716  -4.465   0.386  0.00  0.00    +0.019 A 
ATOM     22 BR   UNL     1       3.445  -5.014   3.083  0.00  0.00    -0.050 Br
ENDBRANCH   2  16
BRANCH   1  23
ATOM     23  C   UNL     1       0.739  -2.004  -1.265  0.00  0.00    +0.139 C 
ATOM     24  O   UNL     1       0.233  -2.620  -0.358  0.00  0.00    -0.297 OA
BRANCH  23  25
ATOM     25  C   UNL     1       0.718  -0.497  -1.257  0.00  0.00    +0.074 C 
BRANCH  25  27
ATOM     26  C   UNL     1      -0.019   1.526   0.010  0.00  0.00    +0.004 C 
ATOM     27  C   UNL     1       0.002  -0.004   0.002  0.00  0.00    +0.004 C 
ENDBRANCH  25  27
ENDBRANCH  23  25
ENDBRANCH   1  23
TORSDOF 4
