REMARK  Name = ZINC09112003
REMARK  3 active torsions:
REMARK  status: ('A' for Active; 'I' for Inactive)
REMARK    1  A    between atoms: C_6  and  C_7
REMARK    2  A    between atoms: C_12  and  C_13
REMARK    3  A    between atoms: C_12  and  N_44
REMARK                            x       y       z     vdW  Elec       q    Type
REMARK                         _______ _______ _______ _____ _____    ______ ____
ROOT
ATOM      1  C   UNL     1       0.037  -0.007   0.036  0.00  0.00    -0.037 C 
ATOM      2  C   UNL     1      -0.370  -0.502  -1.368  0.00  0.00    -0.013 C 
ATOM      3  C   UNL     1      -1.255  -1.739  -1.059  0.00  0.00    -0.020 C 
ATOM      4  C   UNL     1      -1.977  -1.292   0.236  0.00  0.00    -0.077 C 
ATOM      5  N   UNL     1      -0.952  -0.540   0.987  0.00  0.00    +0.389 N 
ATOM      6  H   UNL     1      -0.483  -1.172   1.647  0.00  0.00    -0.080 HD
ENDROOT
BRANCH   1  12
ATOM      7  C   UNL     1      -1.018   2.205  -0.466  0.00  0.00    +0.006 A 
ATOM      8  C   UNL     1      -1.017   3.587  -0.435  0.00  0.00    +0.049 A 
ATOM      9  C   UNL     1       0.055   4.269   0.120  0.00  0.00    +0.162 A 
ATOM     10  C   UNL     1       1.125   3.559   0.653  0.00  0.00    +0.162 A 
ATOM     11  C   UNL     1       1.116   2.173   0.623  0.00  0.00    +0.051 A 
ATOM     12  C   UNL     1       0.044   1.499   0.067  0.00  0.00    -0.057 A 
ATOM     13  O   UNL     1       2.183   4.209   1.210  0.00  0.00    -0.485 OA
ATOM     14  C   UNL     1       2.329   5.596   0.887  0.00  0.00    +0.270 C 
ATOM     15  C   UNL     1       0.958   6.271   1.031  0.00  0.00    +0.270 C 
ATOM     16  O   UNL     1       0.047   5.630   0.132  0.00  0.00    -0.485 OA
ENDBRANCH   1  12
BRANCH   5  17
ATOM     17  C   UNL     1      -1.584   0.571   1.745  0.00  0.00    -0.000 C 
BRANCH  17  18
ATOM     18  C   UNL     1      -2.648   0.013   2.654  0.00  0.00    +0.120 A 
ATOM     19  N   UNL     1      -3.893  -0.095   2.223  0.00  0.00    -0.202 NA
ATOM     20  C   UNL     1      -4.835  -0.593   3.022  0.00  0.00    +0.217 A 
ATOM     21  N   UNL     1      -4.524  -0.972   4.257  0.00  0.00    -0.181 NA
ATOM     22  C   UNL     1      -3.273  -0.857   4.688  0.00  0.00    +0.217 A 
ATOM     23  N   UNL     1      -2.335  -0.363   3.882  0.00  0.00    -0.202 NA
ATOM     24  N   UNL     1      -2.945  -1.248   5.970  0.00  0.00    -0.327 N 
ATOM     25  N   UNL     1      -6.133  -0.710   2.569  0.00  0.00    -0.327 N 
ATOM     26  H   UNL     1      -2.031  -1.164   6.285  0.00  0.00    +0.145 HD
ATOM     27  H   UNL     1      -3.629  -1.608   6.557  0.00  0.00    +0.145 HD
ATOM     28  H   UNL     1      -6.819  -1.069   3.153  0.00  0.00    +0.145 HD
ATOM     29  H   UNL     1      -6.359  -0.434   1.667  0.00  0.00    +0.145 HD
ENDBRANCH  17  18
ENDBRANCH   5  17
TORSDOF 3
