REMARK  Name = ZINC09328702
REMARK  16 active torsions:
REMARK  status: ('A' for Active; 'I' for Inactive)
REMARK    1  A    between atoms: C_1  and  C_2
REMARK    2  A    between atoms: C_2  and  C_3
REMARK    3  A    between atoms: C_3  and  O_4
REMARK    4  A    between atoms: O_4  and  C_5
REMARK    5  A    between atoms: C_8  and  C_14
REMARK    6  A    between atoms: C_10  and  O_11
REMARK    7  A    between atoms: O_11  and  C_12
REMARK    8  A    between atoms: C_12  and  C_13
REMARK    9  A    between atoms: C_17  and  C_18
REMARK   10  A    between atoms: C_17  and  O_29
REMARK   11  A    between atoms: C_25  and  C_28
REMARK   12  A    between atoms: N_34  and  C_35
REMARK   13  A    between atoms: C_35  and  C_36
REMARK   14  A    between atoms: C_36  and  N_73
REMARK   15  A    between atoms: C_37  and  N_73
REMARK   16  A    between atoms: C_38  and  N_73
REMARK                            x       y       z     vdW  Elec       q    Type
REMARK                         _______ _______ _______ _____ _____    ______ ____
ROOT
ATOM      1  C   UNL     1      -1.575   0.724  -2.100  0.00  0.00    +0.144 C 
ATOM      2  C   UNL     1      -2.029   1.591  -3.252  0.00  0.00    +0.071 C 
ATOM      3  C   UNL     1      -3.216   1.486  -3.951  0.00  0.00    +0.133 C 
ATOM      4  C   UNL     1      -1.001   2.519  -3.471  0.00  0.00    +0.249 C 
ATOM      5  O   UNL     1      -0.994   3.389  -4.324  0.00  0.00    -0.282 OA
ATOM      6  C   UNL     1       0.080   2.257  -2.482  0.00  0.00    +0.288 C 
ATOM      7  O   UNL     1       1.116   2.885  -2.401  0.00  0.00    -0.266 OA
ATOM      8  N   UNL     1      -0.259   1.224  -1.692  0.00  0.00    -0.285 N 
ENDROOT
BRANCH   3   9
ATOM      9  C   UNL     1      -3.568   2.498  -4.958  0.00  0.00    +0.017 A 
ATOM     10  C   UNL     1      -3.531   3.860  -4.633  0.00  0.00    +0.015 A 
ATOM     11  C   UNL     1      -3.852   4.805  -5.577  0.00  0.00    +0.046 A 
ATOM     12  C   UNL     1      -4.229   4.418  -6.866  0.00  0.00    +0.124 A 
ATOM     13  C   UNL     1      -4.276   3.062  -7.180  0.00  0.00    -0.002 A 
ATOM     14  C   UNL     1      -3.950   2.109  -6.248  0.00  0.00    +0.019 A 
ATOM     15  C   UNL     1      -4.735   2.958  -8.622  0.00  0.00    +0.083 C 
ATOM     16  C   UNL     1      -5.296   4.376  -8.882  0.00  0.00    +0.175 C 
ATOM     17  O   UNL     1      -4.575   5.183  -7.936  0.00  0.00    -0.488 OA
ATOM     18  C   UNL     1      -6.799   4.424  -8.601  0.00  0.00    +0.052 C 
ENDBRANCH   3   9
BRANCH   1  22
ATOM     19  C   UNL     1      -1.263  -3.352  -3.357  0.00  0.00    +0.162 A 
ATOM     20  C   UNL     1      -0.277  -2.440  -3.700  0.00  0.00    +0.050 A 
ATOM     21  C   UNL     1      -0.381  -1.123  -3.293  0.00  0.00    +0.009 A 
ATOM     22  C   UNL     1      -1.467  -0.713  -2.542  0.00  0.00    -0.019 A 
ATOM     23  C   UNL     1      -2.451  -1.618  -2.191  0.00  0.00    +0.055 A 
ATOM     24  C   UNL     1      -2.355  -2.938  -2.600  0.00  0.00    +0.162 A 
BRANCH  19  25
ATOM     25  O   UNL     1      -1.163  -4.647  -3.757  0.00  0.00    -0.488 OA
BRANCH  25  26
ATOM     26  C   UNL     1      -0.014  -5.000  -4.531  0.00  0.00    +0.229 C 
BRANCH  26  28
ATOM     27  C   UNL     1       1.154  -6.865  -5.715  0.00  0.00    +0.007 C 
ATOM     28  C   UNL     1      -0.076  -6.487  -4.886  0.00  0.00    +0.038 C 
ENDBRANCH  26  28
ENDBRANCH  25  26
ENDBRANCH  19  25
BRANCH  24  29
ATOM     29  O   UNL     1      -3.325  -3.829  -2.260  0.00  0.00    -0.489 OA
BRANCH  29  30
ATOM     30  C   UNL     1      -4.417  -3.334  -1.483  0.00  0.00    +0.226 C 
ATOM     31  C   UNL     1      -5.400  -4.472  -1.201  0.00  0.00    +0.048 C 
ENDBRANCH  29  30
ENDBRANCH  24  29
ENDBRANCH   1  22
BRANCH   3  32
ATOM     32  O   UNL     1      -4.052   0.453  -3.711  0.00  0.00    -0.506 OA
ATOM     33  H   UNL     1      -4.857   0.532  -4.300  0.00  0.00    +0.292 HD
ENDBRANCH   3  32
BRANCH   8  34
ATOM     34  C   UNL     1       0.559   0.682  -0.605  0.00  0.00    +0.090 C 
BRANCH  34  35
ATOM     35  C   UNL     1       0.217   1.405   0.700  0.00  0.00    -0.060 C 
BRANCH  35  38
ATOM     36  C   UNL     1       0.912   1.682   3.002  0.00  0.00    -0.097 C 
ATOM     37  C   UNL     1       0.686  -0.539   2.065  0.00  0.00    -0.097 C 
ATOM     38  N   UNL     1       1.064   0.862   1.782  0.00  0.00    +0.377 N 
ATOM     39  H   UNL     1       2.046   0.888   1.483  0.00  0.00    -0.083 HD
ENDBRANCH  35  38
ENDBRANCH  34  35
ENDBRANCH   8  34
TORSDOF 11
