REMARK  Name = ZINC33051442
REMARK  7 active torsions:
REMARK  status: ('A' for Active; 'I' for Inactive)
REMARK    1  A    between atoms: C_1  and  C_2
REMARK    2  A    between atoms: C_2  and  C_3
REMARK    3  A    between atoms: N_6  and  C_8
REMARK    4  A    between atoms: C_19  and  C_34
REMARK    5  A    between atoms: N_25  and  C_26
REMARK    6  A    between atoms: C_26  and  C_27
REMARK    7  A    between atoms: C_30  and  C_33
REMARK                            x       y       z     vdW  Elec       q    Type
REMARK                         _______ _______ _______ _____ _____    ______ ____
ROOT
ATOM      1  C   UNL     1      -4.471   5.931   0.398  0.00  0.00    +0.070 A 
ATOM      2  C   UNL     1      -4.927   4.870  -0.378  0.00  0.00    +0.036 A 
ATOM      3  C   UNL     1      -3.942   3.924  -0.401  0.00  0.00    +0.146 A 
ATOM      4  N   UNL     1      -2.926   4.357   0.369  0.00  0.00    -0.215 N 
ATOM      5  N   UNL     1      -3.277   5.629   0.852  0.00  0.00    -0.169 NA
ATOM      6  N   UNL     1      -4.078   2.777  -1.190  0.00  0.00    -0.303 N 
ATOM      7  C   UNL     1      -3.820   1.479  -0.907  0.00  0.00    +0.093 A 
ATOM      8  C   UNL     1      -4.211   0.737  -1.968  0.00  0.00    +0.020 A 
ATOM      9  C   UNL     1      -4.703   1.625  -2.950  0.00  0.00    +0.025 A 
ATOM     10  C   UNL     1      -4.577   2.870  -2.466  0.00  0.00    +0.050 A 
ATOM     11  C   UNL     1      -4.893   4.178  -3.131  0.00  0.00    +0.155 C 
ATOM     12  N   UNL     1      -6.098   4.811  -2.546  0.00  0.00    -0.269 N 
ATOM     13  C   UNL     1      -6.245   4.704  -1.076  0.00  0.00    +0.151 C 
ATOM     14  C   UNL     1      -7.008   5.449  -3.309  0.00  0.00    +0.304 C 
ATOM     15  O   UNL     1      -6.853   5.516  -4.513  0.00  0.00    -0.253 OA
ATOM     16  N   UNL     1      -8.091   6.012  -2.736  0.00  0.00    -0.295 N 
ATOM     17  H   UNL     1      -8.231   5.951  -1.647  0.00  0.00    +0.151 HD
ENDROOT
BRANCH   4  18
ATOM     18  C   UNL     1      -1.739   3.664   0.643  0.00  0.00    +0.068 A 
ATOM     19  C   UNL     1      -1.207   3.675   1.925  0.00  0.00    +0.028 A 
ATOM     20  C   UNL     1      -0.034   2.996   2.191  0.00  0.00    +0.002 A 
ATOM     21  C   UNL     1       0.604   2.295   1.184  0.00  0.00    +0.000 A 
ATOM     22  C   UNL     1       0.073   2.277  -0.093  0.00  0.00    +0.002 A 
ATOM     23  C   UNL     1      -1.097   2.959  -0.366  0.00  0.00    +0.028 A 
ENDBRANCH   4  18
BRANCH  11  24
ATOM     24  C   UNL     1      -3.719   5.109  -2.966  0.00  0.00    -0.021 A 
ATOM     25  C   UNL     1      -3.931   6.446  -2.687  0.00  0.00    +0.006 A 
ATOM     26  C   UNL     1      -2.855   7.300  -2.532  0.00  0.00    +0.000 A 
ATOM     27  C   UNL     1      -1.566   6.817  -2.665  0.00  0.00    +0.000 A 
ATOM     28  C   UNL     1      -1.354   5.481  -2.949  0.00  0.00    +0.000 A 
ATOM     29  C   UNL     1      -2.430   4.627  -3.100  0.00  0.00    +0.006 A 
ENDBRANCH  11  24
BRANCH   1  31
ATOM     30  C   UNL     1      -6.067   7.036   1.940  0.00  0.00    +0.010 C 
ATOM     31  C   UNL     1      -5.223   7.207   0.676  0.00  0.00    +0.054 C 
ENDBRANCH   1  31
BRANCH  16  32
ATOM     32  C   UNL     1      -9.081   6.705  -3.565  0.00  0.00    +0.141 C 
BRANCH  32  33
ATOM     33  C   UNL     1     -10.183   7.240  -2.688  0.00  0.00    -0.030 A 
ATOM     34  C   UNL     1     -11.296   6.463  -2.426  0.00  0.00    +0.005 A 
ATOM     35  C   UNL     1     -12.306   6.952  -1.618  0.00  0.00    +0.003 A 
ATOM     36  C   UNL     1     -12.207   8.222  -1.080  0.00  0.00    -0.050 A 
ATOM     37  C   UNL     1     -11.097   9.001  -1.347  0.00  0.00    +0.003 A 
ATOM     38  C   UNL     1     -10.085   8.510  -2.151  0.00  0.00    +0.005 A 
ATOM     39  C   UNL     1     -13.310   8.757  -0.204  0.00  0.00    +0.044 C 
ENDBRANCH  32  33
ENDBRANCH  16  32
TORSDOF 5
