REMARK  Name = ZINC03433466
REMARK  10 active torsions:
REMARK  status: ('A' for Active; 'I' for Inactive)
REMARK    1  A    between atoms: C_1  and  C_2
REMARK    2  A    between atoms: C_8  and  O_14
REMARK    3  A    between atoms: O_14  and  C_15
REMARK    4  A    between atoms: C_15  and  C_17
REMARK    5  A    between atoms: C_19  and  O_33
REMARK    6  A    between atoms: C_20  and  O_31
REMARK    7  A    between atoms: C_22  and  N_23
REMARK    8  A    between atoms: C_24  and  C_26
REMARK    9  A    between atoms: O_31  and  C_32
REMARK   10  A    between atoms: O_33  and  C_34
REMARK                            x       y       z     vdW  Elec       q    Type
REMARK                         _______ _______ _______ _____ _____    ______ ____
ROOT
ATOM      1  C   UNL     1       4.609  -3.019   0.160  0.00  0.00    +0.084 A 
ATOM      2  C   UNL     1       5.881  -2.441   0.242  0.00  0.00    +0.066 A 
ATOM      3  C   UNL     1       6.998  -3.245   0.326  0.00  0.00    +0.162 A 
ATOM      4  C   UNL     1       6.865  -4.635   0.316  0.00  0.00    +0.163 A 
ATOM      5  C   UNL     1       5.610  -5.215   0.229  0.00  0.00    +0.073 A 
ATOM      6  C   UNL     1       4.479  -4.418   0.151  0.00  0.00    +0.051 A 
ENDROOT
BRANCH   6   7
ATOM      7  N   UNL     1       3.217  -5.001   0.064  0.00  0.00    -0.278 N 
ATOM      8  C   UNL     1       3.014  -6.242   0.549  0.00  0.00    +0.284 C 
ATOM      9  O   UNL     1       3.902  -6.812   1.154  0.00  0.00    -0.266 OA
ATOM     10  H   UNL     1       2.485  -4.514  -0.345  0.00  0.00    +0.155 HD
BRANCH   8  11
ATOM     11  C   UNL     1       1.721  -6.905   0.348  0.00  0.00    +0.189 A 
ATOM     12  C   UNL     1       1.383  -8.154   0.785  0.00  0.00    +0.054 A 
ATOM     13  C   UNL     1       0.061  -8.381   0.374  0.00  0.00    +0.042 A 
ATOM     14  C   UNL     1      -0.346  -7.274  -0.286  0.00  0.00    +0.196 A 
ATOM     15  O   UNL     1       0.655  -6.385  -0.295  0.00  0.00    -0.458 OA
ENDBRANCH   8  11
ENDBRANCH   6   7
BRANCH   1  16
ATOM     16  C   UNL     1       3.414  -2.166   0.078  0.00  0.00    +0.346 C 
ATOM     17  O   UNL     1       2.306  -2.667   0.098  0.00  0.00    -0.244 OA
BRANCH  16  18
ATOM     18  O   UNL     1       3.546  -0.828  -0.021  0.00  0.00    -0.422 OA
BRANCH  18  26
ATOM     19  C   UNL     1      -2.752   3.401  -1.595  0.00  0.00    +0.073 C 
ATOM     20  C   UNL     1      -1.532   2.580  -1.268  0.00  0.00    +0.076 A 
ATOM     21  N   UNL     1      -1.098   2.184  -0.102  0.00  0.00    -0.243 NA
ATOM     22  C   UNL     1       0.024   1.449   0.051  0.00  0.00    +0.093 A 
ATOM     23  C   UNL     1       0.703   1.121  -1.143  0.00  0.00    +0.044 A 
ATOM     24  S   UNL     1      -0.311   1.893  -2.379  0.00  0.00    -0.072 S 
ATOM     25  C   UNL     1       1.860   0.371  -1.149  0.00  0.00    +0.064 A 
ATOM     26  C   UNL     1       2.405  -0.091   0.012  0.00  0.00    +0.141 A 
ATOM     27  C   UNL     1       1.781   0.197   1.262  0.00  0.00    +0.034 A 
ATOM     28  C   UNL     1       0.607   0.960   1.240  0.00  0.00    +0.049 A 
ATOM     29  S   UNL     1       0.153   1.094   2.950  0.00  0.00    -0.094 S 
ATOM     30  C   UNL     1       1.494   0.158   3.661  0.00  0.00    +0.046 A 
ATOM     31  C   UNL     1       2.216  -0.210   2.592  0.00  0.00    +0.020 A 
ENDBRANCH  18  26
ENDBRANCH  16  18
ENDBRANCH   1  16
BRANCH   4  32
ATOM     32  O   UNL     1       7.970  -5.421   0.392  0.00  0.00    -0.491 OA
ATOM     33  C   UNL     1       7.762  -6.835   0.378  0.00  0.00    +0.277 C 
ENDBRANCH   4  32
BRANCH   3  34
ATOM     34  O   UNL     1       8.234  -2.683   0.411  0.00  0.00    -0.491 OA
ATOM     35  C   UNL     1       8.299  -1.255   0.416  0.00  0.00    +0.277 C 
ENDBRANCH   3  34
TORSDOF 7
