REMARK  Name = ZINC39727396
REMARK  7 active torsions:
REMARK  status: ('A' for Active; 'I' for Inactive)
REMARK    1  A    between atoms: C_1  and  C_2
REMARK    2  A    between atoms: C_4  and  N_15
REMARK    3  A    between atoms: C_5  and  C_14
REMARK    4  A    between atoms: N_7  and  C_8
REMARK    5  A    between atoms: C_16  and  C_18
REMARK    6  A    between atoms: C_18  and  N_19
REMARK    7  A    between atoms: C_22  and  N_25
REMARK                            x       y       z     vdW  Elec       q    Type
REMARK                         _______ _______ _______ _____ _____    ______ ____
ROOT
ATOM      1  C   UNL     1       0.978  -0.357  -4.969  0.00  0.00    +0.019 C 
ENDROOT
BRANCH   1   2
ATOM      2  N   UNL     1       2.024  -0.923  -5.832  0.00  0.00    +0.386 N 
ATOM      3  C   UNL     1       1.978  -2.388  -5.758  0.00  0.00    -0.076 C 
ATOM      4  C   UNL     1       3.116  -2.981  -6.591  0.00  0.00    +0.006 C 
ATOM      5  C   UNL     1       2.959  -2.538  -8.048  0.00  0.00    +0.089 C 
ATOM      6  C   UNL     1       2.934  -1.007  -8.106  0.00  0.00    +0.006 C 
ATOM      7  C   UNL     1       1.803  -0.487  -7.216  0.00  0.00    -0.076 C 
ATOM      8  H   UNL     1       2.928  -0.601  -5.520  0.00  0.00    -0.081 HD
BRANCH   5   9
ATOM      9  N   UNL     1       4.088  -3.039  -8.837  0.00  0.00    -0.289 N 
ATOM     10  C   UNL     1       3.999  -3.889  -9.937  0.00  0.00    +0.070 A 
ATOM     11  C   UNL     1       2.935  -4.488 -10.593  0.00  0.00    +0.028 A 
ATOM     12  C   UNL     1       3.170  -5.302 -11.684  0.00  0.00    +0.002 A 
ATOM     13  C   UNL     1       4.464  -5.522 -12.124  0.00  0.00    +0.002 A 
ATOM     14  C   UNL     1       5.531  -4.930 -11.476  0.00  0.00    +0.028 A 
ATOM     15  C   UNL     1       5.304  -4.111 -10.381  0.00  0.00    +0.067 A 
ATOM     16  N   UNL     1       6.145  -3.389  -9.537  0.00  0.00    -0.306 N 
ATOM     17  H   UNL     1       7.112  -3.348  -9.599  0.00  0.00    +0.170 HD
ATOM     18  C   UNL     1       5.386  -2.752  -8.626  0.00  0.00    +0.328 A 
ATOM     19  O   UNL     1       5.809  -2.030  -7.743  0.00  0.00    -0.247 OA
ENDBRANCH   5   9
ENDBRANCH   1   2
BRANCH   1  21
ATOM     20  N   UNL     1       0.442  -0.284  -2.556  0.00  0.00    -0.288 N 
ATOM     21  C   UNL     1       1.272  -0.701  -3.532  0.00  0.00    +0.200 C 
ATOM     22  O   UNL     1       2.257  -1.354  -3.254  0.00  0.00    -0.278 OA
ATOM     23  H   UNL     1      -0.381   0.175  -2.783  0.00  0.00    +0.155 HD
BRANCH  20  26
ATOM     24  C   UNL     1      -0.174  -2.766  -0.689  0.00  0.00    +0.036 C 
ATOM     25  C   UNL     1       1.051  -1.856  -0.579  0.00  0.00    +0.137 C 
ATOM     26  C   UNL     1       0.769  -0.513  -1.213  0.00  0.00    +0.050 C 
ATOM     27  C   UNL     1       0.887   0.405  -0.270  0.00  0.00    +0.038 C 
ATOM     28  N   UNL     1       1.222  -0.159   0.956  0.00  0.00    -0.266 N 
ATOM     29  N   UNL     1       1.340  -1.553   0.833  0.00  0.00    -0.245 N 
ATOM     30  C   UNL     1       0.684   1.881  -0.495  0.00  0.00    +0.063 C 
ATOM     31  H   UNL     1       1.356   0.339   1.777  0.00  0.00    +0.170 HD
BRANCH  29  32
ATOM     32  C   UNL     1       1.663  -2.465   1.841  0.00  0.00    +0.048 A 
ATOM     33  C   UNL     1       1.744  -3.821   1.552  0.00  0.00    +0.025 A 
ATOM     34  C   UNL     1       2.064  -4.720   2.551  0.00  0.00    +0.002 A 
ATOM     35  C   UNL     1       2.303  -4.271   3.837  0.00  0.00    +0.000 A 
ATOM     36  C   UNL     1       2.223  -2.921   4.127  0.00  0.00    +0.002 A 
ATOM     37  C   UNL     1       1.909  -2.016   3.132  0.00  0.00    +0.025 A 
ENDBRANCH  29  32
ENDBRANCH  20  26
ENDBRANCH   1  21
TORSDOF 5
