REMARK  Name = ZINC34832208
REMARK  16 active torsions:
REMARK  status: ('A' for Active; 'I' for Inactive)
REMARK    1  A    between atoms: C_1  and  C_2
REMARK    2  A    between atoms: C_2  and  C_3
REMARK    3  A    between atoms: C_3  and  C_4
REMARK    4  A    between atoms: C_4  and  N_5
REMARK    5  A    between atoms: N_8  and  C_9
REMARK    6  A    between atoms: N_8  and  C_14
REMARK    7  A    between atoms: C_9  and  C_10
REMARK    8  A    between atoms: C_10  and  C_11
REMARK    9  A    between atoms: C_11  and  C_12
REMARK   10  A    between atoms: C_11  and  C_13
REMARK   11  A    between atoms: C_14  and  C_15
REMARK   12  A    between atoms: C_16  and  C_34
REMARK   13  A    between atoms: N_18  and  C_28
REMARK   14  A    between atoms: C_19  and  N_20
REMARK   15  A    between atoms: N_23  and  C_26
REMARK   16  A    between atoms: C_26  and  C_27
REMARK                            x       y       z     vdW  Elec       q    Type
REMARK                         _______ _______ _______ _____ _____    ______ ____
ROOT
ATOM      1  C   UNL     1      -4.634  -6.436   1.441  0.00  0.00    +0.032 A 
ATOM      2  C   UNL     1      -3.683  -6.646   2.444  0.00  0.00    +0.067 A 
ATOM      3  N   UNL     1      -4.309  -6.940   3.555  0.00  0.00    -0.170 NA
ATOM      4  N   UNL     1      -5.687  -6.929   3.303  0.00  0.00    -0.218 N 
ATOM      5  C   UNL     1      -5.867  -6.609   1.992  0.00  0.00    +0.130 A 
ATOM      6  C   UNL     1      -2.188  -6.550   2.274  0.00  0.00    +0.068 C 
ENDROOT
BRANCH   5   7
ATOM      7  N   UNL     1      -7.088  -6.486   1.335  0.00  0.00    -0.318 N 
ATOM      8  C   UNL     1      -7.757  -7.662   0.756  0.00  0.00    +0.088 C 
ATOM      9  C   UNL     1      -9.210  -7.681   1.241  0.00  0.00    -0.060 C 
ATOM     10  N   UNL     1      -9.850  -6.399   0.919  0.00  0.00    +0.382 N 
ATOM     11  C   UNL     1      -9.199  -5.314   1.664  0.00  0.00    -0.060 C 
ATOM     12  C   UNL     1      -7.748  -5.178   1.205  0.00  0.00    +0.088 C 
ATOM     13  H   UNL     1      -9.767  -6.223  -0.071  0.00  0.00    -0.082 HD
BRANCH  10  14
ATOM     14  C   UNL     1     -11.271  -6.458   1.285  0.00  0.00    -0.082 C 
ATOM     15  C   UNL     1     -11.967  -5.171   0.836  0.00  0.00    -0.017 C 
ENDBRANCH  10  14
ENDBRANCH   5   7
BRANCH   4  16
ATOM     16  C   UNL     1      -6.699  -7.193   4.236  0.00  0.00    +0.067 A 
ATOM     17  C   UNL     1      -7.799  -6.351   4.325  0.00  0.00    +0.028 A 
ATOM     18  C   UNL     1      -8.796  -6.615   5.245  0.00  0.00    +0.002 A 
ATOM     19  C   UNL     1      -8.698  -7.716   6.076  0.00  0.00    +0.000 A 
ATOM     20  C   UNL     1      -7.603  -8.556   5.989  0.00  0.00    +0.002 A 
ATOM     21  C   UNL     1      -6.606  -8.301   5.067  0.00  0.00    +0.028 A 
ENDBRANCH   4  16
BRANCH   1  22
ATOM     22  C   UNL     1      -4.346  -6.075   0.007  0.00  0.00    +0.149 C 
BRANCH  22  26
ATOM     23  N   UNL     1      -2.590  -2.849  -0.163  0.00  0.00    -0.299 N 
ATOM     24  C   UNL     1      -2.825  -4.173  -0.071  0.00  0.00    +0.302 C 
ATOM     25  O   UNL     1      -1.895  -4.949   0.033  0.00  0.00    -0.253 OA
ATOM     26  N   UNL     1      -4.091  -4.636  -0.093  0.00  0.00    -0.281 N 
ATOM     27  H   UNL     1      -3.332  -2.229  -0.245  0.00  0.00    +0.150 HD
BRANCH  23  28
ATOM     28  C   UNL     1      -1.215  -2.345  -0.138  0.00  0.00    +0.106 C 
BRANCH  28  29
ATOM     29  C   UNL     1      -1.228  -0.820  -0.257  0.00  0.00    +0.018 C 
BRANCH  29  31
ATOM     30  C   UNL     1       0.196   1.231  -0.351  0.00  0.00    +0.004 C 
ATOM     31  C   UNL     1       0.209  -0.294  -0.232  0.00  0.00    -0.002 C 
ENDBRANCH  29  31
ENDBRANCH  28  29
ENDBRANCH  23  28
BRANCH  26  32
ATOM     32  C   UNL     1      -5.211  -3.700  -0.218  0.00  0.00    +0.110 C 
BRANCH  32  33
ATOM     33  C   UNL     1      -5.453  -3.388  -1.696  0.00  0.00    +0.022 C 
BRANCH  33  34
ATOM     34  C   UNL     1      -6.623  -2.410  -1.826  0.00  0.00    -0.016 C 
ATOM     35  C   UNL     1      -6.244  -1.073  -1.186  0.00  0.00    +0.007 C 
ATOM     36  C   UNL     1      -6.945  -2.194  -3.306  0.00  0.00    +0.007 C 
ENDBRANCH  33  34
ENDBRANCH  32  33
ENDBRANCH  26  32
ENDBRANCH  22  26
ENDBRANCH   1  22
TORSDOF 11
