REMARK  Name = ZINC40391748
REMARK  6 active torsions:
REMARK  status: ('A' for Active; 'I' for Inactive)
REMARK    1  A    between atoms: C_1  and  C_2
REMARK    2  A    between atoms: C_2  and  C_3
REMARK    3  A    between atoms: C_4  and  C_30
REMARK    4  A    between atoms: N_14  and  C_17
REMARK    5  A    between atoms: C_17  and  C_18
REMARK    6  A    between atoms: C_18  and  C_19
REMARK                            x       y       z     vdW  Elec       q    Type
REMARK                         _______ _______ _______ _____ _____    ______ ____
ROOT
ATOM      1  C   UNL     1       0.731  -0.503   1.223  0.00  0.00    +0.073 A 
ATOM      2  C   UNL     1       2.107  -0.751   1.306  0.00  0.00    +0.051 A 
ATOM      3  C   UNL     1       2.372  -1.199   2.602  0.00  0.00    +0.186 A 
ATOM      4  N   UNL     1       3.495  -1.575   3.225  0.00  0.00    -0.128 NA
ATOM      5  N   UNL     1       3.501  -1.960   4.454  0.00  0.00    -0.140 NA
ATOM      6  C   UNL     1       2.371  -2.001   5.172  0.00  0.00    +0.176 A 
ATOM      7  C   UNL     1       1.155  -1.620   4.579  0.00  0.00    +0.102 A 
ATOM      8  N   UNL     1       1.168  -1.212   3.267  0.00  0.00    -0.210 N 
ATOM      9  N   UNL     1       0.182  -0.771   2.382  0.00  0.00    -0.169 NA
ATOM     10  C   UNL     1      -0.021  -1.667   5.341  0.00  0.00    +0.048 A 
ATOM     11  C   UNL     1       0.021  -2.074   6.628  0.00  0.00    +0.091 A 
ATOM     12  N   UNL     1       1.179  -2.450   7.232  0.00  0.00    -0.313 N 
ATOM     13  C   UNL     1       2.355  -2.434   6.570  0.00  0.00    +0.281 A 
ATOM     14  O   UNL     1       3.385  -2.774   7.125  0.00  0.00    -0.265 OA
ENDROOT
BRANCH   2  15
ATOM     15  C   UNL     1       3.098  -0.572   0.219  0.00  0.00    -0.012 A 
ATOM     16  C   UNL     1       3.025  -1.358  -0.931  0.00  0.00    +0.011 A 
ATOM     17  C   UNL     1       3.951  -1.188  -1.940  0.00  0.00    +0.039 A 
ATOM     18  C   UNL     1       4.951  -0.238  -1.812  0.00  0.00    +0.123 A 
ATOM     19  C   UNL     1       5.028   0.545  -0.672  0.00  0.00    +0.039 A 
ATOM     20  C   UNL     1       4.104   0.386   0.340  0.00  0.00    +0.011 A 
ATOM     21  F   UNL     1       5.855  -0.075  -2.803  0.00  0.00    -0.205 F 
ENDBRANCH   2  15
BRANCH   1  23
ATOM     22  C   UNL     1      -0.019   1.526   0.010  0.00  0.00    +0.010 C 
ATOM     23  C   UNL     1       0.002  -0.004   0.002  0.00  0.00    +0.054 C 
ENDBRANCH   1  23
BRANCH  12  24
ATOM     24  C   UNL     1       1.151  -2.880   8.632  0.00  0.00    +0.129 C 
BRANCH  24  25
ATOM     25  C   UNL     1       0.920  -4.392   8.696  0.00  0.00    +0.059 C 
BRANCH  25  26
ATOM     26  C   UNL     1       0.891  -4.835  10.136  0.00  0.00    -0.021 A 
ATOM     27  C   UNL     1       1.925  -5.316  10.845  0.00  0.00    +0.087 A 
ATOM     28  N   UNL     1       1.520  -5.612  12.117  0.00  0.00    -0.360 N 
ATOM     29  H   UNL     1       2.091  -5.973  12.814  0.00  0.00    +0.165 HD
ATOM     30  C   UNL     1       0.181  -5.322  12.263  0.00  0.00    +0.047 A 
ATOM     31  C   UNL     1      -0.269  -4.816  11.030  0.00  0.00    +0.004 A 
ATOM     32  C   UNL     1      -1.602  -4.427  10.881  0.00  0.00    +0.030 A 
ATOM     33  C   UNL     1      -2.467  -4.538  11.947  0.00  0.00    +0.042 A 
ATOM     34  C   UNL     1      -2.020  -5.034  13.165  0.00  0.00    +0.022 A 
ATOM     35  C   UNL     1      -0.710  -5.430  13.325  0.00  0.00    +0.027 A 
ATOM     36 CL   UNL     1      -4.125  -4.055  11.768  0.00  0.00    -0.084 Cl
ENDBRANCH  25  26
ENDBRANCH  24  25
ENDBRANCH  12  24
TORSDOF 5
