REMARK  Name = ZINC01481189
REMARK  10 active torsions:
REMARK  status: ('A' for Active; 'I' for Inactive)
REMARK    1  A    between atoms: C_1  and  C_2
REMARK    2  A    between atoms: C_5  and  C_7
REMARK    3  A    between atoms: C_7  and  C_9
REMARK    4  A    between atoms: C_14  and  C_15
REMARK    5  A    between atoms: C_18  and  O_21
REMARK    6  A    between atoms: O_21  and  C_22
REMARK    7  A    between atoms: C_25  and  C_32
REMARK    8  A    between atoms: C_26  and  C_28
REMARK    9  A    between atoms: C_28  and  O_30
REMARK   10  A    between atoms: O_30  and  C_31
REMARK                            x       y       z     vdW  Elec       q    Type
REMARK                         _______ _______ _______ _____ _____    ______ ____
ROOT
ATOM      1  C   UNL     1       3.325  -3.192   0.018  0.00  0.00    +0.080 C 
ATOM      2  C   UNL     1       4.348  -4.066  -0.128  0.00  0.00    +0.250 C 
ATOM      3  C   UNL     1       5.607  -3.315  -0.296  0.00  0.00    +0.293 C 
ATOM      4  O   UNL     1       6.703  -3.817  -0.450  0.00  0.00    -0.266 OA
ATOM      5  N   UNL     1       5.363  -1.992  -0.255  0.00  0.00    -0.232 N 
ATOM      6  C   UNL     1       3.920  -1.806  -0.061  0.00  0.00    +0.152 C 
ATOM      7  C   UNL     1       6.304  -0.987  -0.378  0.00  0.00    +0.169 A 
ATOM      8  N   UNL     1       7.607  -1.106  -0.562  0.00  0.00    -0.229 NA
ATOM      9  C   UNL     1       8.382  -0.056  -0.661  0.00  0.00    +0.062 A 
ATOM     10  C   UNL     1       7.759   1.182  -0.561  0.00  0.00    +0.120 A 
ATOM     11  S   UNL     1       6.061   0.677  -0.334  0.00  0.00    -0.045 S 
ATOM     12  C   UNL     1       9.869  -0.183  -0.872  0.00  0.00    +0.067 C 
ATOM     13  O   UNL     1       4.235  -5.415  -0.120  0.00  0.00    -0.282 OA
ENDROOT
BRANCH   6  14
ATOM     14  C   UNL     1       3.665  -1.058   1.221  0.00  0.00    -0.022 A 
ATOM     15  C   UNL     1       4.376  -1.381   2.362  0.00  0.00    +0.009 A 
ATOM     16  C   UNL     1       4.143  -0.697   3.540  0.00  0.00    +0.046 A 
ATOM     17  C   UNL     1       3.195   0.316   3.576  0.00  0.00    +0.120 A 
ATOM     18  C   UNL     1       2.483   0.638   2.430  0.00  0.00    +0.046 A 
ATOM     19  C   UNL     1       2.724  -0.045   1.254  0.00  0.00    +0.009 A 
BRANCH  17  20
ATOM     20  O   UNL     1       2.964   0.990   4.734  0.00  0.00    -0.495 OA
ATOM     21  C   UNL     1       1.974   2.020   4.697  0.00  0.00    +0.277 C 
ENDBRANCH  17  20
ENDBRANCH   6  14
BRANCH   1  22
ATOM     22  C   UNL     1       1.909  -3.527   0.210  0.00  0.00    +0.230 C 
ATOM     23  O   UNL     1       1.548  -4.087   1.230  0.00  0.00    -0.283 OA
BRANCH  22  28
ATOM     24  C   UNL     1      -0.095  -1.655  -3.979  0.00  0.00    +0.086 C 
ATOM     25  C   UNL     1       0.042  -2.369  -2.660  0.00  0.00    +0.103 A 
ATOM     26  C   UNL     1      -0.957  -2.997  -1.998  0.00  0.00    +0.045 A 
ATOM     27  C   UNL     1      -0.407  -3.526  -0.822  0.00  0.00    +0.053 A 
ATOM     28  C   UNL     1       0.929  -3.187  -0.826  0.00  0.00    +0.175 A 
ATOM     29  O   UNL     1       1.175  -2.491  -1.955  0.00  0.00    -0.457 OA
ENDBRANCH  22  28
ENDBRANCH   1  22
BRANCH  10  30
ATOM     30  C   UNL     1       8.333   2.524  -0.629  0.00  0.00    +0.347 C 
ATOM     31  O   UNL     1       9.530   2.666  -0.796  0.00  0.00    -0.244 OA
BRANCH  30  32
ATOM     32  O   UNL     1       7.536   3.606  -0.506  0.00  0.00    -0.464 OA
ATOM     33  C   UNL     1       8.165   4.887  -0.581  0.00  0.00    +0.280 C 
ENDBRANCH  30  32
ENDBRANCH  10  30
TORSDOF 6
