REMARK  Name = ZINC04720557
REMARK  11 active torsions:
REMARK  status: ('A' for Active; 'I' for Inactive)
REMARK    1  A    between atoms: C_1  and  C_2
REMARK    2  A    between atoms: C_2  and  C_4
REMARK    3  A    between atoms: C_2  and  N_16
REMARK    4  A    between atoms: N_16  and  C_17
REMARK    5  A    between atoms: C_17  and  C_18
REMARK    6  A    between atoms: C_18  and  C_19
REMARK    7  A    between atoms: C_19  and  C_20
REMARK    8  A    between atoms: C_20  and  C_21
REMARK    9  A    between atoms: C_21  and  C_22
REMARK   10  A    between atoms: C_22  and  N_23
REMARK   11  A    between atoms: C_24  and  C_26
REMARK                            x       y       z     vdW  Elec       q    Type
REMARK                         _______ _______ _______ _____ _____    ______ ____
ROOT
ATOM      1  N   UNL     1       0.832  -0.976  -1.143  0.00  0.00    -0.288 N 
ATOM      2  C   UNL     1       1.871  -0.218  -1.547  0.00  0.00    +0.247 C 
ATOM      3  O   UNL     1       2.099  -0.081  -2.733  0.00  0.00    -0.270 OA
ENDROOT
BRANCH   2   4
ATOM      4  C   UNL     1       2.733   0.447  -0.546  0.00  0.00    +0.038 A 
ATOM      5  C   UNL     1       2.190   0.896   0.659  0.00  0.00    +0.013 A 
ATOM      6  C   UNL     1       2.999   1.515   1.589  0.00  0.00    +0.002 A 
ATOM      7  C   UNL     1       4.347   1.692   1.329  0.00  0.00    +0.020 A 
ATOM      8  C   UNL     1       4.892   1.250   0.136  0.00  0.00    +0.042 A 
ATOM      9  C   UNL     1       4.094   0.623  -0.801  0.00  0.00    +0.033 A 
ATOM     10 CL   UNL     1       6.584   1.477  -0.180  0.00  0.00    -0.084 Cl
ENDBRANCH   2   4
BRANCH   1  12
ATOM     11  C   UNL     1      -0.332   0.832   0.022  0.00  0.00    +0.036 C 
ATOM     12  C   UNL     1       0.107  -0.632   0.082  0.00  0.00    +0.139 C 
BRANCH  12  13
ATOM     13  C   UNL     1       1.007  -0.838   1.273  0.00  0.00    +0.131 A 
ATOM     14  N   UNL     1       0.546  -0.479   2.499  0.00  0.00    -0.309 N 
ATOM     15  H   UNL     1      -0.343  -0.101   2.587  0.00  0.00    +0.170 HD
ATOM     16  C   UNL     1       1.315  -0.644   3.600  0.00  0.00    +0.259 A 
ATOM     17  O   UNL     1       0.915  -0.327   4.705  0.00  0.00    -0.267 OA
ATOM     18  C   UNL     1       2.655  -1.221   3.410  0.00  0.00    +0.065 A 
ATOM     19  C   UNL     1       3.525  -1.432   4.478  0.00  0.00    +0.015 A 
ATOM     20  C   UNL     1       4.769  -1.976   4.242  0.00  0.00    +0.001 A 
ATOM     21  C   UNL     1       5.159  -2.314   2.953  0.00  0.00    +0.002 A 
ATOM     22  C   UNL     1       4.314  -2.114   1.885  0.00  0.00    +0.028 A 
ATOM     23  C   UNL     1       3.048  -1.564   2.098  0.00  0.00    +0.078 A 
ATOM     24  N   UNL     1       2.182  -1.355   1.075  0.00  0.00    -0.232 NA
ENDBRANCH  12  13
ENDBRANCH   1  12
BRANCH   1  25
ATOM     25  C   UNL     1       0.428  -2.143  -1.931  0.00  0.00    +0.109 C 
BRANCH  25  26
ATOM     26  C   UNL     1      -0.613  -1.722  -2.970  0.00  0.00    +0.019 C 
BRANCH  26  27
ATOM     27  C   UNL     1      -1.035  -2.942  -3.792  0.00  0.00    +0.001 C 
BRANCH  27  28
ATOM     28  C   UNL     1      -2.077  -2.520  -4.831  0.00  0.00    -0.002 C 
BRANCH  28  29
ATOM     29  C   UNL     1      -2.499  -3.740  -5.653  0.00  0.00    -0.020 C 
BRANCH  29  30
ATOM     30  C   UNL     1      -3.540  -3.318  -6.692  0.00  0.00    -0.086 C 
BRANCH  30  31
ATOM     31  N   UNL     1      -3.945  -4.489  -7.482  0.00  0.00    +0.378 N 
ATOM     32  H   UNL     1      -4.632  -4.211  -8.167  0.00  0.00    -0.090 HD
ATOM     33  H   UNL     1      -3.139  -4.874  -7.950  0.00  0.00    -0.090 HD
ATOM     34  H   UNL     1      -4.343  -5.186  -6.870  0.00  0.00    -0.090 HD
ENDBRANCH  30  31
ENDBRANCH  29  30
ENDBRANCH  28  29
ENDBRANCH  27  28
ENDBRANCH  26  27
ENDBRANCH  25  26
ENDBRANCH   1  25
TORSDOF 10
