REMARK  Name = ZINC36072477
REMARK  12 active torsions:
REMARK  status: ('A' for Active; 'I' for Inactive)
REMARK    1  A    between atoms: C_1  and  C_2
REMARK    2  A    between atoms: C_2  and  O_3
REMARK    3  A    between atoms: O_3  and  C_4
REMARK    4  A    between atoms: C_4  and  C_6
REMARK    5  A    between atoms: C_13  and  C_15
REMARK    6  A    between atoms: C_18  and  C_20
REMARK    7  A    between atoms: C_20  and  N_21
REMARK    8  A    between atoms: N_21  and  C_22
REMARK    9  A    between atoms: N_21  and  C_30
REMARK   10  A    between atoms: C_22  and  C_23
REMARK   11  A    between atoms: C_30  and  C_31
REMARK   12  A    between atoms: C_36  and  C_37
REMARK                            x       y       z     vdW  Elec       q    Type
REMARK                         _______ _______ _______ _____ _____    ______ ____
ROOT
ATOM      1  C   UNL     1      -9.183  -5.485  -0.732  0.00  0.00    +0.020 C 
ENDROOT
BRANCH   1   5
ATOM      2  C   UNL     1      -8.042  -2.109  -0.080  0.00  0.00    +0.164 A 
ATOM      3  C   UNL     1      -9.212  -1.852  -0.726  0.00  0.00    +0.230 A 
ATOM      4  O   UNL     1      -9.758  -3.039  -1.036  0.00  0.00    -0.449 OA
ATOM      5  C   UNL     1      -8.942  -4.004  -0.590  0.00  0.00    +0.179 A 
ATOM      6  N   UNL     1      -7.908  -3.462  -0.020  0.00  0.00    -0.210 NA
BRANCH   2  13
ATOM      7  C   UNL     1      -4.838  -0.631   3.120  0.00  0.00    +0.115 C 
ATOM      8  C   UNL     1      -4.536  -2.079   3.512  0.00  0.00    +0.018 C 
ATOM      9  C   UNL     1      -5.709  -2.974   3.108  0.00  0.00    +0.020 C 
ATOM     10  C   UNL     1      -5.893  -2.913   1.589  0.00  0.00    +0.108 C 
ATOM     11  N   UNL     1      -6.039  -1.508   1.186  0.00  0.00    -0.295 N 
ATOM     12  C   UNL     1      -5.012  -0.543   1.601  0.00  0.00    +0.122 C 
ATOM     13  C   UNL     1      -7.096  -1.111   0.450  0.00  0.00    +0.268 C 
ATOM     14  O   UNL     1      -7.269   0.071   0.223  0.00  0.00    -0.268 OA
BRANCH   7  15
ATOM     15  C   UNL     1      -3.695   0.254   3.548  0.00  0.00    +0.312 C 
ATOM     16  O   UNL     1      -2.738  -0.223   4.110  0.00  0.00    -0.250 OA
BRANCH  15  17
ATOM     17  O   UNL     1      -3.741   1.573   3.304  0.00  0.00    -0.465 OA
BRANCH  17  19
ATOM     18  C   UNL     1      -2.855   3.821   3.375  0.00  0.00    +0.048 C 
ATOM     19  C   UNL     1      -2.624   2.352   3.737  0.00  0.00    +0.229 C 
ENDBRANCH  17  19
ENDBRANCH  15  17
ENDBRANCH   7  15
ENDBRANCH   2  13
ENDBRANCH   1   5
BRANCH   1  20
ATOM     20  N   UNL     1      -9.933  -5.973   0.433  0.00  0.00    +0.391 N 
ATOM     21  H   UNL     1      -9.440  -5.725   1.278  0.00  0.00    -0.080 HD
BRANCH  20  22
ATOM     22  C   UNL     1     -10.064  -7.434   0.354  0.00  0.00    -0.042 C 
BRANCH  22  23
ATOM     23  C   UNL     1      -8.711  -8.071   0.540  0.00  0.00    -0.064 A 
ATOM     24  C   UNL     1      -7.956  -8.425  -0.563  0.00  0.00    +0.004 A 
ATOM     25  C   UNL     1      -6.715  -9.008  -0.394  0.00  0.00    +0.038 A 
ATOM     26  C   UNL     1      -6.228  -9.239   0.881  0.00  0.00    +0.123 A 
ATOM     27  C   UNL     1      -6.984  -8.885   1.986  0.00  0.00    +0.038 A 
ATOM     28  C   UNL     1      -8.223  -8.296   1.814  0.00  0.00    +0.004 A 
ATOM     29  F   UNL     1      -5.015  -9.810   1.048  0.00  0.00    -0.205 F 
ENDBRANCH  22  23
ENDBRANCH  20  22
BRANCH  20  30
ATOM     30  C   UNL     1     -11.268  -5.362   0.448  0.00  0.00    -0.042 C 
BRANCH  30  31
ATOM     31  C   UNL     1     -11.971  -5.720   1.732  0.00  0.00    -0.061 A 
ATOM     32  C   UNL     1     -12.967  -6.678   1.731  0.00  0.00    +0.002 A 
ATOM     33  C   UNL     1     -13.611  -7.007   2.908  0.00  0.00    +0.000 A 
ATOM     34  C   UNL     1     -13.259  -6.378   4.088  0.00  0.00    +0.000 A 
ATOM     35  C   UNL     1     -12.263  -5.420   4.089  0.00  0.00    +0.003 A 
ATOM     36  C   UNL     1     -11.615  -5.094   2.912  0.00  0.00    -0.049 A 
ATOM     37  C   UNL     1     -10.525  -4.054   2.915  0.00  0.00    +0.044 C 
ENDBRANCH  30  31
ENDBRANCH  20  30
ENDBRANCH   1  20
TORSDOF 10
