REMARK  Name = ZINC35404120
REMARK  11 active torsions:
REMARK  status: ('A' for Active; 'I' for Inactive)
REMARK    1  A    between atoms: C_1  and  C_2
REMARK    2  A    between atoms: C_2  and  C_3
REMARK    3  A    between atoms: C_2  and  C_4
REMARK    4  A    between atoms: C_4  and  N_5
REMARK    5  A    between atoms: N_5  and  C_6
REMARK    6  A    between atoms: C_6  and  C_7
REMARK    7  A    between atoms: C_12  and  C_15
REMARK    8  A    between atoms: C_15  and  C_16
REMARK    9  A    between atoms: N_18  and  C_19
REMARK   10  A    between atoms: C_19  and  C_20
REMARK   11  A    between atoms: C_29  and  C_31
REMARK                            x       y       z     vdW  Elec       q    Type
REMARK                         _______ _______ _______ _____ _____    ______ ____
ROOT
ATOM      1  C   UNL     1      -0.545  -2.158   3.499  0.00  0.00    +0.236 C 
ATOM      2  O   UNL     1       0.662  -2.267   3.537  0.00  0.00    -0.274 OA
ATOM      3  N   UNL     1      -1.325  -3.100   4.067  0.00  0.00    -0.263 N 
ATOM      4  C   UNL     1      -0.745  -4.195   4.697  0.00  0.00    +0.165 A 
ATOM      5  N   UNL     1      -1.340  -5.204   5.295  0.00  0.00    -0.229 NA
ATOM      6  C   UNL     1      -0.642  -6.177   5.851  0.00  0.00    +0.059 A 
ATOM      7  C   UNL     1       0.709  -6.085   5.776  0.00  0.00    +0.072 A 
ATOM      8  S   UNL     1       0.890  -4.556   4.873  0.00  0.00    -0.060 S 
ATOM      9  H   UNL     1      -2.290  -3.013   4.037  0.00  0.00    +0.157 HD
ENDROOT
BRANCH   1  10
ATOM     10  C   UNL     1      -1.174  -0.971   2.817  0.00  0.00    +0.204 C 
BRANCH  10  11
ATOM     11  N   UNL     1      -0.123  -0.101   2.285  0.00  0.00    -0.288 N 
ATOM     12  C   UNL     1       0.238   1.010   2.958  0.00  0.00    +0.247 C 
ATOM     13  O   UNL     1       1.086   1.750   2.499  0.00  0.00    -0.270 OA
BRANCH  12  14
ATOM     14  C   UNL     1      -0.397   1.327   4.255  0.00  0.00    +0.037 A 
ATOM     15  C   UNL     1      -0.992   0.315   5.010  0.00  0.00    +0.013 A 
ATOM     16  C   UNL     1      -1.583   0.618   6.220  0.00  0.00    +0.001 A 
ATOM     17  C   UNL     1      -1.587   1.922   6.684  0.00  0.00    +0.000 A 
ATOM     18  C   UNL     1      -1.000   2.930   5.939  0.00  0.00    +0.001 A 
ATOM     19  C   UNL     1      -0.400   2.639   4.731  0.00  0.00    +0.013 A 
ENDBRANCH  12  14
BRANCH  11  20
ATOM     20  C   UNL     1       0.536  -0.437   1.020  0.00  0.00    +0.111 C 
BRANCH  20  22
ATOM     21  C   UNL     1      -0.322   1.620  -0.109  0.00  0.00    +0.009 C 
ATOM     22  C   UNL     1      -0.301   0.090  -0.147  0.00  0.00    +0.000 C 
ATOM     23  C   UNL     1       0.314  -0.379  -1.468  0.00  0.00    +0.009 C 
ENDBRANCH  20  22
ENDBRANCH  11  20
ENDBRANCH  10  11
ENDBRANCH   1  10
BRANCH   6  24
ATOM     24  C   UNL     1      -1.315  -7.336   6.538  0.00  0.00    +0.151 C 
BRANCH  24  25
ATOM     25  C   UNL     1      -2.253  -6.817   7.597  0.00  0.00    +0.219 C 
ATOM     26  O   UNL     1      -2.363  -5.622   7.776  0.00  0.00    -0.275 OA
ATOM     27  N   UNL     1      -2.969  -7.679   8.345  0.00  0.00    -0.311 N 
ATOM     28  H   UNL     1      -2.881  -8.634   8.202  0.00  0.00    +0.149 HD
BRANCH  27  29
ATOM     29  C   UNL     1      -3.881  -7.174   9.375  0.00  0.00    +0.139 C 
BRANCH  29  30
ATOM     30  C   UNL     1      -4.554  -8.334  10.062  0.00  0.00    -0.027 A 
ATOM     31  C   UNL     1      -5.747  -8.829   9.569  0.00  0.00    +0.009 A 
ATOM     32  C   UNL     1      -6.369  -9.893  10.196  0.00  0.00    +0.050 A 
ATOM     33  C   UNL     1      -5.797 -10.465  11.321  0.00  0.00    +0.166 A 
ATOM     34  C   UNL     1      -4.596  -9.966  11.818  0.00  0.00    +0.167 A 
ATOM     35  C   UNL     1      -3.975  -8.903  11.181  0.00  0.00    +0.054 A 
ATOM     36  O   UNL     1      -4.244 -10.691  12.919  0.00  0.00    -0.453 OA
ATOM     37  C   UNL     1      -5.445 -11.371  13.331  0.00  0.00    +0.466 C 
ATOM     38  O   UNL     1      -6.198 -11.503  12.111  0.00  0.00    -0.453 OA
ENDBRANCH  29  30
ENDBRANCH  27  29
ENDBRANCH  24  25
ENDBRANCH   6  24
TORSDOF 9
