REMARK  Name = ZINC20848926
REMARK  12 active torsions:
REMARK  status: ('A' for Active; 'I' for Inactive)
REMARK    1  A    between atoms: C_1  and  C_2
REMARK    2  A    between atoms: C_2  and  O_3
REMARK    3  A    between atoms: O_3  and  C_4
REMARK    4  A    between atoms: C_7  and  C_10
REMARK    5  A    between atoms: C_12  and  C_30
REMARK    6  A    between atoms: C_13  and  C_18
REMARK    7  A    between atoms: C_18  and  S_19
REMARK    8  A    between atoms: S_19  and  C_22
REMARK    9  A    between atoms: C_24  and  C_29
REMARK   10  A    between atoms: C_27  and  C_28
REMARK   11  A    between atoms: C_30  and  O_32
REMARK   12  A    between atoms: O_32  and  C_33
REMARK                            x       y       z     vdW  Elec       q    Type
REMARK                         _______ _______ _______ _____ _____    ______ ____
ROOT
ATOM      1  C   UNL     1      -1.730  -5.925   0.069  0.00  0.00    +0.144 C 
ATOM      2  C   UNL     1      -1.946  -6.443  -1.338  0.00  0.00    +0.080 C 
ATOM      3  C   UNL     1      -1.234  -7.521  -1.728  0.00  0.00    +0.045 C 
ATOM      4  N   UNL     1      -0.347  -8.123  -0.882  0.00  0.00    -0.271 N 
ATOM      5  C   UNL     1      -0.116  -7.707   0.370  0.00  0.00    +0.304 C 
ATOM      6  O   UNL     1       0.694  -8.308   1.049  0.00  0.00    -0.252 OA
ATOM      7  N   UNL     1      -0.752  -6.644   0.901  0.00  0.00    -0.288 N 
ATOM      8  H   UNL     1       0.225  -9.000  -1.218  0.00  0.00    +0.156 HD
ATOM      9  H   UNL     1      -0.555  -6.311   1.931  0.00  0.00    +0.151 HD
ENDROOT
BRANCH   1  13
ATOM     10  C   UNL     1      -0.478  -1.848  -0.207  0.00  0.00    +0.121 A 
ATOM     11  C   UNL     1       0.449  -2.870  -0.346  0.00  0.00    +0.046 A 
ATOM     12  C   UNL     1       0.043  -4.187  -0.251  0.00  0.00    +0.009 A 
ATOM     13  C   UNL     1      -1.288  -4.487  -0.028  0.00  0.00    -0.022 A 
ATOM     14  C   UNL     1      -2.215  -3.470   0.105  0.00  0.00    +0.009 A 
ATOM     15  C   UNL     1      -1.813  -2.151   0.016  0.00  0.00    +0.046 A 
BRANCH  10  16
ATOM     16  O   UNL     1      -0.080  -0.551  -0.294  0.00  0.00    -0.492 OA
BRANCH  16  18
ATOM     17  C   UNL     1       1.566   1.193  -0.594  0.00  0.00    +0.048 C 
ATOM     18  C   UNL     1       1.310  -0.314  -0.525  0.00  0.00    +0.225 C 
ENDBRANCH  16  18
ENDBRANCH  10  16
ENDBRANCH   1  13
BRANCH   2  19
ATOM     19  C   UNL     1      -2.865  -5.819  -2.214  0.00  0.00    +0.339 C 
ATOM     20  O   UNL     1      -2.920  -6.159  -3.381  0.00  0.00    -0.245 OA
BRANCH  19  21
ATOM     21  O   UNL     1      -3.680  -4.846  -1.756  0.00  0.00    -0.465 OA
ATOM     22  C   UNL     1      -4.582  -4.259  -2.696  0.00  0.00    +0.280 C 
ENDBRANCH  19  21
ENDBRANCH   2  19
BRANCH   3  23
ATOM     23  C   UNL     1      -1.421  -8.070  -3.119  0.00  0.00    +0.223 C 
BRANCH  23  24
ATOM     24  S   UNL     1      -0.076  -7.484  -4.186  0.00  0.00    +0.002 S 
ATOM     25  O   UNL     1      -0.186  -6.081  -4.385  0.00  0.00    -0.169 OA
ATOM     26  O   UNL     1       1.157  -8.064  -3.783  0.00  0.00    -0.169 OA
BRANCH  24  27
ATOM     27  C   UNL     1      -0.410  -8.190  -5.765  0.00  0.00    +0.092 A 
ATOM     28  C   UNL     1      -0.723  -7.372  -6.835  0.00  0.00    +0.030 A 
ATOM     29  C   UNL     1      -0.981  -7.926  -8.075  0.00  0.00    -0.049 A 
ATOM     30  C   UNL     1      -0.935  -9.297  -8.243  0.00  0.00    +0.004 A 
ATOM     31  C   UNL     1      -0.627 -10.115  -7.172  0.00  0.00    +0.005 A 
ATOM     32  C   UNL     1      -0.365  -9.561  -5.933  0.00  0.00    -0.026 A 
ATOM     33  C   UNL     1      -0.029 -10.452  -4.765  0.00  0.00    +0.046 C 
ATOM     34  C   UNL     1      -1.318  -7.035  -9.243  0.00  0.00    +0.044 C 
ENDBRANCH  24  27
ENDBRANCH  23  24
ENDBRANCH   3  23
TORSDOF 8
