REMARK  Name = ZINC36142320
REMARK  6 active torsions:
REMARK  status: ('A' for Active; 'I' for Inactive)
REMARK    1  A    between atoms: C_1  and  C_2
REMARK    2  A    between atoms: C_2  and  C_3
REMARK    3  A    between atoms: C_12  and  C_13
REMARK    4  A    between atoms: C_12  and  N_17
REMARK    5  A    between atoms: C_13  and  O_15
REMARK    6  A    between atoms: O_15  and  C_16
REMARK                            x       y       z     vdW  Elec       q    Type
REMARK                         _______ _______ _______ _____ _____    ______ ____
ROOT
ATOM      1  C   UNL     1       0.707  -0.490  -1.238  0.00  0.00    -0.006 A 
ATOM      2  C   UNL     1      -0.024  -0.816  -2.362  0.00  0.00    +0.007 A 
ATOM      3  C   UNL     1       0.622  -1.261  -3.501  0.00  0.00    +0.001 A 
ATOM      4  C   UNL     1       1.998  -1.377  -3.513  0.00  0.00    +0.009 A 
ATOM      5  C   UNL     1       2.737  -1.052  -2.388  0.00  0.00    +0.025 A 
ATOM      6  C   UNL     1       2.094  -0.603  -1.247  0.00  0.00    +0.129 A 
ATOM      7  O   UNL     1       2.779  -0.278  -0.120  0.00  0.00    -0.491 OA
ATOM      8  C   UNL     1       4.182  -0.039  -0.237  0.00  0.00    +0.232 C 
ATOM      9  C   UNL     1       4.807  -1.198  -1.024  0.00  0.00    +0.079 C 
ATOM     10  C   UNL     1       4.238  -1.188  -2.441  0.00  0.00    +0.147 C 
ENDROOT
BRANCH  10  11
ATOM     11  N   UNL     1       4.806  -0.046  -3.171  0.00  0.00    -0.312 NA
ATOM     12  H   UNL     1       5.812  -0.114  -3.220  0.00  0.00    +0.120 HD
ATOM     13  H   UNL     1       4.403   0.031  -4.092  0.00  0.00    +0.120 HD
ENDBRANCH  10  11
BRANCH   1  15
ATOM     14  C   UNL     1      -0.019   1.526   0.010  0.00  0.00    +0.009 C 
ATOM     15  C   UNL     1       0.002  -0.004   0.002  0.00  0.00    +0.035 C 
ENDBRANCH   1  15
BRANCH  10  16
ATOM     16  C   UNL     1       4.601  -2.467  -3.151  0.00  0.00    +0.332 C 
ATOM     17  O   UNL     1       3.820  -3.389  -3.171  0.00  0.00    -0.248 OA
BRANCH  16  18
ATOM     18  O   UNL     1       5.791  -2.582  -3.760  0.00  0.00    -0.466 OA
ATOM     19  C   UNL     1       6.069  -3.822  -4.413  0.00  0.00    +0.280 C 
ENDBRANCH  16  18
ENDBRANCH  10  16
TORSDOF 4
