REMARK  Name = ZINC39896261
REMARK  10 active torsions:
REMARK  status: ('A' for Active; 'I' for Inactive)
REMARK    1  A    between atoms: C_1  and  C_2
REMARK    2  A    between atoms: C_2  and  C_3
REMARK    3  A    between atoms: C_2  and  C_4
REMARK    4  A    between atoms: C_7  and  N_10
REMARK    5  A    between atoms: C_13  and  C_26
REMARK    6  A    between atoms: C_17  and  C_18
REMARK    7  A    between atoms: C_17  and  C_20
REMARK    8  A    between atoms: N_22  and  C_23
REMARK    9  A    between atoms: C_23  and  C_24
REMARK   10  A    between atoms: C_26  and  C_27
REMARK                            x       y       z     vdW  Elec       q    Type
REMARK                         _______ _______ _______ _____ _____    ______ ____
ROOT
ATOM      1  N   UNL     1      -5.341  -1.919   0.017  0.00  0.00    -0.232 N 
ATOM      2  C   UNL     1      -6.098  -1.676   1.073  0.00  0.00    +0.238 C 
ATOM      3  O   UNL     1      -5.708  -1.008   2.007  0.00  0.00    -0.274 OA
ATOM      4  C   UNL     1      -7.490  -2.288   1.042  0.00  0.00    +0.143 C 
ATOM      5  S   UNL     1      -7.436  -3.139  -0.589  0.00  0.00    -0.095 S 
ATOM      6  C   UNL     1      -5.774  -2.670  -1.048  0.00  0.00    +0.098 C 
ATOM      7  C   UNL     1      -5.079  -2.991  -2.215  0.00  0.00    +0.141 C 
ENDROOT
BRANCH   1  11
ATOM      8  C   UNL     1      -1.489  -0.330  -0.091  0.00  0.00    -0.045 A 
ATOM      9  C   UNL     1      -1.729  -1.512   0.585  0.00  0.00    +0.006 A 
ATOM     10  C   UNL     1      -3.004  -2.041   0.622  0.00  0.00    +0.024 A 
ATOM     11  C   UNL     1      -4.046  -1.385  -0.019  0.00  0.00    +0.042 A 
ATOM     12  C   UNL     1      -3.802  -0.197  -0.696  0.00  0.00    +0.024 A 
ATOM     13  C   UNL     1      -2.526   0.330  -0.726  0.00  0.00    +0.006 A 
BRANCH   8  15
ATOM     14  C   UNL     1       0.381   0.524   1.296  0.00  0.00    +0.012 C 
ATOM     15  C   UNL     1      -0.096   0.245  -0.131  0.00  0.00    +0.013 C 
ATOM     16  C   UNL     1       0.849  -0.756  -0.798  0.00  0.00    +0.012 C 
ENDBRANCH   8  15
ENDBRANCH   1  11
BRANCH   7  17
ATOM     17  C   UNL     1      -3.662  -2.652  -2.339  0.00  0.00    +0.257 C 
ATOM     18  O   UNL     1      -3.330  -1.614  -2.881  0.00  0.00    -0.269 OA
ATOM     19  N   UNL     1      -2.724  -3.489  -1.853  0.00  0.00    -0.307 N 
ATOM     20  H   UNL     1      -2.989  -4.316  -1.421  0.00  0.00    +0.149 HD
BRANCH  19  21
ATOM     21  C   UNL     1      -1.304  -3.150  -1.977  0.00  0.00    +0.131 C 
BRANCH  21  22
ATOM     22  C   UNL     1      -0.471  -4.242  -1.359  0.00  0.00    -0.016 C 
ATOM     23  C   UNL     1       0.466  -4.829  -2.061  0.00  0.00    +0.005 C 
ENDBRANCH  21  22
ENDBRANCH  19  21
ENDBRANCH   7  17
BRANCH   7  24
ATOM     24  C   UNL     1      -5.754  -3.653  -3.291  0.00  0.00    +0.107 C 
ATOM     25  N   UNL     1      -6.289  -4.178  -4.144  0.00  0.00    -0.191 NA
ENDBRANCH   7  24
BRANCH   4  26
ATOM     26  C   UNL     1      -7.683  -3.287   2.184  0.00  0.00    +0.059 C 
BRANCH  26  27
ATOM     27  C   UNL     1      -9.109  -3.775   2.190  0.00  0.00    -0.043 A 
ATOM     28  C   UNL     1     -10.068  -3.099   2.920  0.00  0.00    +0.023 A 
ATOM     29  C   UNL     1     -11.377  -3.547   2.925  0.00  0.00    +0.043 A 
ATOM     30  C   UNL     1     -11.726  -4.671   2.199  0.00  0.00    +0.040 A 
ATOM     31  C   UNL     1     -10.766  -5.347   1.468  0.00  0.00    +0.043 A 
ATOM     32  C   UNL     1      -9.458  -4.895   1.459  0.00  0.00    +0.023 A 
ATOM     33 CL   UNL     1     -11.203  -6.759   0.557  0.00  0.00    -0.083 Cl
ATOM     34 CL   UNL     1     -12.581  -2.698   3.844  0.00  0.00    -0.083 Cl
ENDBRANCH  26  27
ENDBRANCH   4  26
TORSDOF 8
