REMARK  Name = ZINC03441916
REMARK  8 active torsions:
REMARK  status: ('A' for Active; 'I' for Inactive)
REMARK    1  A    between atoms: C_1  and  C_2
REMARK    2  A    between atoms: C_5  and  C_8
REMARK    3  A    between atoms: C_10  and  C_13
REMARK    4  A    between atoms: C_13  and  S_14
REMARK    5  A    between atoms: S_14  and  C_15
REMARK    6  A    between atoms: N_25  and  C_26
REMARK    7  A    between atoms: C_26  and  C_27
REMARK    8  A    between atoms: C_27  and  O_28
REMARK                            x       y       z     vdW  Elec       q    Type
REMARK                         _______ _______ _______ _____ _____    ______ ____
ROOT
ATOM      1  C   UNL     1      -1.419  -8.823   3.832  0.00  0.00    +0.173 A 
ATOM      2  N   UNL     1      -0.209  -9.121   4.236  0.00  0.00    -0.223 NA
ATOM      3  C   UNL     1       0.004  -9.947   5.280  0.00  0.00    +0.079 A 
ATOM      4  C   UNL     1       1.296 -10.264   5.711  0.00  0.00    +0.028 A 
ATOM      5  C   UNL     1       1.466 -11.106   6.774  0.00  0.00    +0.002 A 
ATOM      6  C   UNL     1       0.373 -11.654   7.434  0.00  0.00    +0.001 A 
ATOM      7  C   UNL     1      -0.902 -11.362   7.035  0.00  0.00    +0.015 A 
ATOM      8  C   UNL     1      -1.105 -10.506   5.954  0.00  0.00    +0.065 A 
ATOM      9  C   UNL     1      -2.452 -10.157   5.482  0.00  0.00    +0.262 A 
ATOM     10  O   UNL     1      -3.446 -10.606   6.022  0.00  0.00    -0.267 OA
ATOM     11  N   UNL     1      -2.546  -9.313   4.428  0.00  0.00    -0.285 N 
ENDROOT
BRANCH   1  12
ATOM     12  S   UNL     1      -1.603  -7.734   2.459  0.00  0.00    -0.081 S 
BRANCH  12  13
ATOM     13  C   UNL     1       0.102  -7.334   1.986  0.00  0.00    +0.133 C 
BRANCH  13  16
ATOM     14  C   UNL     1       0.061  -4.251  -0.021  0.00  0.00    +0.109 A 
ATOM     15  N   UNL     1       0.072  -5.098   0.998  0.00  0.00    -0.243 NA
ATOM     16  C   UNL     1       0.089  -6.396   0.806  0.00  0.00    +0.059 A 
ATOM     17  C   UNL     1       0.097  -6.894  -0.459  0.00  0.00    +0.071 A 
ATOM     18  S   UNL     1       0.068  -5.379  -1.409  0.00  0.00    -0.075 S 
BRANCH  14  23
ATOM     19  C   UNL     1      -0.018   1.503   0.010  0.00  0.00    +0.044 C 
ATOM     20  C   UNL     1       0.002  -0.004   0.002  0.00  0.00    -0.050 A 
ATOM     21  C   UNL     1       0.006  -0.686  -1.202  0.00  0.00    +0.004 A 
ATOM     22  C   UNL     1       0.025  -2.066  -1.216  0.00  0.00    +0.011 A 
ATOM     23  C   UNL     1       0.041  -2.773  -0.013  0.00  0.00    +0.007 A 
ATOM     24  C   UNL     1       0.037  -2.079   1.197  0.00  0.00    +0.011 A 
ATOM     25  C   UNL     1       0.023  -0.699   1.198  0.00  0.00    +0.004 A 
ENDBRANCH  14  23
ENDBRANCH  13  16
ENDBRANCH  12  13
ENDBRANCH   1  12
BRANCH  11  26
ATOM     26  C   UNL     1      -3.865  -8.928   3.921  0.00  0.00    +0.155 C 
BRANCH  26  27
ATOM     27  C   UNL     1      -4.308  -9.922   2.846  0.00  0.00    +0.177 C 
BRANCH  27  28
ATOM     28  O   UNL     1      -4.492 -11.210   3.436  0.00  0.00    -0.393 OA
ATOM     29  H   UNL     1      -4.775 -11.892   2.811  0.00  0.00    +0.209 HD
ENDBRANCH  27  28
ENDBRANCH  26  27
ENDBRANCH  11  26
TORSDOF 7
