REMARK  Name = ZINC62238666
REMARK  6 active torsions:
REMARK  status: ('A' for Active; 'I' for Inactive)
REMARK    1  A    between atoms: C_6  and  N_7
REMARK    2  A    between atoms: C_8  and  C_14
REMARK    3  A    between atoms: C_9  and  C_12
REMARK    4  A    between atoms: C_12  and  N_13
REMARK    5  A    between atoms: C_14  and  C_15
REMARK    6  A    between atoms: C_15  and  C_16
REMARK                            x       y       z     vdW  Elec       q    Type
REMARK                         _______ _______ _______ _____ _____    ______ ____
ROOT
ATOM      1  N   UNL     1      -1.142  -0.843   0.158  0.00  0.00    -0.217 N 
ATOM      2  C   UNL     1      -1.458  -1.853  -0.696  0.00  0.00    +0.066 A 
ATOM      3  C   UNL     1      -2.784  -2.078  -0.536  0.00  0.00    +0.069 A 
ATOM      4  N   UNL     1      -3.207  -1.212   0.391  0.00  0.00    -0.136 NA
ATOM      5  N   UNL     1      -2.212  -0.499   0.785  0.00  0.00    -0.060 NA
ENDROOT
BRANCH   1  11
ATOM      6  C   UNL     1       0.911   0.027  -0.777  0.00  0.00    +0.030 A 
ATOM      7  C   UNL     1       2.163   0.584  -0.606  0.00  0.00    +0.040 A 
ATOM      8  C   UNL     1       2.641   0.838   0.669  0.00  0.00    +0.124 A 
ATOM      9  C   UNL     1       1.864   0.534   1.775  0.00  0.00    +0.040 A 
ATOM     10  C   UNL     1       0.611  -0.022   1.607  0.00  0.00    +0.030 A 
ATOM     11  C   UNL     1       0.131  -0.277   0.330  0.00  0.00    +0.067 A 
ATOM     12  F   UNL     1       3.866   1.381   0.835  0.00  0.00    -0.205 F 
ENDBRANCH   1  11
BRANCH   3  13
ATOM     13  C   UNL     1      -3.618  -3.104  -1.260  0.00  0.00    -0.026 C 
BRANCH  13  14
ATOM     14  N   UNL     1      -3.612  -4.363  -0.503  0.00  0.00    +0.382 N 
ATOM     15  H   UNL     1      -4.170  -5.049  -0.987  0.00  0.00    -0.090 HD
ATOM     16  H   UNL     1      -2.664  -4.699  -0.418  0.00  0.00    -0.090 HD
ATOM     17  H   UNL     1      -3.996  -4.204   0.417  0.00  0.00    -0.090 HD
ENDBRANCH  13  14
ENDBRANCH   3  13
BRANCH   2  18
ATOM     18  C   UNL     1      -0.523  -2.576  -1.631  0.00  0.00    +0.057 C 
BRANCH  18  19
ATOM     19  C   UNL     1       0.187  -3.700  -0.875  0.00  0.00    +0.010 C 
BRANCH  19  20
ATOM     20  C   UNL     1       1.229  -4.350  -1.787  0.00  0.00    -0.011 C 
ATOM     21  C   UNL     1       0.525  -5.034  -2.960  0.00  0.00    +0.003 C 
ATOM     22  C   UNL     1       1.567  -5.684  -3.873  0.00  0.00    +0.000 C 
ATOM     23  C   UNL     1       2.362  -6.723  -3.079  0.00  0.00    +0.000 C 
ATOM     24  C   UNL     1       3.067  -6.038  -1.906  0.00  0.00    +0.000 C 
ATOM     25  C   UNL     1       2.025  -5.389  -0.994  0.00  0.00    +0.003 C 
ENDBRANCH  19  20
ENDBRANCH  18  19
ENDBRANCH   2  18
TORSDOF 6
