REMARK  Name = ZINC08801558
REMARK  8 active torsions:
REMARK  status: ('A' for Active; 'I' for Inactive)
REMARK    1  A    between atoms: C_1  and  N_2
REMARK    2  A    between atoms: C_9  and  C_11
REMARK    3  A    between atoms: C_11  and  C_13
REMARK    4  A    between atoms: C_11  and  N_59
REMARK    5  A    between atoms: C_13  and  N_14
REMARK    6  A    between atoms: N_14  and  S_15
REMARK    7  A    between atoms: S_15  and  C_18
REMARK    8  A    between atoms: C_23  and  N_24
REMARK                            x       y       z     vdW  Elec       q    Type
REMARK                         _______ _______ _______ _____ _____    ______ ____
ROOT
ATOM      1  C   UNL     1      -3.340   1.328   3.238  0.00  0.00    -0.022 C 
ENDROOT
BRANCH   1  10
ATOM      2  C   UNL     1      -5.136   7.536   3.342  0.00  0.00    +0.129 C 
ATOM      3  N   UNL     1      -5.911   6.356   3.748  0.00  0.00    -0.332 N 
ATOM      4  C   UNL     1      -7.086   6.166   2.870  0.00  0.00    +0.109 C 
ATOM      5  C   UNL     1      -7.266   4.631   2.873  0.00  0.00    +0.056 C 
ATOM      6  C   UNL     1      -5.869   4.129   3.179  0.00  0.00    -0.025 A 
ATOM      7  C   UNL     1      -5.131   5.195   3.679  0.00  0.00    +0.033 A 
ATOM      8  C   UNL     1      -3.797   4.991   4.029  0.00  0.00    +0.023 A 
ATOM      9  C   UNL     1      -3.227   3.743   3.890  0.00  0.00    +0.004 A 
ATOM     10  C   UNL     1      -3.969   2.689   3.391  0.00  0.00    -0.059 A 
ATOM     11  C   UNL     1      -5.293   2.885   3.038  0.00  0.00    +0.007 A 
ENDBRANCH   1  10
BRANCH   1  17
ATOM     12  C   UNL     1      -1.695  -0.172   4.189  0.00  0.00    -0.078 C 
ATOM     13  C   UNL     1      -0.700  -0.344   5.339  0.00  0.00    -0.019 C 
ATOM     14  C   UNL     1      -1.465  -0.413   6.664  0.00  0.00    -0.004 C 
ATOM     15  C   UNL     1      -2.303   0.858   6.827  0.00  0.00    -0.019 C 
ATOM     16  C   UNL     1      -3.252   0.995   5.634  0.00  0.00    -0.078 C 
ATOM     17  N   UNL     1      -2.453   1.081   4.393  0.00  0.00    +0.385 N 
ATOM     18  H   UNL     1      -1.790   1.861   4.477  0.00  0.00    -0.081 HD
ENDBRANCH   1  17
BRANCH   1  19
ATOM     19  C   UNL     1      -2.509   1.292   1.954  0.00  0.00    +0.095 C 
BRANCH  19  20
ATOM     20  N   UNL     1      -3.385   1.507   0.799  0.00  0.00    -0.191 NA
ATOM     21  H   UNL     1      -4.344   1.395   0.890  0.00  0.00    +0.148 HD
BRANCH  20  22
ATOM     22  S   UNL     1      -2.737   1.941  -0.661  0.00  0.00    +0.061 S 
ATOM     23  O   UNL     1      -1.880   3.047  -0.413  0.00  0.00    -0.153 OA
ATOM     24  O   UNL     1      -3.817   2.006  -1.582  0.00  0.00    -0.153 OA
BRANCH  22  25
ATOM     25  C   UNL     1      -1.705   0.613  -1.189  0.00  0.00    +0.135 A 
ATOM     26  C   UNL     1      -0.347   0.815  -1.349  0.00  0.00    +0.031 A 
ATOM     27  C   UNL     1       0.462  -0.227  -1.763  0.00  0.00    +0.002 A 
ATOM     28  C   UNL     1      -0.087  -1.470  -2.016  0.00  0.00    +0.002 A 
ATOM     29  C   UNL     1      -1.445  -1.671  -1.857  0.00  0.00    +0.035 A 
ATOM     30  C   UNL     1      -2.254  -0.630  -1.442  0.00  0.00    +0.152 A 
BRANCH  30  31
ATOM     31  N   UNL     1      -3.707  -0.847  -1.265  0.00  0.00    +0.058 N 
ATOM     32  O   UNL     1      -4.212  -1.902  -1.605  0.00  0.00    -0.126 OA
ATOM     33  O   UNL     1      -4.399   0.029  -0.777  0.00  0.00    -0.126 OA
ENDBRANCH  30  31
ENDBRANCH  22  25
ENDBRANCH  20  22
ENDBRANCH  19  20
ENDBRANCH   1  19
TORSDOF 7
