REMARK  Name = ZINC67390921
REMARK  4 active torsions:
REMARK  status: ('A' for Active; 'I' for Inactive)
REMARK    1  A    between atoms: C_4  and  C_7
REMARK    2  A    between atoms: C_7  and  C_9
REMARK    3  A    between atoms: C_7  and  N_13
REMARK    4  A    between atoms: C_20  and  C_23
REMARK                            x       y       z     vdW  Elec       q    Type
REMARK                         _______ _______ _______ _____ _____    ______ ____
ROOT
ATOM      1  N   UNL     1       3.630  -1.873   0.845  0.00  0.00    -0.284 N 
ATOM      2  C   UNL     1       4.751  -2.385   1.391  0.00  0.00    +0.303 C 
ATOM      3  O   UNL     1       5.838  -1.937   1.079  0.00  0.00    -0.253 OA
ATOM      4  N   UNL     1       4.668  -3.393   2.281  0.00  0.00    -0.281 N 
ATOM      5  C   UNL     1       3.377  -4.029   2.587  0.00  0.00    +0.137 C 
ATOM      6  C   UNL     1       3.204  -4.063   4.110  0.00  0.00    +0.179 C 
ATOM      7  O   UNL     1       4.361  -4.658   4.702  0.00  0.00    -0.369 OA
ATOM      8  C   UNL     1       5.572  -3.932   4.479  0.00  0.00    +0.168 C 
ATOM      9  C   UNL     1       5.867  -3.895   2.971  0.00  0.00    +0.145 C 
ATOM     10  H   UNL     1       2.769  -2.277   1.038  0.00  0.00    +0.151 HD
ENDROOT
BRANCH   8  11
ATOM     11  C   UNL     1       6.707  -4.614   5.198  0.00  0.00    +0.018 A 
ATOM     12  C   UNL     1       6.638  -5.966   5.474  0.00  0.00    +0.009 A 
ATOM     13  C   UNL     1       7.679  -6.592   6.133  0.00  0.00    +0.001 A 
ATOM     14  C   UNL     1       8.791  -5.867   6.516  0.00  0.00    +0.003 A 
ATOM     15  C   UNL     1       8.864  -4.514   6.241  0.00  0.00    +0.039 A 
ATOM     16  C   UNL     1       7.823  -3.887   5.576  0.00  0.00    +0.129 A 
ATOM     17  F   UNL     1       7.895  -2.566   5.303  0.00  0.00    -0.205 F 
ENDBRANCH   8  11
BRANCH   1  18
ATOM     18  C   UNL     1       3.711  -0.707  -0.038  0.00  0.00    +0.209 C 
BRANCH  18  22
ATOM     19  C   UNL     1      -0.016   1.378   0.009  0.00  0.00    +0.000 A 
ATOM     20  C   UNL     1       1.171   2.086   0.001  0.00  0.00    +0.000 A 
ATOM     21  C   UNL     1       2.377   1.411  -0.014  0.00  0.00    +0.006 A 
ATOM     22  C   UNL     1       2.396   0.028  -0.021  0.00  0.00    -0.019 A 
ATOM     23  C   UNL     1       1.208  -0.679  -0.012  0.00  0.00    +0.006 A 
ATOM     24  C   UNL     1       0.002  -0.004   0.002  0.00  0.00    +0.000 A 
ENDBRANCH  18  22
BRANCH  18  25
ATOM     25  C   UNL     1       4.019  -1.168  -1.464  0.00  0.00    +0.412 C 
ATOM     26  F   UNL     1       4.096  -0.055  -2.307  0.00  0.00    -0.168 F 
ATOM     27  F   UNL     1       5.240  -1.851  -1.480  0.00  0.00    -0.168 F 
ATOM     28  F   UNL     1       3.002  -2.020  -1.909  0.00  0.00    -0.168 F 
ENDBRANCH  18  25
ENDBRANCH   1  18
TORSDOF 4
