REMARK  Name = ZINC13788273
REMARK  8 active torsions:
REMARK  status: ('A' for Active; 'I' for Inactive)
REMARK    1  A    between atoms: C_1  and  C_2
REMARK    2  A    between atoms: C_5  and  S_8
REMARK    3  A    between atoms: S_8  and  C_9
REMARK    4  A    between atoms: C_9  and  C_10
REMARK    5  A    between atoms: C_11  and  C_21
REMARK    6  A    between atoms: N_23  and  N_24
REMARK    7  A    between atoms: C_25  and  C_26
REMARK    8  A    between atoms: C_25  and  C_27
REMARK                            x       y       z     vdW  Elec       q    Type
REMARK                         _______ _______ _______ _____ _____    ______ ____
ROOT
ATOM      1  C   UNL     1       1.855   3.722   0.004  0.00  0.00    +0.089 A 
ATOM      2  C   UNL     1       1.911   4.540  -1.089  0.00  0.00    +0.173 A 
ATOM      3  N   UNL     1       2.020   5.811  -0.664  0.00  0.00    -0.124 NA
ATOM      4  N   UNL     1       2.035   5.837   0.623  0.00  0.00    -0.058 NA
ATOM      5  N   UNL     1       1.926   4.520   1.093  0.00  0.00    -0.191 N 
ATOM      6  C   UNL     1       1.899   4.111   2.431  0.00  0.00    +0.240 A 
ATOM      7  C   UNL     1       1.978   4.993   3.599  0.00  0.00    +0.206 A 
ATOM      8  N   UNL     1       1.922   4.255   4.674  0.00  0.00    -0.032 NA
ATOM      9  O   UNL     1       1.810   2.903   4.267  0.00  0.00    -0.239 OA
ATOM     10  N   UNL     1       1.795   2.882   2.850  0.00  0.00    -0.027 NA
ATOM     11  N   UNL     1       2.091   6.378   3.568  0.00  0.00    -0.337 N 
ATOM     12  H   UNL     1       2.125   6.843   2.717  0.00  0.00    +0.144 HD
ATOM     13  H   UNL     1       2.136   6.880   4.396  0.00  0.00    +0.144 HD
ENDROOT
BRANCH   2  14
ATOM     14  C   UNL     1       1.860   4.103  -2.496  0.00  0.00    +0.285 C 
ATOM     15  O   UNL     1       1.759   2.920  -2.762  0.00  0.00    -0.267 OA
ATOM     16  N   UNL     1       1.924   5.014  -3.487  0.00  0.00    -0.201 N 
ATOM     17  H   UNL     1       2.005   5.957  -3.275  0.00  0.00    +0.178 HD
BRANCH  16  18
ATOM     18  N   UNL     1       1.876   4.598  -4.824  0.00  0.00    -0.184 NA
ATOM     19  C   UNL     1       1.938   5.475  -5.779  0.00  0.00    +0.063 C 
ATOM     20  C   UNL     1       2.062   6.940  -5.450  0.00  0.00    +0.068 C 
BRANCH  19  21
ATOM     21  C   UNL     1       1.886   5.038  -7.186  0.00  0.00    -0.002 A 
ATOM     22  C   UNL     1       1.954   5.993  -8.218  0.00  0.00    +0.010 A 
ATOM     23  C   UNL     1       1.910   5.615  -9.520  0.00  0.00    +0.009 A 
ATOM     24  C   UNL     1       1.795   4.253  -9.855  0.00  0.00    -0.018 A 
ATOM     25  C   UNL     1       1.748   3.838 -11.196  0.00  0.00    +0.008 A 
ATOM     26  C   UNL     1       1.637   2.513 -11.489  0.00  0.00    +0.001 A 
ATOM     27  C   UNL     1       1.568   1.557 -10.477  0.00  0.00    +0.001 A 
ATOM     28  C   UNL     1       1.610   1.921  -9.167  0.00  0.00    +0.008 A 
ATOM     29  C   UNL     1       1.725   3.280  -8.825  0.00  0.00    -0.017 A 
ATOM     30  C   UNL     1       1.778   3.689  -7.484  0.00  0.00    +0.018 A 
ENDBRANCH  19  21
ENDBRANCH  16  18
ENDBRANCH   2  14
BRANCH   1  31
ATOM     31  C   UNL     1       1.732   2.220  -0.003  0.00  0.00    +0.132 C 
BRANCH  31  32
ATOM     32  S   UNL     1      -0.022   1.758   0.012  0.00  0.00    -0.119 S 
BRANCH  32  37
ATOM     33  C   UNL     1       0.060  -4.278  -0.022  0.00  0.00    +0.044 C 
ATOM     34  C   UNL     1       0.040  -2.771  -0.014  0.00  0.00    -0.050 A 
ATOM     35  C   UNL     1      -1.168  -2.098   0.002  0.00  0.00    +0.004 A 
ATOM     36  C   UNL     1      -1.191  -0.717   0.010  0.00  0.00    +0.015 A 
ATOM     37  C   UNL     1       0.002  -0.004   0.002  0.00  0.00    +0.008 A 
ATOM     38  C   UNL     1       1.214  -0.684  -0.019  0.00  0.00    +0.015 A 
ATOM     39  C   UNL     1       1.229  -2.065  -0.021  0.00  0.00    +0.004 A 
ENDBRANCH  32  37
ENDBRANCH  31  32
ENDBRANCH   1  31
TORSDOF 6
