REMARK  Name = ZINC39668040
REMARK  11 active torsions:
REMARK  status: ('A' for Active; 'I' for Inactive)
REMARK    1  A    between atoms: C_1  and  C_2
REMARK    2  A    between atoms: C_5  and  C_18
REMARK    3  A    between atoms: C_6  and  C_17
REMARK    4  A    between atoms: N_8  and  C_9
REMARK    5  A    between atoms: C_18  and  C_20
REMARK    6  A    between atoms: C_20  and  S_21
REMARK    7  A    between atoms: S_21  and  C_22
REMARK    8  A    between atoms: C_26  and  C_30
REMARK    9  A    between atoms: C_27  and  C_29
REMARK   10  A    between atoms: C_30  and  C_31
REMARK   11  A    between atoms: C_31  and  C_32
REMARK                            x       y       z     vdW  Elec       q    Type
REMARK                         _______ _______ _______ _____ _____    ______ ____
ROOT
ATOM      1  C   UNL     1      -2.862  -2.075   1.124  0.00  0.00    +0.171 C 
ATOM      2  O   UNL     1      -3.530  -2.334   0.144  0.00  0.00    -0.291 OA
ENDROOT
BRANCH   1   6
ATOM      3  C   UNL     1      -0.205   1.504   0.104  0.00  0.00    +0.029 C 
ATOM      4  C   UNL     1       0.093   0.004   0.135  0.00  0.00    +0.078 C 
ATOM      5  C   UNL     1      -1.162  -0.785  -0.157  0.00  0.00    -0.000 C 
ATOM      6  C   UNL     1      -1.653  -1.261   0.990  0.00  0.00    +0.010 C 
ATOM      7  C   UNL     1      -0.761  -0.823   2.128  0.00  0.00    +0.088 C 
ATOM      8  N   UNL     1       0.515  -0.408   1.494  0.00  0.00    -0.285 NA
ATOM      9  C   UNL     1      -0.520  -1.988   3.091  0.00  0.00    +0.029 C 
BRANCH   8  10
ATOM     10  C   UNL     1       1.464  -1.527   1.435  0.00  0.00    +0.080 C 
ATOM     11  C   UNL     1       2.821  -1.030   0.911  0.00  0.00    +0.043 C 
ATOM     12  C   UNL     1       3.718  -2.237   0.542  0.00  0.00    +0.167 C 
ATOM     13  S   UNL     1       2.491  -3.532   0.097  0.00  0.00    -0.029 S 
ATOM     14  O   UNL     1       2.569  -3.782  -1.300  0.00  0.00    -0.174 OA
ATOM     15  O   UNL     1       2.610  -4.615   1.009  0.00  0.00    -0.174 OA
ATOM     16  C   UNL     1       0.934  -2.613   0.455  0.00  0.00    +0.184 C 
ENDBRANCH   8  10
ENDBRANCH   1   6
BRANCH   1  17
ATOM     17  C   UNL     1      -3.277  -2.591   2.477  0.00  0.00    +0.156 C 
BRANCH  17  18
ATOM     18  S   UNL     1      -4.894  -3.401   2.345  0.00  0.00    -0.078 S 
BRANCH  18  19
ATOM     19  C   UNL     1      -5.236  -3.942   3.987  0.00  0.00    +0.192 A 
ATOM     20  N   UNL     1      -4.356  -3.692   4.946  0.00  0.00    -0.183 NA
ATOM     21  C   UNL     1      -4.583  -4.086   6.193  0.00  0.00    +0.277 A 
ATOM     22  O   UNL     1      -3.682  -3.827   7.171  0.00  0.00    -0.265 OA
ATOM     23  C   UNL     1      -5.764  -4.769   6.482  0.00  0.00    +0.040 A 
ATOM     24  C   UNL     1      -6.655  -5.011   5.455  0.00  0.00    +0.049 A 
ATOM     25  N   UNL     1      -6.368  -4.585   4.234  0.00  0.00    -0.227 NA
ATOM     26  C   UNL     1      -7.944  -5.747   5.721  0.00  0.00    +0.066 C 
BRANCH  23  27
ATOM     27  C   UNL     1      -6.060  -5.235   7.885  0.00  0.00    +0.054 C 
BRANCH  27  28
ATOM     28  C   UNL     1      -6.819  -4.139   8.636  0.00  0.00    +0.130 C 
BRANCH  28  29
ATOM     29  C   UNL     1      -7.115  -4.604  10.039  0.00  0.00    +0.356 C 
ATOM     30  O   UNL     1      -6.753  -5.710  10.403  0.00  0.00    -0.246 OA
ATOM     31  O   UNL     1      -7.717  -3.875  10.809  0.00  0.00    -0.246 OA
ENDBRANCH  28  29
ENDBRANCH  27  28
ENDBRANCH  23  27
ENDBRANCH  18  19
ENDBRANCH  17  18
ENDBRANCH   1  17
TORSDOF 8
