REMARK  Name = ZINC01261120
REMARK  8 active torsions:
REMARK  status: ('A' for Active; 'I' for Inactive)
REMARK    1  A    between atoms: C_1  and  C_2
REMARK    2  A    between atoms: C_2  and  O_3
REMARK    3  A    between atoms: O_3  and  C_4
REMARK    4  A    between atoms: C_9  and  C_10
REMARK    5  A    between atoms: C_15  and  C_33
REMARK    6  A    between atoms: C_27  and  C_29
REMARK    7  A    between atoms: C_36  and  O_39
REMARK    8  A    between atoms: O_39  and  C_40
REMARK                            x       y       z     vdW  Elec       q    Type
REMARK                         _______ _______ _______ _____ _____    ______ ____
ROOT
ATOM      1  C   UNL     1       1.990  -1.397  -3.491  0.00  0.00    +0.150 C 
ATOM      2  C   UNL     1       0.879  -0.969  -4.420  0.00  0.00    +0.037 C 
ATOM      3  C   UNL     1      -0.063  -0.099  -3.822  0.00  0.00    +0.163 C 
ATOM      4  C   UNL     1      -1.257   0.421  -4.565  0.00  0.00    +0.088 C 
ATOM      5  C   UNL     1      -1.647  -0.604  -5.636  0.00  0.00    +0.032 C 
ATOM      6  C   UNL     1      -0.430  -0.828  -6.531  0.00  0.00    +0.059 C 
ATOM      7  C   UNL     1       0.737  -1.341  -5.703  0.00  0.00    +0.017 C 
ATOM      8  N   UNL     1       1.587  -2.164  -6.368  0.00  0.00    -0.316 N 
ATOM      9  C   UNL     1       2.082  -3.365  -5.874  0.00  0.00    +0.053 A 
ATOM     10  C   UNL     1       1.774  -4.586  -6.449  0.00  0.00    +0.025 A 
ATOM     11  C   UNL     1       2.340  -5.740  -5.935  0.00  0.00    +0.002 A 
ATOM     12  C   UNL     1       3.206  -5.673  -4.859  0.00  0.00    +0.002 A 
ATOM     13  C   UNL     1       3.501  -4.454  -4.272  0.00  0.00    +0.025 A 
ATOM     14  C   UNL     1       2.919  -3.300  -4.771  0.00  0.00    +0.059 A 
ATOM     15  N   UNL     1       3.093  -2.067  -4.146  0.00  0.00    -0.250 N 
ATOM     16  C   UNL     1       4.312  -1.492  -4.149  0.00  0.00    +0.325 C 
ATOM     17  O   UNL     1       4.478  -0.420  -3.606  0.00  0.00    -0.265 OA
ATOM     18  O   UNL     1       0.101   0.238  -2.665  0.00  0.00    -0.292 OA
ATOM     19  H   UNL     1       1.871  -1.894  -7.255  0.00  0.00    +0.152 HD
ENDROOT
BRANCH   1  25
ATOM     20  C   UNL     1       2.071  -2.513  -1.248  0.00  0.00    +0.126 A 
ATOM     21  C   UNL     1       1.535  -3.366  -0.293  0.00  0.00    +0.046 A 
ATOM     22  C   UNL     1       0.352  -4.031  -0.549  0.00  0.00    +0.004 A 
ATOM     23  C   UNL     1      -0.299  -3.847  -1.756  0.00  0.00    +0.001 A 
ATOM     24  C   UNL     1       0.233  -2.998  -2.708  0.00  0.00    +0.009 A 
ATOM     25  C   UNL     1       1.414  -2.327  -2.455  0.00  0.00    +0.020 A 
BRANCH  20  26
ATOM     26  O   UNL     1       3.235  -1.858  -0.998  0.00  0.00    -0.492 OA
BRANCH  26  28
ATOM     27  C   UNL     1       5.146  -1.280   0.365  0.00  0.00    +0.048 C 
ATOM     28  C   UNL     1       3.857  -2.098   0.266  0.00  0.00    +0.225 C 
ENDBRANCH  26  28
ENDBRANCH  20  26
ENDBRANCH   1  25
BRANCH   5  29
ATOM     29  C   UNL     1      -2.795  -0.074  -6.457  0.00  0.00    -0.043 A 
ATOM     30  C   UNL     1      -2.648   1.101  -7.170  0.00  0.00    +0.007 A 
ATOM     31  C   UNL     1      -3.699   1.590  -7.923  0.00  0.00    +0.046 A 
ATOM     32  C   UNL     1      -4.901   0.900  -7.963  0.00  0.00    +0.120 A 
ATOM     33  C   UNL     1      -5.046  -0.280  -7.247  0.00  0.00    +0.046 A 
ATOM     34  C   UNL     1      -3.991  -0.767  -6.500  0.00  0.00    +0.007 A 
BRANCH  32  35
ATOM     35  O   UNL     1      -5.936   1.378  -8.702  0.00  0.00    -0.495 OA
ATOM     36  C   UNL     1      -7.145   0.616  -8.697  0.00  0.00    +0.277 C 
ENDBRANCH  32  35
ENDBRANCH   5  29
BRANCH  16  37
ATOM     37  C   UNL     1       5.468  -2.181  -4.828  0.00  0.00    +0.470 C 
ATOM     38  F   UNL     1       6.619  -1.396  -4.699  0.00  0.00    -0.162 F 
ATOM     39  F   UNL     1       5.684  -3.427  -4.231  0.00  0.00    -0.162 F 
ATOM     40  F   UNL     1       5.175  -2.358  -6.184  0.00  0.00    -0.162 F 
ENDBRANCH  16  37
TORSDOF 6
