REMARK  Name = ZINC31046061
REMARK  8 active torsions:
REMARK  status: ('A' for Active; 'I' for Inactive)
REMARK    1  A    between atoms: N_9  and  C_10
REMARK    2  A    between atoms: C_10  and  C_11
REMARK    3  A    between atoms: C_11  and  C_12
REMARK    4  A    between atoms: C_12  and  N_13
REMARK    5  A    between atoms: C_14  and  C_16
REMARK    6  A    between atoms: N_21  and  C_23
REMARK    7  A    between atoms: C_23  and  C_24
REMARK    8  A    between atoms: C_26  and  C_29
REMARK                            x       y       z     vdW  Elec       q    Type
REMARK                         _______ _______ _______ _____ _____    ______ ____
ROOT
ATOM      1  C   UNL     1      -0.941   7.522   4.090  0.00  0.00    +0.058 C 
ATOM      2  C   UNL     1      -1.502   8.311   2.903  0.00  0.00    +0.009 C 
ATOM      3  C   UNL     1      -1.239   9.803   3.123  0.00  0.00    -0.018 C 
ATOM      4  C   UNL     1      -1.878  10.240   4.443  0.00  0.00    -0.078 C 
ATOM      5  N   UNL     1      -1.308   9.457   5.547  0.00  0.00    +0.386 N 
ATOM      6  C   UNL     1      -1.589   8.025   5.382  0.00  0.00    -0.065 C 
ATOM      7  H   UNL     1      -0.216   9.590   5.523  0.00  0.00    -0.081 HD
ENDROOT
BRANCH   1   9
ATOM      8  N   UNL     1      -0.776   5.398   2.834  0.00  0.00    -0.315 N 
ATOM      9  C   UNL     1      -1.247   6.058   3.910  0.00  0.00    +0.214 C 
ATOM     10  O   UNL     1      -1.918   5.473   4.735  0.00  0.00    -0.276 OA
ATOM     11  H   UNL     1      -0.168   5.928   2.086  0.00  0.00    +0.149 HD
BRANCH   8  12
ATOM     12  C   UNL     1      -1.074   3.974   2.659  0.00  0.00    +0.105 C 
BRANCH  12  13
ATOM     13  C   UNL     1      -0.426   3.472   1.367  0.00  0.00    +0.037 C 
BRANCH  13  14
ATOM     14  C   UNL     1      -0.737   1.985   1.185  0.00  0.00    +0.106 C 
BRANCH  14  23
ATOM     15  C   UNL     1      -0.395   3.755  -3.463  0.00  0.00    +0.000 A 
ATOM     16  C   UNL     1      -1.539   3.580  -2.705  0.00  0.00    +0.002 A 
ATOM     17  C   UNL     1      -1.496   2.840  -1.542  0.00  0.00    +0.023 A 
ATOM     18  C   UNL     1      -0.298   2.262  -1.123  0.00  0.00    +0.033 A 
ATOM     19  C   UNL     1       0.846   2.448  -1.888  0.00  0.00    -0.025 A 
ATOM     20  C   UNL     1       0.797   3.187  -3.052  0.00  0.00    +0.005 A 
ATOM     21  C   UNL     1       1.990   1.728  -1.201  0.00  0.00    +0.056 C 
ATOM     22  C   UNL     1       1.437   1.488   0.223  0.00  0.00    +0.110 C 
ATOM     23  N   UNL     1      -0.025   1.477   0.005  0.00  0.00    -0.329 N 
ENDBRANCH  14  23
ENDBRANCH  13  14
ENDBRANCH  12  13
ENDBRANCH   8  12
ENDBRANCH   1   9
BRANCH   5  24
ATOM     24  C   UNL     1      -1.796   9.943   6.844  0.00  0.00    +0.022 C 
BRANCH  24  25
ATOM     25  C   UNL     1      -1.716  11.448   6.879  0.00  0.00    +0.211 A 
ATOM     26  N   UNL     1      -2.650  12.286   6.502  0.00  0.00    -0.193 NA
ATOM     27  C   UNL     1      -2.138  13.519   6.713  0.00  0.00    +0.202 A 
ATOM     28  N   UNL     1      -0.932  13.360   7.195  0.00  0.00    -0.056 NA
ATOM     29  O   UNL     1      -0.677  12.178   7.295  0.00  0.00    -0.340 OA
BRANCH  27  30
ATOM     30  C   UNL     1      -2.815  14.812   6.445  0.00  0.00    +0.023 A 
ATOM     31  C   UNL     1      -4.107  14.829   5.923  0.00  0.00    +0.013 A 
ATOM     32  C   UNL     1      -4.736  16.034   5.682  0.00  0.00    +0.021 A 
ATOM     33  C   UNL     1      -4.080  17.224   5.946  0.00  0.00    +0.041 A 
ATOM     34  C   UNL     1      -2.794  17.212   6.459  0.00  0.00    +0.021 A 
ATOM     35  C   UNL     1      -2.160  16.013   6.710  0.00  0.00    +0.013 A 
ATOM     36 CL   UNL     1      -4.872  18.736   5.633  0.00  0.00    -0.084 Cl
ENDBRANCH  27  30
ENDBRANCH  24  25
ENDBRANCH   5  24
TORSDOF 8
