REMARK  Name = ZINC02093140
REMARK  12 active torsions:
REMARK  status: ('A' for Active; 'I' for Inactive)
REMARK    1  A    between atoms: C_1  and  C_2
REMARK    2  A    between atoms: C_2  and  C_3
REMARK    3  A    between atoms: C_3  and  C_4
REMARK    4  A    between atoms: C_13  and  O_16
REMARK    5  A    between atoms: C_14  and  C_15
REMARK    6  A    between atoms: O_16  and  C_17
REMARK    7  A    between atoms: C_17  and  C_19
REMARK    8  A    between atoms: C_19  and  C_21
REMARK    9  A    between atoms: C_19  and  N_27
REMARK   10  A    between atoms: N_27  and  S_28
REMARK   11  A    between atoms: S_28  and  C_31
REMARK   12  A    between atoms: C_34  and  C_37
REMARK                            x       y       z     vdW  Elec       q    Type
REMARK                         _______ _______ _______ _____ _____    ______ ____
ROOT
ATOM      1  C   UNL     1       1.301   3.393  -0.059  0.00  0.00    +0.215 C 
ENDROOT
BRANCH   1   2
ATOM      2  C   UNL     1       1.080   1.903  -0.115  0.00  0.00    -0.018 A 
ATOM      3  C   UNL     1      -0.201   1.390  -0.027  0.00  0.00    +0.006 A 
ATOM      4  C   UNL     1      -0.404   0.024  -0.079  0.00  0.00    +0.000 A 
ATOM      5  C   UNL     1       0.675  -0.830  -0.218  0.00  0.00    +0.000 A 
ATOM      6  C   UNL     1       1.956  -0.317  -0.305  0.00  0.00    +0.000 A 
ATOM      7  C   UNL     1       2.158   1.049  -0.254  0.00  0.00    +0.006 A 
ENDBRANCH   1   2
BRANCH   1   8
ATOM      8  C   UNL     1       1.494   3.924  -1.456  0.00  0.00    +0.336 C 
ATOM      9  O   UNL     1       2.523   4.486  -1.751  0.00  0.00    -0.248 OA
BRANCH   8  10
ATOM     10  O   UNL     1       0.524   3.774  -2.372  0.00  0.00    -0.424 OA
BRANCH  10  20
ATOM     11  C   UNL     1       1.357   6.147  -7.363  0.00  0.00    -0.030 A 
ATOM     12  C   UNL     1       1.009   7.452  -7.506  0.00  0.00    +0.096 A 
ATOM     13  C   UNL     1       0.459   8.154  -6.413  0.00  0.00    +0.337 A 
ATOM     14  O   UNL     1       0.150   9.324  -6.555  0.00  0.00    -0.245 OA
ATOM     15  O   UNL     1       0.266   7.567  -5.222  0.00  0.00    -0.422 OA
ATOM     16  C   UNL     1       0.591   6.273  -5.013  0.00  0.00    +0.146 A 
ATOM     17  C   UNL     1       1.144   5.512  -6.060  0.00  0.00    +0.021 A 
ATOM     18  C   UNL     1       1.482   4.171  -5.848  0.00  0.00    +0.015 A 
ATOM     19  C   UNL     1       1.279   3.606  -4.622  0.00  0.00    +0.047 A 
ATOM     20  C   UNL     1       0.726   4.353  -3.584  0.00  0.00    +0.138 A 
ATOM     21  C   UNL     1       0.385   5.681  -3.776  0.00  0.00    +0.035 A 
ATOM     22  C   UNL     1      -0.207   6.481  -2.644  0.00  0.00    +0.051 C 
BRANCH  11  23
ATOM     23  C   UNL     1       1.948   5.373  -8.513  0.00  0.00    +0.036 C 
BRANCH  23  25
ATOM     24  C   UNL     1       1.436   3.825 -10.407  0.00  0.00    +0.004 C 
ATOM     25  C   UNL     1       0.837   4.611  -9.239  0.00  0.00    +0.001 C 
ENDBRANCH  23  25
ENDBRANCH  11  23
ENDBRANCH  10  20
ENDBRANCH   8  10
ENDBRANCH   1   8
BRANCH   1  26
ATOM     26  N   UNL     1       2.493   3.680   0.743  0.00  0.00    -0.172 NA
ATOM     27  H   UNL     1       3.371   3.659   0.331  0.00  0.00    +0.149 HD
BRANCH  26  28
ATOM     28  S   UNL     1       2.341   4.041   2.352  0.00  0.00    +0.059 S 
ATOM     29  O   UNL     1       3.658   4.240   2.849  0.00  0.00    -0.153 OA
ATOM     30  O   UNL     1       1.331   5.035   2.452  0.00  0.00    -0.153 OA
BRANCH  28  31
ATOM     31  C   UNL     1       1.714   2.602   3.151  0.00  0.00    +0.105 A 
ATOM     32  C   UNL     1       0.349   2.422   3.279  0.00  0.00    +0.029 A 
ATOM     33  C   UNL     1      -0.144   1.291   3.903  0.00  0.00    +0.005 A 
ATOM     34  C   UNL     1       0.728   0.344   4.407  0.00  0.00    -0.050 A 
ATOM     35  C   UNL     1       2.093   0.526   4.284  0.00  0.00    +0.005 A 
ATOM     36  C   UNL     1       2.586   1.655   3.656  0.00  0.00    +0.029 A 
ATOM     37  C   UNL     1       0.191  -0.887   5.091  0.00  0.00    +0.044 C 
ENDBRANCH  28  31
ENDBRANCH  26  28
ENDBRANCH   1  26
TORSDOF 9
