REMARK  Name = ZINC32936918
REMARK  10 active torsions:
REMARK  status: ('A' for Active; 'I' for Inactive)
REMARK    1  A    between atoms: C_1  and  C_2
REMARK    2  A    between atoms: C_2  and  C_3
REMARK    3  A    between atoms: C_2  and  C_4
REMARK    4  A    between atoms: C_2  and  O_5
REMARK    5  A    between atoms: O_5  and  C_6
REMARK    6  A    between atoms: N_8  and  C_9
REMARK    7  A    between atoms: N_12  and  S_15
REMARK    8  A    between atoms: S_15  and  C_18
REMARK    9  A    between atoms: C_20  and  C_28
REMARK   10  A    between atoms: C_22  and  C_24
REMARK                            x       y       z     vdW  Elec       q    Type
REMARK                         _______ _______ _______ _____ _____    ______ ____
ROOT
ATOM      1  S   UNL     1       1.889   3.092   1.148  0.00  0.00    +0.061 S 
ATOM      2  O   UNL     1       2.997   3.782   0.585  0.00  0.00    -0.153 OA
ATOM      3  O   UNL     1       0.735   3.768   1.628  0.00  0.00    -0.153 OA
ENDROOT
BRANCH   1   7
ATOM      4  C   UNL     1       0.834  -0.492  -1.186  0.00  0.00    +0.079 C 
ATOM      5  C   UNL     1       0.002  -0.004   0.002  0.00  0.00    +0.039 C 
ATOM      6  C   UNL     1      -0.019   1.528   0.010  0.00  0.00    +0.111 C 
ATOM      7  N   UNL     1       1.366   2.019  -0.000  0.00  0.00    -0.176 NA
ATOM      8  C   UNL     1       2.277   1.541  -1.048  0.00  0.00    +0.111 C 
ATOM      9  C   UNL     1       2.272   0.009  -1.045  0.00  0.00    +0.039 C 
BRANCH   4  12
ATOM     10  C   UNL     1       1.034  -2.608  -2.379  0.00  0.00    +0.401 C 
ATOM     11  O   UNL     1       1.224  -1.980  -3.402  0.00  0.00    -0.226 OA
ATOM     12  N   UNL     1       0.828  -1.957  -1.217  0.00  0.00    -0.278 N 
ATOM     13  H   UNL     1       0.656  -2.526  -0.291  0.00  0.00    +0.152 HD
BRANCH  10  14
ATOM     14  O   UNL     1       1.029  -3.954  -2.407  0.00  0.00    -0.445 OA
BRANCH  14  16
ATOM     15  C   UNL     1       2.627  -4.170  -4.231  0.00  0.00    +0.055 C 
ATOM     16  C   UNL     1       1.257  -4.587  -3.693  0.00  0.00    +0.107 C 
ATOM     17  C   UNL     1       1.216  -6.108  -3.527  0.00  0.00    +0.055 C 
ATOM     18  C   UNL     1       0.169  -4.152  -4.676  0.00  0.00    +0.055 C 
ENDBRANCH  14  16
ENDBRANCH  10  14
ENDBRANCH   4  12
ENDBRANCH   1   7
BRANCH   1  19
ATOM     19  C   UNL     1       2.516   2.148   2.496  0.00  0.00    +0.107 A 
ATOM     20  C   UNL     1       1.677   1.776   3.529  0.00  0.00    +0.041 A 
ATOM     21  C   UNL     1       2.168   1.031   4.585  0.00  0.00    +0.057 A 
ATOM     22  C   UNL     1       3.501   0.666   4.612  0.00  0.00    +0.024 A 
ATOM     23  C   UNL     1       4.342   1.042   3.582  0.00  0.00    +0.057 A 
ATOM     24  C   UNL     1       3.850   1.784   2.524  0.00  0.00    +0.041 A 
BRANCH  23  25
ATOM     25  C   UNL     1       5.795   0.645   3.611  0.00  0.00    +0.417 C 
ATOM     26  F   UNL     1       6.537   1.635   4.265  0.00  0.00    -0.166 F 
ATOM     27  F   UNL     1       5.933  -0.568   4.295  0.00  0.00    -0.166 F 
ATOM     28  F   UNL     1       6.265   0.498   2.302  0.00  0.00    -0.166 F 
ENDBRANCH  23  25
BRANCH  21  29
ATOM     29  C   UNL     1       1.251   0.620   5.708  0.00  0.00    +0.417 C 
ATOM     30  F   UNL     1       1.973  -0.117   6.654  0.00  0.00    -0.166 F 
ATOM     31  F   UNL     1       0.717   1.761   6.316  0.00  0.00    -0.166 F 
ATOM     32  F   UNL     1       0.212  -0.166   5.199  0.00  0.00    -0.166 F 
ENDBRANCH  21  29
ENDBRANCH   1  19
TORSDOF 7
