REMARK  Name = ZINC16031624
REMARK  15 active torsions:
REMARK  status: ('A' for Active; 'I' for Inactive)
REMARK    1  A    between atoms: C_1  and  C_2
REMARK    2  A    between atoms: C_2  and  C_3
REMARK    3  A    between atoms: C_3  and  C_4
REMARK    4  A    between atoms: C_4  and  N_81
REMARK    5  A    between atoms: C_5  and  C_6
REMARK    6  A    between atoms: C_5  and  N_81
REMARK    7  A    between atoms: C_6  and  C_7
REMARK    8  A    between atoms: C_7  and  C_8
REMARK    9  A    between atoms: C_9  and  C_10
REMARK   10  A    between atoms: C_9  and  N_81
REMARK   11  A    between atoms: C_10  and  C_11
REMARK   12  A    between atoms: C_11  and  N_12
REMARK   13  A    between atoms: C_32  and  C_34
REMARK   14  A    between atoms: C_38  and  O_40
REMARK   15  A    between atoms: O_40  and  C_41
REMARK                            x       y       z     vdW  Elec       q    Type
REMARK                         _______ _______ _______ _____ _____    ______ ____
ROOT
ATOM      1  N   UNL     1      -2.700   5.077   1.602  0.00  0.00    -0.291 N 
ATOM      2  C   UNL     1      -1.272   5.322   1.719  0.00  0.00    +0.203 C 
ATOM      3  C   UNL     1      -0.529   4.907   0.490  0.00  0.00    +0.234 C 
ATOM      4  O   UNL     1       0.676   5.042   0.486  0.00  0.00    -0.274 OA
ATOM      5  N   UNL     1      -1.103   4.397  -0.601  0.00  0.00    -0.276 N 
ATOM      6  C   UNL     1      -2.551   4.258  -0.753  0.00  0.00    +0.167 C 
ATOM      7  C   UNL     1      -3.283   4.600   0.504  0.00  0.00    +0.237 C 
ATOM      8  O   UNL     1      -4.483   4.431   0.526  0.00  0.00    -0.274 OA
ATOM      9  C   UNL     1      -3.028   5.171  -1.892  0.00  0.00    +0.069 C 
ATOM     10  C   UNL     1      -2.095   5.016  -3.065  0.00  0.00    -0.015 A 
ATOM     11  C   UNL     1      -2.317   5.394  -4.446  0.00  0.00    +0.003 A 
ATOM     12  C   UNL     1      -3.399   5.987  -5.104  0.00  0.00    +0.010 A 
ATOM     13  C   UNL     1      -3.260   6.208  -6.451  0.00  0.00    +0.001 A 
ATOM     14  C   UNL     1      -2.107   5.866  -7.138  0.00  0.00    +0.002 A 
ATOM     15  C   UNL     1      -1.021   5.279  -6.513  0.00  0.00    +0.026 A 
ATOM     16  C   UNL     1      -1.134   5.041  -5.144  0.00  0.00    +0.047 A 
ATOM     17  N   UNL     1      -0.275   4.490  -4.237  0.00  0.00    -0.356 N 
ATOM     18  H   UNL     1       0.613   4.158  -4.440  0.00  0.00    +0.166 HD
ATOM     19  C   UNL     1      -0.858   4.477  -2.998  0.00  0.00    +0.046 A 
ATOM     20  C   UNL     1      -0.245   3.951  -1.720  0.00  0.00    +0.154 C 
ENDROOT
BRANCH  20  21
ATOM     21  C   UNL     1      -0.196   2.445  -1.758  0.00  0.00    -0.018 A 
ATOM     22  C   UNL     1      -1.342   1.723  -2.039  0.00  0.00    +0.006 A 
ATOM     23  C   UNL     1      -1.300   0.342  -2.075  0.00  0.00    +0.004 A 
ATOM     24  C   UNL     1      -0.113  -0.321  -1.831  0.00  0.00    +0.045 A 
ATOM     25  C   UNL     1       1.038   0.401  -1.549  0.00  0.00    +0.120 A 
ATOM     26  C   UNL     1       0.993   1.787  -1.513  0.00  0.00    +0.051 A 
BRANCH  25  27
ATOM     27  O   UNL     1       2.207  -0.249  -1.309  0.00  0.00    -0.495 OA
ATOM     28  C   UNL     1       2.179  -1.677  -1.363  0.00  0.00    +0.277 C 
ENDBRANCH  25  27
ENDBRANCH  20  21
BRANCH   1  29
ATOM     29  C   UNL     1      -3.547   5.373   2.760  0.00  0.00    +0.106 C 
BRANCH  29  30
ATOM     30  C   UNL     1      -4.034   6.821   2.679  0.00  0.00    +0.000 C 
BRANCH  30  31
ATOM     31  C   UNL     1      -4.919   7.130   3.889  0.00  0.00    -0.077 C 
BRANCH  31  32
ATOM     32  N   UNL     1      -5.398   8.525   3.785  0.00  0.00    +0.380 N 
ATOM     33  H   UNL     1      -5.816   8.666   2.858  0.00  0.00    -0.082 HD
BRANCH  32  34
ATOM     34  C   UNL     1      -6.422   8.785   4.819  0.00  0.00    -0.079 C 
BRANCH  34  35
ATOM     35  C   UNL     1      -7.745   8.166   4.364  0.00  0.00    -0.019 C 
BRANCH  35  37
ATOM     36  C   UNL     1     -10.145   7.812   4.964  0.00  0.00    +0.004 C 
ATOM     37  C   UNL     1      -8.821   8.431   5.419  0.00  0.00    -0.005 C 
ENDBRANCH  35  37
ENDBRANCH  34  35
ENDBRANCH  32  34
BRANCH  32  38
ATOM     38  C   UNL     1      -4.266   9.461   3.949  0.00  0.00    -0.079 C 
BRANCH  38  39
ATOM     39  C   UNL     1      -4.703  10.849   3.475  0.00  0.00    -0.019 C 
BRANCH  39  40
ATOM     40  C   UNL     1      -3.498  11.792   3.479  0.00  0.00    -0.005 C 
ATOM     41  C   UNL     1      -3.936  13.179   3.005  0.00  0.00    +0.004 C 
ENDBRANCH  39  40
ENDBRANCH  38  39
ENDBRANCH  32  38
ENDBRANCH  31  32
ENDBRANCH  30  31
ENDBRANCH  29  30
ENDBRANCH   1  29
TORSDOF 12
