REMARK  Name = ZINC12283456
REMARK  12 active torsions:
REMARK  status: ('A' for Active; 'I' for Inactive)
REMARK    1  A    between atoms: C_1  and  C_2
REMARK    2  A    between atoms: C_2  and  C_3
REMARK    3  A    between atoms: C_2  and  C_4
REMARK    4  A    between atoms: C_2  and  O_35
REMARK    5  A    between atoms: C_5  and  C_6
REMARK    6  A    between atoms: C_9  and  C_12
REMARK    7  A    between atoms: C_12  and  N_68
REMARK    8  A    between atoms: C_18  and  C_22
REMARK    9  A    between atoms: C_22  and  C_23
REMARK   10  A    between atoms: C_23  and  N_24
REMARK   11  A    between atoms: C_25  and  C_27
REMARK   12  A    between atoms: C_27  and  C_28
REMARK                            x       y       z     vdW  Elec       q    Type
REMARK                         _______ _______ _______ _____ _____    ______ ____
ROOT
ATOM      1  C   UNL     1       4.080  -0.158  -1.034  0.00  0.00    -0.071 C 
ATOM      2  C   UNL     1       3.533   0.818   0.013  0.00  0.00    +0.058 C 
ATOM      3  C   UNL     1       2.027   0.758  -0.007  0.00  0.00    +0.132 A 
ATOM      4  N   UNL     1       1.191   1.754   0.000  0.00  0.00    -0.134 NA
ATOM      5  N   UNL     1      -0.016   1.303   0.009  0.00  0.00    -0.134 NA
ATOM      6  C   UNL     1       0.002  -0.004   0.002  0.00  0.00    +0.135 A 
ATOM      7  N   UNL     1       1.297  -0.384  -0.021  0.00  0.00    -0.317 N 
ATOM      8  C   UNL     1       1.830  -1.746  -0.068  0.00  0.00    +0.106 C 
ATOM      9  C   UNL     1       3.219  -1.765   0.578  0.00  0.00    -0.056 C 
ATOM     10  N   UNL     1       4.244  -1.512  -0.460  0.00  0.00    +0.384 N 
ATOM     11  H   UNL     1       4.133  -2.204  -1.210  0.00  0.00    -0.081 HD
ENDROOT
BRANCH  10  12
ATOM     12  C   UNL     1       5.592  -1.649   0.120  0.00  0.00    -0.043 C 
BRANCH  12  16
ATOM     13  C   UNL     1       8.464  -1.497  -3.044  0.00  0.00    +0.025 A 
ATOM     14  C   UNL     1       8.083  -0.326  -2.387  0.00  0.00    +0.017 A 
ATOM     15  C   UNL     1       7.156  -0.382  -1.367  0.00  0.00    +0.003 A 
ATOM     16  C   UNL     1       6.604  -1.596  -0.995  0.00  0.00    -0.064 A 
ATOM     17  C   UNL     1       6.982  -2.760  -1.639  0.00  0.00    +0.003 A 
ATOM     18  C   UNL     1       7.904  -2.717  -2.665  0.00  0.00    +0.017 A 
BRANCH  13  20
ATOM     19  C   UNL     1      10.213  -1.404  -4.974  0.00  0.00    -0.063 C 
ATOM     20  C   UNL     1       9.425  -1.446  -4.104  0.00  0.00    -0.063 C 
BRANCH  19  22
ATOM     21  C   UNL     1      11.438  -2.762  -6.606  0.00  0.00    +0.055 C 
ATOM     22  C   UNL     1      11.202  -1.351  -6.063  0.00  0.00    +0.121 C 
ATOM     23  C   UNL     1      10.676  -0.454  -7.186  0.00  0.00    +0.055 C 
BRANCH  22  24
ATOM     24  O   UNL     1      12.432  -0.821  -5.566  0.00  0.00    -0.377 OA
ATOM     25  H   UNL     1      12.823  -1.340  -4.850  0.00  0.00    +0.211 HD
ENDBRANCH  22  24
ENDBRANCH  19  22
ENDBRANCH  13  20
ENDBRANCH  12  16
ENDBRANCH  10  12
BRANCH   6  26
ATOM     26  C   UNL     1      -1.198  -0.915   0.015  0.00  0.00    +0.095 C 
BRANCH  26  27
ATOM     27  C   UNL     1      -1.627  -1.216  -1.422  0.00  0.00    +0.112 C 
BRANCH  27  28
ATOM     28  N   UNL     1      -2.793  -2.102  -1.409  0.00  0.00    -0.315 N 
ATOM     29  C   UNL     1      -3.348  -2.503  -2.570  0.00  0.00    +0.217 C 
ATOM     30  O   UNL     1      -2.881  -2.130  -3.626  0.00  0.00    -0.275 OA
ATOM     31  H   UNL     1      -3.166  -2.400  -0.565  0.00  0.00    +0.149 HD
BRANCH  29  32
ATOM     32  C   UNL     1      -4.548  -3.414  -2.557  0.00  0.00    +0.130 C 
BRANCH  32  33
ATOM     33  C   UNL     1      -4.970  -3.710  -3.973  0.00  0.00    -0.038 A 
ATOM     34  C   UNL     1      -5.892  -2.895  -4.603  0.00  0.00    +0.007 A 
ATOM     35  C   UNL     1      -6.276  -3.163  -5.904  0.00  0.00    +0.038 A 
ATOM     36  C   UNL     1      -5.745  -4.253  -6.571  0.00  0.00    +0.123 A 
ATOM     37  C   UNL     1      -4.826  -5.072  -5.937  0.00  0.00    +0.038 A 
ATOM     38  C   UNL     1      -4.439  -4.799  -4.638  0.00  0.00    +0.007 A 
ATOM     39  F   UNL     1      -6.124  -4.518  -7.841  0.00  0.00    -0.205 F 
ENDBRANCH  32  33
ENDBRANCH  29  32
ENDBRANCH  27  28
ENDBRANCH  26  27
ENDBRANCH   6  26
TORSDOF 10
