REMARK  Name = ZINC20763038
REMARK  6 active torsions:
REMARK  status: ('A' for Active; 'I' for Inactive)
REMARK    1  A    between atoms: C_1  and  O_2
REMARK    2  A    between atoms: O_2  and  C_3
REMARK    3  A    between atoms: C_6  and  C_9
REMARK    4  A    between atoms: C_11  and  C_25
REMARK    5  A    between atoms: C_14  and  C_17
REMARK    6  A    between atoms: C_22  and  O_23
REMARK                            x       y       z     vdW  Elec       q    Type
REMARK                         _______ _______ _______ _____ _____    ______ ____
ROOT
ATOM      1  C   UNL     1      -6.014  -0.034   1.861  0.00  0.00    +0.040 C 
ATOM      2  N   UNL     1      -6.638   0.358   2.908  0.00  0.00    -0.299 NA
ATOM      3  C   UNL     1      -8.023   0.018   3.211  0.00  0.00    +0.081 C 
ATOM      4  N   UNL     1      -8.714  -0.465   2.009  0.00  0.00    +0.401 N 
ATOM      5  C   UNL     1      -7.927  -1.529   1.362  0.00  0.00    -0.028 C 
ATOM      6  C   UNL     1      -6.642  -0.905   0.809  0.00  0.00    +0.044 C 
ATOM      7  H   UNL     1      -9.700  -0.865   2.289  0.00  0.00    -0.081 HD
ATOM      8  H   UNL     1      -8.844   0.367   1.302  0.00  0.00    -0.081 HD
ENDROOT
BRANCH   5   9
ATOM      9  C   UNL     1      -8.722  -2.138   0.237  0.00  0.00    -0.018 A 
ATOM     10  C   UNL     1      -9.734  -1.415  -0.365  0.00  0.00    +0.020 A 
ATOM     11  C   UNL     1     -10.462  -1.972  -1.401  0.00  0.00    +0.018 A 
ATOM     12  C   UNL     1     -10.184  -3.258  -1.831  0.00  0.00    +0.019 A 
ATOM     13  C   UNL     1      -9.177  -3.986  -1.229  0.00  0.00    +0.047 A 
ATOM     14  C   UNL     1      -8.442  -3.427  -0.193  0.00  0.00    +0.119 A 
ATOM     15 BR   UNL     1     -11.843  -0.978  -2.227  0.00  0.00    -0.050 Br
BRANCH  14  16
ATOM     16  O   UNL     1      -7.451  -4.142   0.402  0.00  0.00    -0.507 OA
ATOM     17  H   UNL     1      -7.230  -5.164   0.061  0.00  0.00    +0.292 HD
ENDBRANCH  14  16
ENDBRANCH   5   9
BRANCH   3  18
ATOM     18  C   UNL     1      -8.045  -1.061   4.263  0.00  0.00    -0.040 A 
ATOM     19  C   UNL     1      -9.098  -1.956   4.313  0.00  0.00    +0.005 A 
ATOM     20  C   UNL     1      -9.116  -2.948   5.275  0.00  0.00    +0.015 A 
ATOM     21  C   UNL     1      -8.086  -3.039   6.194  0.00  0.00    +0.018 A 
ATOM     22  C   UNL     1      -7.036  -2.140   6.147  0.00  0.00    +0.015 A 
ATOM     23  C   UNL     1      -7.016  -1.152   5.181  0.00  0.00    +0.005 A 
ATOM     24 BR   UNL     1      -8.115  -4.392   7.515  0.00  0.00    -0.050 Br
ENDBRANCH   3  18
BRANCH   1  28
ATOM     25  C   UNL     1      -1.974   1.163   1.348  0.00  0.00    +0.120 A 
ATOM     26  C   UNL     1      -2.586   0.363   0.391  0.00  0.00    +0.046 A 
ATOM     27  C   UNL     1      -3.895  -0.032   0.556  0.00  0.00    +0.013 A 
ATOM     28  C   UNL     1      -4.611   0.382   1.683  0.00  0.00    -0.004 A 
ATOM     29  C   UNL     1      -3.993   1.191   2.640  0.00  0.00    +0.013 A 
ATOM     30  C   UNL     1      -2.682   1.577   2.470  0.00  0.00    +0.046 A 
BRANCH  25  32
ATOM     31  C   UNL     1      -0.013   1.086   0.008  0.00  0.00    +0.277 C 
ATOM     32  O   UNL     1      -0.682   1.547   1.184  0.00  0.00    -0.495 OA
ENDBRANCH  25  32
ENDBRANCH   1  28
TORSDOF 5
