REMARK  Name = ZINC01736574
REMARK  3 active torsions:
REMARK  status: ('A' for Active; 'I' for Inactive)
REMARK    1  A    between atoms: C_1  and  C_2
REMARK    2  A    between atoms: C_9  and  C_12
REMARK    3  A    between atoms: C_17  and  C_22
REMARK                            x       y       z     vdW  Elec       q    Type
REMARK                         _______ _______ _______ _____ _____    ______ ____
ROOT
ATOM      1  C   UNL     1       0.002  -0.004   0.002  0.00  0.00    +0.044 C 
ATOM      2  C   UNL     1      -0.018   1.503   0.010  0.00  0.00    -0.048 A 
ATOM      3  C   UNL     1      -1.225   2.178   0.020  0.00  0.00    +0.007 A 
ATOM      4  C   UNL     1      -1.249   3.559   0.033  0.00  0.00    +0.048 A 
ATOM      5  C   UNL     1      -0.061   4.279   0.025  0.00  0.00    +0.144 A 
ATOM      6  C   UNL     1       1.151   3.598   0.010  0.00  0.00    +0.072 A 
ATOM      7  C   UNL     1       1.169   2.210   0.003  0.00  0.00    +0.030 A 
ATOM      8  N   UNL     1       2.197   4.532   0.004  0.00  0.00    -0.302 N 
ATOM      9  C   UNL     1       1.565   5.858   0.017  0.00  0.00    +0.320 C 
ATOM     10  O   UNL     1       0.154   5.622   0.030  0.00  0.00    -0.464 OA
ATOM     11  H   UNL     1       3.148   4.341  -0.005  0.00  0.00    +0.150 HD
ENDROOT
BRANCH   9  12
ATOM     12  C   UNL     1       1.957   6.641  -1.237  0.00  0.00    +0.320 C 
ATOM     13  N   UNL     1       1.422   8.007  -1.168  0.00  0.00    -0.302 N 
ATOM     14  C   UNL     1       0.560   8.147  -2.265  0.00  0.00    +0.072 A 
ATOM     15  C   UNL     1      -0.209   9.223  -2.689  0.00  0.00    +0.030 A 
ATOM     16  C   UNL     1      -0.991   9.111  -3.823  0.00  0.00    -0.048 A 
ATOM     17  C   UNL     1      -1.006   7.927  -4.537  0.00  0.00    +0.007 A 
ATOM     18  C   UNL     1      -0.243   6.853  -4.122  0.00  0.00    +0.048 A 
ATOM     19  C   UNL     1       0.546   6.956  -2.983  0.00  0.00    +0.144 A 
ATOM     20  O   UNL     1       1.366   6.044  -2.395  0.00  0.00    -0.464 OA
ATOM     21  C   UNL     1      -1.825  10.279  -4.281  0.00  0.00    +0.044 C 
ATOM     22  H   UNL     1       1.625   8.678  -0.498  0.00  0.00    +0.150 HD
ENDBRANCH   9  12
TORSDOF 1
