REMARK  Name = ZINC04765804
REMARK  12 active torsions:
REMARK  status: ('A' for Active; 'I' for Inactive)
REMARK    1  A    between atoms: C_1  and  C_2
REMARK    2  A    between atoms: C_2  and  O_3
REMARK    3  A    between atoms: O_3  and  C_4
REMARK    4  A    between atoms: C_9  and  C_10
REMARK    5  A    between atoms: C_15  and  C_25
REMARK    6  A    between atoms: C_17  and  C_21
REMARK    7  A    between atoms: C_21  and  O_23
REMARK    8  A    between atoms: O_23  and  C_24
REMARK    9  A    between atoms: C_27  and  C_39
REMARK   10  A    between atoms: C_28  and  C_29
REMARK   11  A    between atoms: C_29  and  O_31
REMARK   12  A    between atoms: O_31  and  C_32
REMARK                            x       y       z     vdW  Elec       q    Type
REMARK                         _______ _______ _______ _____ _____    ______ ____
ROOT
ATOM      1  C   UNL     1       1.149   3.593   0.010  0.00  0.00    +0.096 C 
ATOM      2  C   UNL     1       0.441   4.072   1.252  0.00  0.00    +0.025 C 
ATOM      3  C   UNL     1      -0.831   4.520   1.192  0.00  0.00    +0.016 C 
ATOM      4  C   UNL     1      -1.551   4.983   2.434  0.00  0.00    +0.055 C 
ATOM      5  C   UNL     1      -0.543   5.579   3.421  0.00  0.00    +0.013 C 
ATOM      6  C   UNL     1       0.505   4.510   3.750  0.00  0.00    +0.171 C 
ATOM      7  C   UNL     1       1.142   4.040   2.471  0.00  0.00    +0.176 C 
ATOM      8  O   UNL     1       2.284   3.624   2.491  0.00  0.00    -0.291 OA
ATOM      9  C   UNL     1      -1.266   6.001   4.702  0.00  0.00    +0.009 C 
ATOM     10  N   UNL     1      -1.498   4.561  -0.003  0.00  0.00    -0.321 N 
ATOM     11  C   UNL     1      -0.812   4.532  -1.185  0.00  0.00    +0.016 C 
ATOM     12  C   UNL     1       0.454   4.083  -1.227  0.00  0.00    +0.065 C 
ATOM     13  C   UNL     1      -1.479   5.008  -2.449  0.00  0.00    +0.061 C 
ATOM     14  H   UNL     1      -2.596   4.616  -0.018  0.00  0.00    +0.152 HD
ENDROOT
BRANCH   1  20
ATOM     15  C   UNL     1       2.380   1.409  -0.013  0.00  0.00    +0.125 A 
ATOM     16  C   UNL     1       2.396   0.022  -0.022  0.00  0.00    +0.046 A 
ATOM     17  C   UNL     1       1.208  -0.681  -0.014  0.00  0.00    +0.004 A 
ATOM     18  C   UNL     1       0.002  -0.004   0.002  0.00  0.00    +0.001 A 
ATOM     19  C   UNL     1      -0.017   1.378   0.010  0.00  0.00    +0.008 A 
ATOM     20  C   UNL     1       1.170   2.086   0.002  0.00  0.00    +0.006 A 
BRANCH  15  21
ATOM     21  O   UNL     1       3.548   2.104  -0.022  0.00  0.00    -0.492 OA
BRANCH  21  23
ATOM     22  C   UNL     1       5.958   2.288  -0.046  0.00  0.00    +0.048 C 
ATOM     23  C   UNL     1       4.756   1.341  -0.039  0.00  0.00    +0.225 C 
ENDBRANCH  21  23
ENDBRANCH  15  21
ENDBRANCH   1  20
BRANCH   6  24
ATOM     24  C   UNL     1       1.557   5.098   4.654  0.00  0.00    +0.318 C 
ATOM     25  O   UNL     1       1.480   6.253   5.000  0.00  0.00    -0.250 OA
BRANCH  24  26
ATOM     26  O   UNL     1       2.582   4.339   5.073  0.00  0.00    -0.467 OA
ATOM     27  C   UNL     1       3.558   4.971   5.942  0.00  0.00    +0.280 C 
ENDBRANCH  24  26
ENDBRANCH   6  24
BRANCH  12  28
ATOM     28  C   UNL     1       1.145   4.071  -2.461  0.00  0.00    +0.338 C 
ATOM     29  O   UNL     1       0.594   4.465  -3.471  0.00  0.00    -0.245 OA
BRANCH  28  30
ATOM     30  O   UNL     1       2.417   3.623  -2.518  0.00  0.00    -0.458 OA
BRANCH  30  31
ATOM     31  C   UNL     1       3.054   3.639  -3.797  0.00  0.00    +0.177 C 
ATOM     32  C   UNL     1       2.728   2.324  -4.535  0.00  0.00    +0.044 C 
ATOM     33  C   UNL     1       2.942   2.537  -6.009  0.00  0.00    +0.004 C 
ATOM     34  C   UNL     1       4.350   2.111  -6.468  0.00  0.00    +0.000 C 
ATOM     35  C   UNL     1       5.454   2.535  -5.480  0.00  0.00    +0.000 C 
ATOM     36  C   UNL     1       5.246   3.927  -4.947  0.00  0.00    +0.004 C 
ATOM     37  C   UNL     1       4.484   3.830  -3.609  0.00  0.00    +0.044 C 
ENDBRANCH  30  31
ENDBRANCH  28  30
ENDBRANCH  12  28
TORSDOF 8
