REMARK  Name = ZINC39989749
REMARK  11 active torsions:
REMARK  status: ('A' for Active; 'I' for Inactive)
REMARK    1  A    between atoms: C_1  and  C_2
REMARK    2  A    between atoms: C_2  and  N_3
REMARK    3  A    between atoms: C_4  and  N_24
REMARK    4  A    between atoms: C_5  and  C_13
REMARK    5  A    between atoms: C_6  and  C_12
REMARK    6  A    between atoms: C_7  and  C_10
REMARK    7  A    between atoms: N_17  and  C_21
REMARK    8  A    between atoms: C_21  and  C_22
REMARK    9  A    between atoms: C_21  and  C_23
REMARK   10  A    between atoms: C_26  and  C_33
REMARK   11  A    between atoms: C_29  and  C_32
REMARK                            x       y       z     vdW  Elec       q    Type
REMARK                         _______ _______ _______ _____ _____    ______ ____
ROOT
ATOM      1  N   UNL     1       1.145  -0.387  -1.243  0.00  0.00    -0.295 N 
ATOM      2  C   UNL     1       0.305  -0.654  -2.276  0.00  0.00    +0.112 A 
ATOM      3  C   UNL     1       0.717  -1.481  -3.334  0.00  0.00    +0.019 A 
ATOM      4  C   UNL     1       2.009  -2.032  -3.318  0.00  0.00    -0.017 A 
ATOM      5  C   UNL     1       2.851  -1.742  -2.248  0.00  0.00    +0.120 A 
ATOM      6  C   UNL     1       2.389  -0.898  -1.207  0.00  0.00    +0.270 A 
ATOM      7  O   UNL     1       3.123  -0.636  -0.270  0.00  0.00    -0.266 OA
ATOM      8  C   UNL     1       2.475  -2.923  -4.441  0.00  0.00    +0.046 C 
ENDROOT
BRANCH   3   9
ATOM      9  C   UNL     1      -0.194  -1.766  -4.444  0.00  0.00    +0.032 C 
ATOM     10  C   UNL     1       0.102  -1.326  -5.698  0.00  0.00    +0.077 C 
ATOM     11  C   UNL     1      -0.604  -1.529  -6.922  0.00  0.00    +0.259 C 
ATOM     12  O   UNL     1      -1.634  -2.178  -6.952  0.00  0.00    -0.269 OA
ATOM     13  N   UNL     1      -0.106  -0.991  -8.022  0.00  0.00    -0.253 N 
ATOM     14  C   UNL     1       1.037  -0.271  -7.988  0.00  0.00    +0.121 C 
ATOM     15  S   UNL     1       1.854   0.507  -9.277  0.00  0.00    -0.027 S 
ATOM     16  S   UNL     1       1.477  -0.331  -6.258  0.00  0.00    -0.061 S 
BRANCH  13  17
ATOM     17  C   UNL     1      -0.803  -1.179  -9.297  0.00  0.00    +0.077 C 
ATOM     18  C   UNL     1      -1.201   0.184  -9.866  0.00  0.00    +0.028 C 
ATOM     19  C   UNL     1       0.122  -1.894 -10.284  0.00  0.00    +0.028 C 
ENDBRANCH  13  17
ENDBRANCH   3   9
BRANCH   2  20
ATOM     20  N   UNL     1      -0.948  -0.116  -2.285  0.00  0.00    -0.315 N 
ATOM     21  C   UNL     1      -1.212   1.155  -2.973  0.00  0.00    +0.109 C 
ATOM     22  C   UNL     1      -2.370   0.953  -3.955  0.00  0.00    +0.004 C 
ATOM     23  C   UNL     1      -3.576   0.383  -3.204  0.00  0.00    +0.009 C 
ATOM     24  C   UNL     1      -3.209  -0.976  -2.604  0.00  0.00    +0.004 C 
ATOM     25  C   UNL     1      -2.061  -0.799  -1.612  0.00  0.00    +0.109 C 
ATOM     26  C   UNL     1      -4.425  -1.561  -1.882  0.00  0.00    +0.009 C 
ATOM     27  C   UNL     1      -2.748   2.296  -4.583  0.00  0.00    +0.009 C 
ENDBRANCH   2  20
BRANCH   1  29
ATOM     28  C   UNL     1       1.146   1.915  -0.416  0.00  0.00    +0.027 C 
ATOM     29  C   UNL     1       0.691   0.478  -0.151  0.00  0.00    +0.123 C 
ENDBRANCH   1  29
BRANCH   5  30
ATOM     30  C   UNL     1       4.174  -2.289  -2.202  0.00  0.00    +0.105 C 
ATOM     31  N   UNL     1       5.223  -2.722  -2.165  0.00  0.00    -0.191 NA
ENDBRANCH   5  30
TORSDOF 5
