REMARK  Name = ZINC44712474
REMARK  8 active torsions:
REMARK  status: ('A' for Active; 'I' for Inactive)
REMARK    1  A    between atoms: C_3  and  N_21
REMARK    2  A    between atoms: C_6  and  N_7
REMARK    3  A    between atoms: N_7  and  C_8
REMARK    4  A    between atoms: C_11  and  N_18
REMARK    5  A    between atoms: C_13  and  S_14
REMARK    6  A    between atoms: N_21  and  C_22
REMARK    7  A    between atoms: C_25  and  N_32
REMARK    8  A    between atoms: C_27  and  S_28
REMARK                            x       y       z     vdW  Elec       q    Type
REMARK                         _______ _______ _______ _____ _____    ______ ____
ROOT
ATOM      1  C   UNL     1      -0.089   0.918  -0.585  0.00  0.00    +0.025 A 
ATOM      2  C   UNL     1       0.652   1.824   0.148  0.00  0.00    +0.025 A 
ATOM      3  C   UNL     1       1.717   1.383   0.923  0.00  0.00    +0.031 A 
ATOM      4  C   UNL     1       2.037   0.032   0.961  0.00  0.00    +0.025 A 
ATOM      5  C   UNL     1       1.295  -0.873   0.229  0.00  0.00    +0.025 A 
ATOM      6  C   UNL     1       0.230  -0.433  -0.547  0.00  0.00    +0.031 A 
ENDROOT
BRANCH   6   7
ATOM      7  N   UNL     1      -0.521  -1.351  -1.289  0.00  0.00    -0.313 N 
ATOM      8  H   UNL     1      -1.328  -1.062  -1.744  0.00  0.00    +0.152 HD
BRANCH   7   9
ATOM      9  C   UNL     1      -0.110  -2.683  -1.376  0.00  0.00    +0.059 A 
ATOM     10  C   UNL     1      -0.686  -3.644  -0.555  0.00  0.00    +0.027 A 
ATOM     11  C   UNL     1      -0.277  -4.960  -0.643  0.00  0.00    +0.034 A 
ATOM     12  C   UNL     1       0.705  -5.322  -1.547  0.00  0.00    +0.128 A 
ATOM     13  C   UNL     1       1.281  -4.367  -2.365  0.00  0.00    +0.064 A 
ATOM     14  C   UNL     1       0.872  -3.050  -2.287  0.00  0.00    +0.143 A 
BRANCH  14  15
ATOM     15  S   UNL     1       1.601  -1.837  -3.336  0.00  0.00    +0.141 S 
ATOM     16  O   UNL     1       2.770  -1.323  -2.638  0.00  0.00    -0.140 OA
ATOM     17  O   UNL     1       1.960  -2.509  -4.575  0.00  0.00    -0.140 OA
ATOM     18  O   UNL     1       0.598  -0.805  -3.548  0.00  0.00    -0.043 OA
ENDBRANCH  14  15
BRANCH  12  19
ATOM     19  N   UNL     1       1.141  -6.733  -1.639  0.00  0.00    +0.056 N 
ATOM     20  O   UNL     1       0.639  -7.569  -0.924  0.00  0.00    -0.126 OA
ATOM     21  O   UNL     1       2.000  -7.051  -2.429  0.00  0.00    -0.126 OA
ENDBRANCH  12  19
ENDBRANCH   7   9
ENDBRANCH   6   7
BRANCH   3  22
ATOM     22  N   UNL     1       2.470   2.301   1.665  0.00  0.00    -0.313 N 
ATOM     23  H   UNL     1       2.297   3.252   1.579  0.00  0.00    +0.152 HD
BRANCH  22  24
ATOM     24  C   UNL     1       3.468   1.849   2.531  0.00  0.00    +0.059 A 
ATOM     25  C   UNL     1       4.802   1.900   2.143  0.00  0.00    +0.027 A 
ATOM     26  C   UNL     1       5.786   1.452   3.000  0.00  0.00    +0.034 A 
ATOM     27  C   UNL     1       5.447   0.952   4.244  0.00  0.00    +0.128 A 
ATOM     28  C   UNL     1       4.121   0.898   4.633  0.00  0.00    +0.064 A 
ATOM     29  C   UNL     1       3.131   1.351   3.783  0.00  0.00    +0.143 A 
BRANCH  29  30
ATOM     30  S   UNL     1       1.443   1.290   4.283  0.00  0.00    +0.141 S 
ATOM     31  O   UNL     1       0.933  -0.014   3.890  0.00  0.00    -0.140 OA
ATOM     32  O   UNL     1       1.423   1.469   5.726  0.00  0.00    -0.140 OA
ATOM     33  O   UNL     1       0.758   2.372   3.592  0.00  0.00    -0.043 OA
ENDBRANCH  29  30
BRANCH  27  34
ATOM     34  N   UNL     1       6.505   0.472   5.161  0.00  0.00    +0.056 N 
ATOM     35  O   UNL     1       7.665   0.517   4.822  0.00  0.00    -0.126 OA
ATOM     36  O   UNL     1       6.210   0.034   6.249  0.00  0.00    -0.126 OA
ENDBRANCH  27  34
ENDBRANCH  22  24
ENDBRANCH   3  22
TORSDOF 8
