REMARK  Name = ZINC22055545
REMARK  15 active torsions:
REMARK  status: ('A' for Active; 'I' for Inactive)
REMARK    1  A    between atoms: C_1  and  C_2
REMARK    2  A    between atoms: C_3  and  C_32
REMARK    3  A    between atoms: C_4  and  C_23
REMARK    4  A    between atoms: C_5  and  C_9
REMARK    5  A    between atoms: C_6  and  C_8
REMARK    6  A    between atoms: C_9  and  O_11
REMARK    7  A    between atoms: O_11  and  C_12
REMARK    8  A    between atoms: C_12  and  C_13
REMARK    9  A    between atoms: C_13  and  N_14
REMARK   10  A    between atoms: N_14  and  C_15
REMARK   11  A    between atoms: N_14  and  C_16
REMARK   12  A    between atoms: C_16  and  C_17
REMARK   13  A    between atoms: C_27  and  N_29
REMARK   14  A    between atoms: C_32  and  O_34
REMARK   15  A    between atoms: O_34  and  C_35
REMARK                            x       y       z     vdW  Elec       q    Type
REMARK                         _______ _______ _______ _____ _____    ______ ____
ROOT
ATOM      1  C   UNL     1       0.940   8.239   2.245  0.00  0.00    +0.066 C 
ATOM      2  C   UNL     1       0.399   7.446   1.084  0.00  0.00    +0.053 A 
ATOM      3  C   UNL     1       0.435   6.052   1.127  0.00  0.00    +0.088 A 
ATOM      4  C   UNL     1      -0.070   5.324   0.030  0.00  0.00    +0.014 A 
ATOM      5  C   UNL     1      -0.601   6.050  -1.056  0.00  0.00    +0.088 A 
ATOM      6  C   UNL     1      -0.597   7.444  -1.000  0.00  0.00    +0.053 A 
ATOM      7  N   UNL     1      -0.108   8.080   0.045  0.00  0.00    -0.255 NA
ATOM      8  C   UNL     1      -1.160   8.235  -2.153  0.00  0.00    +0.066 C 
ENDROOT
BRANCH   4   9
ATOM      9  C   UNL     1      -0.050   3.845   0.022  0.00  0.00    -0.014 A 
ATOM     10  C   UNL     1      -1.248   3.127   0.030  0.00  0.00    +0.009 A 
ATOM     11  C   UNL     1      -1.222   1.748   0.017  0.00  0.00    +0.003 A 
ATOM     12  C   UNL     1      -0.013   1.076   0.008  0.00  0.00    +0.033 A 
ATOM     13  C   UNL     1       1.178   1.781   0.000  0.00  0.00    +0.127 A 
ATOM     14  C   UNL     1       1.166   3.160   0.007  0.00  0.00    +0.041 A 
BRANCH  13  15
ATOM     15  N   UNL     1       2.467   1.053  -0.016  0.00  0.00    +0.056 N 
ATOM     16  O   UNL     1       2.479  -0.165  -0.022  0.00  0.00    -0.126 OA
ATOM     17  O   UNL     1       3.515   1.673  -0.022  0.00  0.00    -0.126 OA
ENDBRANCH  13  15
ENDBRANCH   4   9
BRANCH   5  18
ATOM     18  C   UNL     1      -1.151   5.348  -2.231  0.00  0.00    +0.341 C 
ATOM     19  O   UNL     1      -2.327   5.044  -2.261  0.00  0.00    -0.245 OA
BRANCH  18  20
ATOM     20  O   UNL     1      -0.349   5.044  -3.270  0.00  0.00    -0.463 OA
BRANCH  20  21
ATOM     21  C   UNL     1      -0.959   4.353  -4.392  0.00  0.00    +0.214 C 
BRANCH  21  22
ATOM     22  C   UNL     1       0.099   4.095  -5.467  0.00  0.00    -0.037 C 
BRANCH  22  23
ATOM     23  N   UNL     1       1.113   3.169  -4.945  0.00  0.00    +0.383 N 
ATOM     24  C   UNL     1       0.535   1.841  -4.697  0.00  0.00    -0.096 C 
ATOM     25  H   UNL     1       1.470   3.567  -3.984  0.00  0.00    -0.082 HD
BRANCH  23  26
ATOM     26  C   UNL     1       2.264   3.081  -5.854  0.00  0.00    -0.043 C 
BRANCH  26  27
ATOM     27  C   UNL     1       3.379   2.325  -5.179  0.00  0.00    -0.064 A 
ATOM     28  C   UNL     1       4.322   3.005  -4.432  0.00  0.00    +0.002 A 
ATOM     29  C   UNL     1       5.343   2.311  -3.809  0.00  0.00    +0.000 A 
ATOM     30  C   UNL     1       5.426   0.938  -3.942  0.00  0.00    +0.000 A 
ATOM     31  C   UNL     1       4.487   0.258  -4.694  0.00  0.00    +0.000 A 
ATOM     32  C   UNL     1       3.463   0.951  -5.313  0.00  0.00    +0.002 A 
ENDBRANCH  26  27
ENDBRANCH  23  26
ENDBRANCH  22  23
ENDBRANCH  21  22
ENDBRANCH  20  21
ENDBRANCH  18  20
ENDBRANCH   5  18
BRANCH   3  33
ATOM     33  C   UNL     1       0.998   5.352   2.297  0.00  0.00    +0.341 C 
ATOM     34  O   UNL     1       2.181   5.079   2.330  0.00  0.00    -0.245 OA
BRANCH  33  35
ATOM     35  O   UNL     1       0.200   5.015   3.329  0.00  0.00    -0.464 OA
ATOM     36  C   UNL     1       0.822   4.329   4.447  0.00  0.00    +0.280 C 
ENDBRANCH  33  35
ENDBRANCH   3  33
TORSDOF 11
