REMARK  Name = ZINC44785436
REMARK  3 active torsions:
REMARK  status: ('A' for Active; 'I' for Inactive)
REMARK    1  A    between atoms: C_13  and  C_15
REMARK    2  A    between atoms: C_15  and  C_20
REMARK    3  A    between atoms: N_21  and  O_22
REMARK                            x       y       z     vdW  Elec       q    Type
REMARK                         _______ _______ _______ _____ _____    ______ ____
ROOT
ATOM      1  C   UNL     1      -0.093   1.543   0.025  0.00  0.00    +0.000 C 
ATOM      2  C   UNL     1       1.349   2.052  -0.007  0.00  0.00    +0.000 C 
ATOM      3  C   UNL     1       2.102   1.531   1.220  0.00  0.00    +0.005 C 
ATOM      4  C   UNL     1       2.098   0.002   1.207  0.00  0.00    +0.010 C 
ATOM      5  C   UNL     1       2.856  -0.524   2.428  0.00  0.00    +0.111 C 
ATOM      6  N   UNL     1       2.117  -0.153   3.643  0.00  0.00    -0.300 N 
ATOM      7  C   UNL     1       0.698  -0.518   3.744  0.00  0.00    +0.108 C 
ATOM      8  C   UNL     1      -0.036   0.015   2.509  0.00  0.00    +0.023 C 
ATOM      9  C   UNL     1       0.654  -0.504   1.247  0.00  0.00    -0.005 C 
ATOM     10  C   UNL     1      -0.096   0.013   0.016  0.00  0.00    +0.004 C 
ATOM     11  C   UNL     1       2.729   0.510   4.644  0.00  0.00    +0.229 C 
ATOM     12  O   UNL     1       3.922   0.723   4.590  0.00  0.00    -0.275 OA
ENDROOT
BRANCH  11  13
ATOM     13  C   UNL     1       1.932   0.987   5.830  0.00  0.00    +0.105 C 
ATOM     14  C   UNL     1       0.790   1.907   5.362  0.00  0.00    +0.024 C 
ATOM     15  C   UNL     1       1.029   3.279   6.027  0.00  0.00    +0.001 C 
ATOM     16  C   UNL     1       2.548   3.294   6.331  0.00  0.00    +0.001 C 
ATOM     17  C   UNL     1       2.825   1.832   6.762  0.00  0.00    +0.024 C 
BRANCH  13  18
ATOM     18  C   UNL     1       1.371  -0.192   6.582  0.00  0.00    +0.147 C 
ATOM     19  N   UNL     1       0.560  -0.002   7.570  0.00  0.00    -0.076 NA
ATOM     20  N   UNL     1       1.722  -1.473   6.216  0.00  0.00    -0.343 N 
ATOM     21  H   UNL     1       2.388  -1.614   5.525  0.00  0.00    +0.144 HD
ATOM     22  H   UNL     1       1.303  -2.233   6.649  0.00  0.00    +0.144 HD
BRANCH  19  23
ATOM     23  O   UNL     1       0.286   1.313   8.017  0.00  0.00    -0.408 OA
ATOM     24  H   UNL     1      -0.332   1.355   8.761  0.00  0.00    +0.328 HD
ENDBRANCH  19  23
ENDBRANCH  13  18
ENDBRANCH  11  13
TORSDOF 3
