REMARK  Name = ZINC39869532
REMARK  10 active torsions:
REMARK  status: ('A' for Active; 'I' for Inactive)
REMARK    1  A    between atoms: C_1  and  C_2
REMARK    2  A    between atoms: C_5  and  C_36
REMARK    3  A    between atoms: C_6  and  N_8
REMARK    4  A    between atoms: C_9  and  C_11
REMARK    5  A    between atoms: C_11  and  S_12
REMARK    6  A    between atoms: S_12  and  C_13
REMARK    7  A    between atoms: N_21  and  C_24
REMARK    8  A    between atoms: C_24  and  C_25
REMARK    9  A    between atoms: C_24  and  C_26
REMARK   10  A    between atoms: N_29  and  C_30
REMARK                            x       y       z     vdW  Elec       q    Type
REMARK                         _______ _______ _______ _____ _____    ______ ____
ROOT
ATOM      1  C   UNL     1       0.542  -2.770   7.656  0.00  0.00    +0.178 A 
ATOM      2  N   UNL     1       0.553  -4.079   7.507  0.00  0.00    -0.215 NA
ATOM      3  C   UNL     1       0.656  -4.883   8.559  0.00  0.00    +0.117 A 
ATOM      4  C   UNL     1       0.758  -4.389   9.871  0.00  0.00    +0.076 A 
ATOM      5  C   UNL     1       0.865  -5.398  10.924  0.00  0.00    -0.020 A 
ATOM      6  C   UNL     1       0.856  -6.692  10.539  0.00  0.00    +0.010 A 
ATOM      7  S   UNL     1       0.706  -6.645   8.775  0.00  0.00    -0.072 S 
ATOM      8  C   UNL     1       0.954  -7.890  11.432  0.00  0.00    +0.127 C 
ATOM      9  N   UNL     1       1.416  -7.440  12.759  0.00  0.00    -0.295 NA
ATOM     10  C   UNL     1       0.624  -6.291  13.221  0.00  0.00    +0.089 C 
ATOM     11  C   UNL     1       0.981  -5.046  12.405  0.00  0.00    +0.052 C 
ATOM     12  C   UNL     1       0.744  -2.965  10.003  0.00  0.00    +0.268 A 
ATOM     13  O   UNL     1       0.829  -2.446  11.103  0.00  0.00    -0.267 OA
ATOM     14  N   UNL     1       0.643  -2.205   8.897  0.00  0.00    -0.255 N 
ENDROOT
BRANCH  14  15
ATOM     15  C   UNL     1       0.634  -0.809   9.020  0.00  0.00    +0.052 A 
ATOM     16  C   UNL     1       1.763  -0.144   9.479  0.00  0.00    +0.026 A 
ATOM     17  C   UNL     1       1.752   1.231   9.598  0.00  0.00    +0.002 A 
ATOM     18  C   UNL     1       0.617   1.947   9.261  0.00  0.00    +0.000 A 
ATOM     19  C   UNL     1      -0.509   1.287   8.804  0.00  0.00    +0.002 A 
ATOM     20  C   UNL     1      -0.502  -0.088   8.677  0.00  0.00    +0.026 A 
ENDBRANCH  14  15
BRANCH   9  21
ATOM     21  C   UNL     1       1.368  -8.539  13.733  0.00  0.00    +0.051 C 
ATOM     22  C   UNL     1       2.192  -9.718  13.213  0.00  0.00    +0.024 C 
ATOM     23  C   UNL     1       1.945  -8.062  15.067  0.00  0.00    +0.024 C 
ENDBRANCH   9  21
BRANCH   1  24
ATOM     24  S   UNL     1       0.404  -1.734   6.238  0.00  0.00    -0.078 S 
BRANCH  24  25
ATOM     25  C   UNL     1       0.300  -2.900   4.852  0.00  0.00    +0.173 C 
BRANCH  25  27
ATOM     26  N   UNL     1       0.084  -2.797   2.390  0.00  0.00    -0.285 N 
ATOM     27  C   UNL     1       0.176  -2.134   3.560  0.00  0.00    +0.227 C 
ATOM     28  O   UNL     1       0.161  -0.921   3.572  0.00  0.00    -0.275 OA
ATOM     29  H   UNL     1       0.015  -3.764   2.385  0.00  0.00    +0.155 HD
BRANCH  26  35
ATOM     30  C   UNL     1       1.315   1.226  -0.154  0.00  0.00    +0.044 C 
ATOM     31  C   UNL     1       0.677  -0.137  -0.079  0.00  0.00    -0.049 A 
ATOM     32  C   UNL     1       0.093  -0.690  -1.204  0.00  0.00    +0.004 A 
ATOM     33  C   UNL     1      -0.493  -1.940  -1.139  0.00  0.00    +0.005 A 
ATOM     34  C   UNL     1      -0.498  -2.642   0.051  0.00  0.00    -0.029 A 
ATOM     35  C   UNL     1       0.087  -2.089   1.183  0.00  0.00    +0.037 A 
ATOM     36  C   UNL     1       0.680  -0.835   1.113  0.00  0.00    +0.027 A 
ATOM     37  C   UNL     1      -1.137  -4.004   0.121  0.00  0.00    +0.045 C 
ENDBRANCH  26  35
ENDBRANCH  25  27
ENDBRANCH  24  25
ENDBRANCH   1  24
TORSDOF 6
