REMARK  Name = ZINC01283875
REMARK  11 active torsions:
REMARK  status: ('A' for Active; 'I' for Inactive)
REMARK    1  A    between atoms: C_1  and  C_2
REMARK    2  A    between atoms: C_3  and  C_30
REMARK    3  A    between atoms: C_4  and  C_21
REMARK    4  A    between atoms: C_9  and  S_11
REMARK    5  A    between atoms: S_11  and  C_12
REMARK    6  A    between atoms: C_12  and  C_13
REMARK    7  A    between atoms: C_26  and  N_27
REMARK    8  A    between atoms: C_30  and  O_32
REMARK    9  A    between atoms: O_32  and  C_33
REMARK   10  A    between atoms: C_33  and  C_34
REMARK   11  A    between atoms: C_33  and  C_35
REMARK                            x       y       z     vdW  Elec       q    Type
REMARK                         _______ _______ _______ _____ _____    ______ ____
ROOT
ATOM      1  C   UNL     1      -2.096   2.539   1.799  0.00  0.00    +0.061 C 
ATOM      2  C   UNL     1      -1.646   1.232   1.198  0.00  0.00    +0.020 C 
ATOM      3  C   UNL     1      -2.537   0.238   1.068  0.00  0.00    +0.082 C 
ATOM      4  C   UNL     1      -2.187  -1.108   0.491  0.00  0.00    +0.181 C 
ATOM      5  N   UNL     1      -0.873  -1.039  -0.141  0.00  0.00    -0.220 N 
ATOM      6  C   UNL     1      -0.016  -0.001   0.020  0.00  0.00    +0.219 A 
ATOM      7  N   UNL     1       1.063  -0.254  -0.669  0.00  0.00    -0.187 NA
ATOM      8  C   UNL     1       0.934  -1.438  -1.284  0.00  0.00    +0.211 A 
ATOM      9  N   UNL     1      -0.241  -1.950  -0.986  0.00  0.00    -0.141 NA
ATOM     10  N   UNL     1      -0.340   1.101   0.798  0.00  0.00    -0.287 N 
ATOM     11  H   UNL     1       0.333   1.753   1.051  0.00  0.00    +0.155 HD
ENDROOT
BRANCH   4  12
ATOM     12  C   UNL     1      -2.162  -2.136   1.593  0.00  0.00    +0.012 A 
ATOM     13  C   UNL     1      -1.367  -1.936   2.706  0.00  0.00    +0.008 A 
ATOM     14  C   UNL     1      -1.343  -2.878   3.717  0.00  0.00    +0.000 A 
ATOM     15  C   UNL     1      -2.115  -4.021   3.615  0.00  0.00    +0.002 A 
ATOM     16  C   UNL     1      -2.911  -4.220   2.502  0.00  0.00    +0.033 A 
ATOM     17  C   UNL     1      -2.937  -3.276   1.493  0.00  0.00    +0.132 A 
BRANCH  17  18
ATOM     18  N   UNL     1      -3.793  -3.487   0.304  0.00  0.00    +0.057 N 
ATOM     19  O   UNL     1      -4.900  -3.956   0.431  0.00  0.00    -0.126 OA
ATOM     20  O   UNL     1      -3.385  -3.190  -0.795  0.00  0.00    -0.126 OA
ENDBRANCH  17  18
ENDBRANCH   4  12
BRANCH   3  21
ATOM     21  C   UNL     1      -3.866   0.464   1.491  0.00  0.00    +0.339 C 
ATOM     22  O   UNL     1      -4.179   1.542   1.961  0.00  0.00    -0.245 OA
BRANCH  21  23
ATOM     23  O   UNL     1      -4.787  -0.515   1.374  0.00  0.00    -0.459 OA
BRANCH  23  24
ATOM     24  C   UNL     1      -6.111  -0.217   1.821  0.00  0.00    +0.171 C 
ATOM     25  C   UNL     1      -7.121  -1.022   1.001  0.00  0.00    +0.052 C 
ATOM     26  C   UNL     1      -6.245  -0.587   3.300  0.00  0.00    +0.052 C 
ENDBRANCH  23  24
ENDBRANCH  21  23
ENDBRANCH   3  21
BRANCH   8  27
ATOM     27  S   UNL     1       2.142  -2.188  -2.325  0.00  0.00    -0.080 S 
BRANCH  27  28
ATOM     28  C   UNL     1       3.513  -0.999  -2.333  0.00  0.00    +0.114 C 
BRANCH  28  29
ATOM     29  C   UNL     1       4.629  -1.525  -3.199  0.00  0.00    -0.019 A 
ATOM     30  C   UNL     1       5.617  -2.318  -2.646  0.00  0.00    +0.006 A 
ATOM     31  C   UNL     1       6.641  -2.800  -3.440  0.00  0.00    +0.000 A 
ATOM     32  C   UNL     1       6.677  -2.490  -4.787  0.00  0.00    +0.001 A 
ATOM     33  C   UNL     1       5.689  -1.697  -5.340  0.00  0.00    +0.020 A 
ATOM     34  C   UNL     1       4.661  -1.219  -4.547  0.00  0.00    +0.045 A 
ATOM     35 CL   UNL     1       3.417  -0.228  -5.243  0.00  0.00    -0.083 Cl
ENDBRANCH  28  29
ENDBRANCH  27  28
ENDBRANCH   8  27
TORSDOF 8
