REMARK  Name = ZINC36500669
REMARK  17 active torsions:
REMARK  status: ('A' for Active; 'I' for Inactive)
REMARK    1  A    between atoms: C_1  and  C_2
REMARK    2  A    between atoms: C_5  and  C_8
REMARK    3  A    between atoms: C_8  and  C_10
REMARK    4  A    between atoms: C_8  and  N_21
REMARK    5  A    between atoms: N_12  and  C_13
REMARK    6  A    between atoms: C_13  and  C_14
REMARK    7  A    between atoms: C_13  and  C_15
REMARK    8  A    between atoms: C_13  and  C_16
REMARK    9  A    between atoms: C_16  and  C_17
REMARK   10  A    between atoms: C_17  and  C_18
REMARK   11  A    between atoms: C_17  and  C_19
REMARK   12  A    between atoms: C_17  and  C_20
REMARK   13  A    between atoms: N_21  and  C_22
REMARK   14  A    between atoms: C_22  and  C_23
REMARK   15  A    between atoms: C_28  and  C_30
REMARK   16  A    between atoms: C_31  and  O_37
REMARK   17  A    between atoms: C_35  and  O_36
REMARK                            x       y       z     vdW  Elec       q    Type
REMARK                         _______ _______ _______ _____ _____    ______ ____
ROOT
ATOM      1  C   UNL     1      -1.197  -6.605  -1.563  0.00  0.00    +0.193 C 
ENDROOT
BRANCH   1   6
ATOM      2  C   UNL     1      -1.252  -2.450   2.453  0.00  0.00    +0.044 C 
ATOM      3  C   UNL     1      -1.237  -3.534   1.405  0.00  0.00    -0.050 A 
ATOM      4  C   UNL     1      -1.410  -3.209   0.073  0.00  0.00    +0.004 A 
ATOM      5  C   UNL     1      -1.397  -4.203  -0.888  0.00  0.00    +0.006 A 
ATOM      6  C   UNL     1      -1.210  -5.522  -0.516  0.00  0.00    -0.018 A 
ATOM      7  C   UNL     1      -1.037  -5.846   0.817  0.00  0.00    +0.006 A 
ATOM      8  C   UNL     1      -1.046  -4.851   1.777  0.00  0.00    +0.004 A 
ENDBRANCH   1   6
BRANCH   1   9
ATOM      9  C   UNL     1      -2.470  -7.406  -1.474  0.00  0.00    +0.239 C 
ATOM     10  O   UNL     1      -2.433  -8.571  -1.140  0.00  0.00    -0.273 OA
ATOM     11  N   UNL     1      -3.652  -6.826  -1.765  0.00  0.00    -0.308 N 
ATOM     12  H   UNL     1      -3.682  -5.894  -2.032  0.00  0.00    +0.149 HD
BRANCH  11  13
ATOM     13  C   UNL     1      -4.890  -7.604  -1.679  0.00  0.00    +0.030 C 
ATOM     14  C   UNL     1      -4.730  -8.907  -2.466  0.00  0.00    +0.031 C 
ATOM     15  C   UNL     1      -5.189  -7.927  -0.213  0.00  0.00    +0.031 C 
BRANCH  13  16
ATOM     16  C   UNL     1      -6.045  -6.792  -2.268  0.00  0.00    +0.031 C 
BRANCH  16  17
ATOM     17  C   UNL     1      -5.986  -5.360  -1.732  0.00  0.00    -0.036 C 
ATOM     18  C   UNL     1      -4.810  -4.622  -2.375  0.00  0.00    +0.010 C 
ATOM     19  C   UNL     1      -7.290  -4.634  -2.071  0.00  0.00    +0.010 C 
ATOM     20  C   UNL     1      -5.800  -5.391  -0.213  0.00  0.00    +0.010 C 
ENDBRANCH  16  17
ENDBRANCH  13  16
ENDBRANCH  11  13
ENDBRANCH   1   9
BRANCH   1  21
ATOM     21  N   UNL     1      -0.049  -7.488  -1.337  0.00  0.00    -0.274 N 
ATOM     22  C   UNL     1       1.201  -7.040  -1.568  0.00  0.00    +0.255 C 
ATOM     23  O   UNL     1       1.376  -5.903  -1.963  0.00  0.00    -0.270 OA
BRANCH  22  24
ATOM     24  C   UNL     1       2.354  -7.926  -1.342  0.00  0.00    +0.119 A 
ATOM     25  C   UNL     1       2.839  -8.734  -2.381  0.00  0.00    +0.133 A 
ATOM     26  C   UNL     1       3.925  -9.565  -2.157  0.00  0.00    +0.046 A 
ATOM     27  C   UNL     1       4.531  -9.598  -0.915  0.00  0.00    +0.007 A 
ATOM     28  C   UNL     1       4.062  -8.806   0.116  0.00  0.00    +0.046 A 
ATOM     29  C   UNL     1       2.980  -7.964  -0.087  0.00  0.00    +0.133 A 
BRANCH  29  30
ATOM     30  O   UNL     1       2.526  -7.184   0.925  0.00  0.00    -0.506 OA
ATOM     31  H   UNL     1       1.847  -7.604   1.471  0.00  0.00    +0.292 HD
ENDBRANCH  29  30
BRANCH  25  32
ATOM     32  O   UNL     1       2.245  -8.704  -3.600  0.00  0.00    -0.506 OA
ATOM     33  H   UNL     1       2.619  -8.047  -4.203  0.00  0.00    +0.292 HD
ENDBRANCH  25  32
ENDBRANCH  22  24
BRANCH  21  34
ATOM     34  C   UNL     1      -0.260  -8.857  -0.862  0.00  0.00    +0.183 C 
BRANCH  34  35
ATOM     35  C   UNL     1      -0.547  -9.758  -2.035  0.00  0.00    +0.122 A 
ATOM     36  C   UNL     1       0.358 -10.503  -2.694  0.00  0.00    +0.046 A 
ATOM     37  C   UNL     1      -0.341 -11.187  -3.716  0.00  0.00    +0.041 A 
ATOM     38  C   UNL     1      -1.631 -10.819  -3.619  0.00  0.00    +0.195 A 
ATOM     39  O   UNL     1      -1.751  -9.958  -2.596  0.00  0.00    -0.466 OA
ENDBRANCH  34  35
ENDBRANCH  21  34
ENDBRANCH   1  21
TORSDOF 11
