REMARK  Name = ZINC44170548
REMARK  10 active torsions:
REMARK  status: ('A' for Active; 'I' for Inactive)
REMARK    1  A    between atoms: C_1  and  C_2
REMARK    2  A    between atoms: C_2  and  C_3
REMARK    3  A    between atoms: C_8  and  C_9
REMARK    4  A    between atoms: C_15  and  C_18
REMARK    5  A    between atoms: C_23  and  C_26
REMARK    6  A    between atoms: C_26  and  C_27
REMARK    7  A    between atoms: C_33  and  C_39
REMARK    8  A    between atoms: C_33  and  C_40
REMARK    9  A    between atoms: C_36  and  C_37
REMARK   10  A    between atoms: C_36  and  C_38
REMARK                            x       y       z     vdW  Elec       q    Type
REMARK                         _______ _______ _______ _____ _____    ______ ____
ROOT
ATOM      1  C   UNL     1      -1.176  -0.243  -2.609  0.00  0.00    -0.027 C 
ATOM      2  C   UNL     1      -1.051   1.270  -2.824  0.00  0.00    +0.092 C 
ATOM      3  S   UNL     1      -0.072   1.553  -4.332  0.00  0.00    +0.020 S 
ATOM      4  O   UNL     1      -0.208   2.908  -4.738  0.00  0.00    -0.257 OA
ATOM      5  C   UNL     1      -0.890   0.471  -5.546  0.00  0.00    +0.097 C 
ATOM      6  C   UNL     1      -1.040  -0.922  -4.924  0.00  0.00    +0.029 C 
ATOM      7  N   UNL     1      -1.892  -0.846  -3.736  0.00  0.00    +0.392 N 
ATOM      8  H   UNL     1      -2.186  -1.776  -3.480  0.00  0.00    -0.084 HD
ATOM      9  H   UNL     1      -2.706  -0.289  -3.946  0.00  0.00    -0.084 HD
ENDROOT
BRANCH   1  15
ATOM     10  C   UNL     1      -1.297  -0.404  -0.113  0.00  0.00    -0.046 A 
ATOM     11  C   UNL     1      -2.000  -0.644   1.050  0.00  0.00    +0.008 A 
ATOM     12  C   UNL     1      -3.344  -0.992   1.003  0.00  0.00    -0.038 A 
ATOM     13  C   UNL     1      -3.980  -1.093  -0.214  0.00  0.00    -0.038 A 
ATOM     14  C   UNL     1      -3.270  -0.855  -1.383  0.00  0.00    +0.006 A 
ATOM     15  C   UNL     1      -1.936  -0.506  -1.335  0.00  0.00    -0.057 A 
ATOM     16  C   UNL     1      -5.439  -1.450  -0.339  0.00  0.00    -0.010 C 
ATOM     17  C   UNL     1      -5.948  -2.088   0.951  0.00  0.00    +0.012 C 
ATOM     18  C   UNL     1      -5.563  -1.180   2.125  0.00  0.00    +0.012 C 
ATOM     19  C   UNL     1      -4.048  -1.247   2.310  0.00  0.00    -0.010 C 
ATOM     20  C   UNL     1      -3.664  -2.635   2.826  0.00  0.00    +0.016 C 
ATOM     21  C   UNL     1      -3.617  -0.193   3.330  0.00  0.00    +0.016 C 
ATOM     22  C   UNL     1      -6.245  -0.182  -0.628  0.00  0.00    +0.016 C 
ATOM     23  C   UNL     1      -5.620  -2.436  -1.495  0.00  0.00    +0.016 C 
BRANCH  10  25
ATOM     24  C   UNL     1       1.020  -1.276  -0.245  0.00  0.00    +0.009 C 
ATOM     25  C   UNL     1       0.160  -0.026  -0.051  0.00  0.00    +0.032 C 
ENDBRANCH  10  25
ENDBRANCH   1  15
BRANCH   6  26
ATOM     26  C   UNL     1       0.319  -1.444  -4.534  0.00  0.00    +0.202 C 
ATOM     27  O   UNL     1       1.312  -0.794  -4.779  0.00  0.00    -0.277 OA
ATOM     28  N   UNL     1       0.430  -2.635  -3.912  0.00  0.00    -0.303 N 
ATOM     29  C   UNL     1      -0.749  -3.491  -3.718  0.00  0.00    +0.108 C 
ATOM     30  C   UNL     1      -0.446  -4.882  -4.285  0.00  0.00    +0.023 C 
ATOM     31  C   UNL     1       0.835  -5.422  -3.645  0.00  0.00    -0.004 C 
ATOM     32  C   UNL     1       2.006  -4.497  -3.984  0.00  0.00    +0.023 C 
ATOM     33  C   UNL     1       1.732  -3.104  -3.420  0.00  0.00    +0.108 C 
BRANCH  31  34
ATOM     34  C   UNL     1       1.121  -6.825  -4.183  0.00  0.00    +0.038 C 
BRANCH  34  35
ATOM     35  C   UNL     1       2.312  -7.405  -3.464  0.00  0.00    -0.047 A 
ATOM     36  C   UNL     1       3.586  -7.201  -3.959  0.00  0.00    +0.003 A 
ATOM     37  C   UNL     1       4.678  -7.733  -3.299  0.00  0.00    +0.000 A 
ATOM     38  C   UNL     1       4.495  -8.470  -2.144  0.00  0.00    +0.000 A 
ATOM     39  C   UNL     1       3.221  -8.674  -1.648  0.00  0.00    +0.000 A 
ATOM     40  C   UNL     1       2.130  -8.138  -2.305  0.00  0.00    +0.003 A 
ENDBRANCH  34  35
ENDBRANCH  31  34
ENDBRANCH   6  26
TORSDOF 5
