REMARK  Name = ZINC41037348
REMARK  4 active torsions:
REMARK  status: ('A' for Active; 'I' for Inactive)
REMARK    1  A    between atoms: C_1  and  C_2
REMARK    2  A    between atoms: C_8  and  C_9
REMARK    3  A    between atoms: C_8  and  N_12
REMARK    4  A    between atoms: C_13  and  C_15
REMARK                            x       y       z     vdW  Elec       q    Type
REMARK                         _______ _______ _______ _____ _____    ______ ____
ROOT
ATOM      1  N   UNL     1       0.762  -1.976   1.234  0.00  0.00    -0.296 N 
ATOM      2  C   UNL     1       1.364  -2.647   2.235  0.00  0.00    +0.245 C 
ATOM      3  O   UNL     1       1.891  -2.038   3.144  0.00  0.00    -0.270 OA
ATOM      4  H   UNL     1       0.342  -2.462   0.507  0.00  0.00    +0.150 HD
ENDROOT
BRANCH   2   5
ATOM      5  C   UNL     1       1.384  -4.132   2.227  0.00  0.00    +0.047 A 
ATOM      6  C   UNL     1       0.783  -4.843   1.187  0.00  0.00    +0.083 A 
ATOM      7  C   UNL     1       0.814  -6.231   1.201  0.00  0.00    +0.252 A 
ATOM      8  N   UNL     1       1.421  -6.894   2.212  0.00  0.00    -0.290 N 
ATOM      9  C   UNL     1       2.011  -6.226   3.230  0.00  0.00    +0.252 A 
ATOM     10  C   UNL     1       2.010  -4.838   3.256  0.00  0.00    +0.083 A 
ATOM     11  O   UNL     1       2.604  -6.909   4.217  0.00  0.00    -0.268 OA
ATOM     12  O   UNL     1       0.239  -6.919   0.207  0.00  0.00    -0.268 OA
ATOM     13  H   UNL     1       1.434  -7.864   2.207  0.00  0.00    +0.172 HD
ENDBRANCH   2   5
BRANCH   1  20
ATOM     14  C   UNL     1      -0.019   1.526   0.010  0.00  0.00    +0.010 C 
ATOM     15  C   UNL     1       0.002  -0.004   0.002  0.00  0.00    +0.020 C 
ATOM     16  C   UNL     1      -1.433  -0.534   0.013  0.00  0.00    +0.006 C 
ATOM     17  C   UNL     1      -2.149  -0.040   1.272  0.00  0.00    +0.000 C 
ATOM     18  C   UNL     1      -1.409  -0.547   2.511  0.00  0.00    +0.003 C 
ATOM     19  C   UNL     1       0.026  -0.018   2.500  0.00  0.00    +0.038 C 
ATOM     20  C   UNL     1       0.742  -0.511   1.242  0.00  0.00    +0.139 C 
BRANCH  20  21
ATOM     21  C   UNL     1       2.156   0.011   1.231  0.00  0.00    +0.379 C 
ATOM     22  O   UNL     1       2.362   1.212   1.235  0.00  0.00    -0.244 OA
ATOM     23  O   UNL     1       3.093  -0.769   1.218  0.00  0.00    -0.244 OA
ENDBRANCH  20  21
ENDBRANCH   1  20
TORSDOF 3
