REMARK  Name = ZINC07127390
REMARK  5 active torsions:
REMARK  status: ('A' for Active; 'I' for Inactive)
REMARK    1  A    between atoms: C_1  and  C_2
REMARK    2  A    between atoms: C_5  and  N_8
REMARK    3  A    between atoms: C_13  and  C_16
REMARK    4  A    between atoms: C_16  and  C_17
REMARK    5  A    between atoms: N_19  and  C_20
REMARK                            x       y       z     vdW  Elec       q    Type
REMARK                         _______ _______ _______ _____ _____    ______ ____
ROOT
ATOM      1  N   UNL     1       0.043  -4.163  -0.052  0.00  0.00    -0.226 NA
ATOM      2  C   UNL     1       0.862  -4.805   0.747  0.00  0.00    +0.161 C 
ATOM      3  N   UNL     1       1.760  -4.276   1.650  0.00  0.00    -0.264 N 
ATOM      4  C   UNL     1       2.537  -5.034   2.405  0.00  0.00    +0.232 C 
ATOM      5  O   UNL     1       3.324  -4.562   3.198  0.00  0.00    -0.274 OA
ATOM      6  C   UNL     1       2.381  -6.535   2.218  0.00  0.00    +0.149 C 
ATOM      7  S   UNL     1       1.070  -6.571   0.927  0.00  0.00    -0.077 S 
ATOM      8  H   UNL     1       1.824  -3.312   1.734  0.00  0.00    +0.157 HD
ENDROOT
BRANCH   1  13
ATOM      9  C   UNL     1      -0.049   1.482  -0.059  0.00  0.00    +0.044 C 
ATOM     10  C   UNL     1      -0.024  -0.025  -0.057  0.00  0.00    -0.050 A 
ATOM     11  C   UNL     1      -0.020  -0.715  -1.256  0.00  0.00    +0.005 A 
ATOM     12  C   UNL     1       0.003  -2.094  -1.262  0.00  0.00    +0.028 A 
ATOM     13  C   UNL     1       0.021  -2.794  -0.054  0.00  0.00    +0.067 A 
ATOM     14  C   UNL     1       0.017  -2.091   1.153  0.00  0.00    +0.028 A 
ATOM     15  C   UNL     1      -0.001  -0.712   1.144  0.00  0.00    +0.005 A 
ENDBRANCH   1  13
BRANCH   6  16
ATOM     16  C   UNL     1       3.680  -7.169   1.717  0.00  0.00    +0.120 C 
BRANCH  16  17
ATOM     17  C   UNL     1       3.520  -8.666   1.663  0.00  0.00    +0.219 C 
ATOM     18  O   UNL     1       2.470  -9.176   1.993  0.00  0.00    -0.275 OA
ATOM     19  N   UNL     1       4.543  -9.439   1.248  0.00  0.00    -0.285 N 
ATOM     20  H   UNL     1       5.359  -9.029   0.922  0.00  0.00    +0.155 HD
BRANCH  19  21
ATOM     21  C   UNL     1       4.428 -10.830   1.287  0.00  0.00    +0.041 A 
ATOM     22  C   UNL     1       3.214 -11.435   1.040  0.00  0.00    +0.024 A 
ATOM     23  C   UNL     1       3.089 -12.820   1.077  0.00  0.00    +0.002 A 
ATOM     24  C   UNL     1       4.158 -13.616   1.356  0.00  0.00    +0.008 A 
ATOM     25  C   UNL     1       5.414 -13.039   1.613  0.00  0.00    -0.016 A 
ATOM     26  C   UNL     1       5.555 -11.630   1.574  0.00  0.00    +0.003 A 
ATOM     27  C   UNL     1       6.810 -11.055   1.826  0.00  0.00    +0.010 A 
ATOM     28  C   UNL     1       7.876 -11.857   2.100  0.00  0.00    +0.001 A 
ATOM     29  C   UNL     1       7.739 -13.244   2.133  0.00  0.00    +0.001 A 
ATOM     30  C   UNL     1       6.535 -13.835   1.904  0.00  0.00    +0.008 A 
ENDBRANCH  19  21
ENDBRANCH  16  17
ENDBRANCH   6  16
TORSDOF 4
