REMARK  Name = ZINC12288381
REMARK  15 active torsions:
REMARK  status: ('A' for Active; 'I' for Inactive)
REMARK    1  A    between atoms: C_1  and  C_2
REMARK    2  A    between atoms: C_2  and  C_3
REMARK    3  A    between atoms: C_3  and  C_4
REMARK    4  A    between atoms: C_4  and  N_5
REMARK    5  A    between atoms: N_5  and  C_6
REMARK    6  A    between atoms: N_5  and  S_7
REMARK    7  A    between atoms: S_7  and  C_10
REMARK    8  A    between atoms: C_13  and  C_16
REMARK    9  A    between atoms: C_16  and  N_18
REMARK   10  A    between atoms: N_20  and  C_31
REMARK   11  A    between atoms: C_23  and  N_28
REMARK   12  A    between atoms: C_31  and  C_32
REMARK   13  A    between atoms: C_32  and  O_33
REMARK   14  A    between atoms: O_33  and  C_34
REMARK   15  A    between atoms: C_34  and  C_35
REMARK                            x       y       z     vdW  Elec       q    Type
REMARK                         _______ _______ _______ _____ _____    ______ ____
ROOT
ATOM      1  N   UNL     1       1.333   3.373  -0.044  0.00  0.00    -0.152 NA
ATOM      2  C   UNL     1       1.151   2.058  -0.009  0.00  0.00    +0.167 A 
ATOM      3  N   UNL     1      -0.022   1.369   0.025  0.00  0.00    -0.319 N 
ATOM      4  C   UNL     1      -0.013  -0.013   0.058  0.00  0.00    +0.060 A 
ATOM      5  C   UNL     1      -1.108  -0.890   0.096  0.00  0.00    +0.059 A 
ATOM      6  C   UNL     1      -0.918  -2.251   0.127  0.00  0.00    +0.128 A 
ATOM      7  C   UNL     1       0.354  -2.799   0.121  0.00  0.00    +0.034 A 
ATOM      8  C   UNL     1       1.452  -1.957   0.084  0.00  0.00    +0.019 A 
ATOM      9  C   UNL     1       1.263  -0.596   0.054  0.00  0.00    +0.039 A 
ATOM     10  S   UNL     1       2.351   0.806   0.004  0.00  0.00    -0.052 S 
ENDROOT
BRANCH   6  11
ATOM     11  N   UNL     1      -2.095  -3.149   0.167  0.00  0.00    +0.056 N 
ATOM     12  O   UNL     1      -1.939  -4.356   0.194  0.00  0.00    -0.126 OA
ATOM     13  O   UNL     1      -3.219  -2.679   0.172  0.00  0.00    -0.126 OA
ENDBRANCH   6  11
BRANCH   1  14
ATOM     14  C   UNL     1       2.571   3.876  -0.074  0.00  0.00    +0.269 C 
ATOM     15  O   UNL     1       3.533   3.127  -0.070  0.00  0.00    -0.268 OA
BRANCH  14  19
ATOM     16  C   UNL     1       3.154   8.085  -0.188  0.00  0.00    +0.106 A 
ATOM     17  C   UNL     1       4.248   7.237  -0.182  0.00  0.00    +0.029 A 
ATOM     18  C   UNL     1       4.065   5.870  -0.145  0.00  0.00    +0.015 A 
ATOM     19  C   UNL     1       2.774   5.343  -0.114  0.00  0.00    +0.039 A 
ATOM     20  C   UNL     1       1.675   6.202  -0.125  0.00  0.00    +0.015 A 
ATOM     21  C   UNL     1       1.871   7.567  -0.157  0.00  0.00    +0.029 A 
BRANCH  16  22
ATOM     22  S   UNL     1       3.396   9.829  -0.235  0.00  0.00    +0.061 S 
ATOM     23  O   UNL     1       2.226  10.416   0.318  0.00  0.00    -0.153 OA
ATOM     24  O   UNL     1       4.693  10.074   0.292  0.00  0.00    -0.153 OA
BRANCH  22  25
ATOM     25  N   UNL     1       3.440  10.274  -1.829  0.00  0.00    -0.180 NA
ATOM     26  C   UNL     1       2.204  10.646  -2.521  0.00  0.00    +0.131 C 
BRANCH  25  27
ATOM     27  C   UNL     1       4.717  10.297  -2.548  0.00  0.00    +0.109 C 
BRANCH  27  28
ATOM     28  C   UNL     1       4.908   8.973  -3.290  0.00  0.00    +0.017 C 
BRANCH  28  30
ATOM     29  C   UNL     1       6.431   7.672  -4.783  0.00  0.00    +0.004 C 
ATOM     30  C   UNL     1       6.241   8.996  -4.041  0.00  0.00    -0.002 C 
ENDBRANCH  28  30
ENDBRANCH  27  28
ENDBRANCH  25  27
ENDBRANCH  22  25
ENDBRANCH  16  22
ENDBRANCH  14  19
ENDBRANCH   1  14
BRANCH   3  31
ATOM     31  C   UNL     1      -1.296   2.092   0.020  0.00  0.00    +0.152 C 
BRANCH  31  32
ATOM     32  C   UNL     1      -1.161   3.368   0.853  0.00  0.00    +0.181 C 
BRANCH  32  33
ATOM     33  O   UNL     1      -2.436   4.005   0.960  0.00  0.00    -0.378 OA
BRANCH  33  34
ATOM     34  C   UNL     1      -2.421   5.213   1.723  0.00  0.00    +0.156 C 
ATOM     35  C   UNL     1      -3.831   5.804   1.771  0.00  0.00    +0.034 C 
ENDBRANCH  33  34
ENDBRANCH  32  33
ENDBRANCH  31  32
ENDBRANCH   3  31
TORSDOF 12
