REMARK  Name = ZINC39947415
REMARK  8 active torsions:
REMARK  status: ('A' for Active; 'I' for Inactive)
REMARK    1  A    between atoms: C_1  and  C_2
REMARK    2  A    between atoms: C_2  and  C_4
REMARK    3  A    between atoms: C_2  and  S_15
REMARK    4  A    between atoms: C_4  and  C_6
REMARK    5  A    between atoms: S_15  and  C_16
REMARK    6  A    between atoms: C_20  and  C_25
REMARK    7  A    between atoms: N_21  and  C_22
REMARK    8  A    between atoms: C_22  and  C_23
REMARK                            x       y       z     vdW  Elec       q    Type
REMARK                         _______ _______ _______ _____ _____    ______ ____
ROOT
ATOM      1  C   UNL     1      -0.331   0.132   2.679  0.00  0.00    +0.237 C 
ATOM      2  N   UNL     1      -1.730  -0.330   2.639  0.00  0.00    -0.238 N 
ATOM      3  N   UNL     1      -2.507   0.809   2.397  0.00  0.00    -0.170 NA
ATOM      4  C   UNL     1      -1.782   1.862   2.289  0.00  0.00    +0.162 C 
ATOM      5  N   UNL     1      -0.430   1.582   2.444  0.00  0.00    -0.282 N 
ATOM      6  H   UNL     1      -2.048  -1.238   2.757  0.00  0.00    +0.171 HD
ENDROOT
BRANCH   4   7
ATOM      7  C   UNL     1      -2.332   3.240   2.026  0.00  0.00    +0.275 C 
ATOM      8  C   UNL     1      -3.848   3.248   2.268  0.00  0.00    +0.281 C 
ATOM      9  O   UNL     1      -4.338   4.565   1.997  0.00  0.00    -0.484 OA
ATOM     10  C   UNL     1      -3.904   5.155   0.850  0.00  0.00    +0.162 A 
ATOM     11  C   UNL     1      -4.594   6.246   0.342  0.00  0.00    +0.049 A 
ATOM     12  C   UNL     1      -4.163   6.858  -0.820  0.00  0.00    +0.004 A 
ATOM     13  C   UNL     1      -3.043   6.385  -1.479  0.00  0.00    +0.004 A 
ATOM     14  C   UNL     1      -2.352   5.298  -0.979  0.00  0.00    +0.049 A 
ATOM     15  C   UNL     1      -2.780   4.678   0.186  0.00  0.00    +0.163 A 
ATOM     16  O   UNL     1      -2.093   3.604   0.662  0.00  0.00    -0.474 OA
ENDBRANCH   4   7
BRANCH   1  17
ATOM     17  S   UNL     1       0.639  -0.662   1.367  0.00  0.00    -0.107 S 
BRANCH  17  19
ATOM     18  C   UNL     1      -0.188  -3.119   2.237  0.00  0.00    +0.027 C 
ATOM     19  C   UNL     1       1.078  -2.279   2.063  0.00  0.00    +0.117 C 
BRANCH  19  20
ATOM     20  C   UNL     1       2.026  -2.986   1.130  0.00  0.00    +0.174 C 
ATOM     21  O   UNL     1       2.031  -2.713  -0.053  0.00  0.00    -0.291 OA
BRANCH  20  22
ATOM     22  C   UNL     1       2.909  -3.967   1.631  0.00  0.00    +0.024 C 
ATOM     23  C   UNL     1       3.839  -4.699   0.915  0.00  0.00    +0.006 A 
ATOM     24  C   UNL     1       4.200  -4.722  -0.453  0.00  0.00    +0.010 A 
ATOM     25  C   UNL     1       5.167  -5.560  -0.888  0.00  0.00    +0.001 A 
ATOM     26  C   UNL     1       5.852  -6.433  -0.028  0.00  0.00    +0.002 A 
ATOM     27  C   UNL     1       5.583  -6.490   1.295  0.00  0.00    +0.026 A 
ATOM     28  C   UNL     1       4.542  -5.610   1.852  0.00  0.00    +0.043 A 
ATOM     29  N   UNL     1       4.088  -5.459   3.063  0.00  0.00    -0.380 N 
ATOM     30  C   UNL     1       3.041  -4.432   3.064  0.00  0.00    +0.152 C 
ATOM     31  H   UNL     1       4.396  -5.947   3.843  0.00  0.00    +0.160 HD
ENDBRANCH  20  22
ENDBRANCH  19  20
ENDBRANCH  17  19
ENDBRANCH   1  17
BRANCH   5  32
ATOM     32  C   UNL     1       0.679   2.538   2.385  0.00  0.00    +0.135 C 
BRANCH  32  33
ATOM     33  C   UNL     1       1.194   2.623   0.972  0.00  0.00    -0.016 C 
ATOM     34  C   UNL     1       1.242   3.781   0.360  0.00  0.00    +0.005 C 
ENDBRANCH  32  33
ENDBRANCH   5  32
TORSDOF 7
