REMARK  Name = ZINC63587179
REMARK  12 active torsions:
REMARK  status: ('A' for Active; 'I' for Inactive)
REMARK    1  A    between atoms: C_1  and  C_2
REMARK    2  A    between atoms: C_2  and  C_3
REMARK    3  A    between atoms: C_3  and  C_4
REMARK    4  A    between atoms: C_4  and  C_5
REMARK    5  A    between atoms: C_5  and  C_6
REMARK    6  A    between atoms: C_6  and  C_7
REMARK    7  A    between atoms: C_9  and  O_26
REMARK    8  A    between atoms: N_12  and  C_15
REMARK    9  A    between atoms: C_15  and  C_16
REMARK   10  A    between atoms: C_16  and  C_17
REMARK   11  A    between atoms: O_26  and  C_27
REMARK   12  A    between atoms: C_30  and  C_33
REMARK                            x       y       z     vdW  Elec       q    Type
REMARK                         _______ _______ _______ _____ _____    ______ ____
ROOT
ATOM      1  C   UNL     1       2.338  -4.364  -3.451  0.00  0.00    +0.141 C 
ATOM      2  C   UNL     1       2.351  -5.857  -3.597  0.00  0.00    +0.117 C 
ATOM      3  C   UNL     1       1.472  -6.502  -4.315  0.00  0.00    +0.034 C 
ATOM      4  C   UNL     1       0.366  -5.822  -5.061  0.00  0.00    +0.138 C 
ATOM      5  N   UNL     1       0.650  -4.411  -5.277  0.00  0.00    -0.297 N 
ATOM      6  C   UNL     1       1.541  -3.729  -4.552  0.00  0.00    +0.226 C 
ATOM      7  O   UNL     1       1.710  -2.552  -4.792  0.00  0.00    -0.275 OA
ENDROOT
BRANCH   1   8
ATOM      8  C   UNL     1       1.717  -3.996  -2.102  0.00  0.00    +0.020 C 
BRANCH   8   9
ATOM      9  C   UNL     1       1.829  -2.485  -1.886  0.00  0.00    +0.001 C 
BRANCH   9  10
ATOM     10  C   UNL     1       1.208  -2.116  -0.537  0.00  0.00    +0.000 C 
BRANCH  10  11
ATOM     11  C   UNL     1       1.319  -0.606  -0.320  0.00  0.00    -0.000 C 
BRANCH  11  13
ATOM     12  C   UNL     1       0.809   1.273   1.246  0.00  0.00    +0.004 C 
ATOM     13  C   UNL     1       0.698  -0.237   1.029  0.00  0.00    -0.003 C 
ENDBRANCH  11  13
ENDBRANCH  10  11
ENDBRANCH   9  10
ENDBRANCH   8   9
ENDBRANCH   1   8
BRANCH   5  14
ATOM     14  C   UNL     1      -0.073  -3.707  -6.339  0.00  0.00    +0.112 C 
BRANCH  14  15
ATOM     15  C   UNL     1      -1.361  -3.109  -5.769  0.00  0.00    +0.052 C 
BRANCH  15  16
ATOM     16  C   UNL     1      -2.105  -2.385  -6.861  0.00  0.00    -0.040 C 
ATOM     17  C   UNL     1      -3.106  -2.876  -7.627  0.00  0.00    -0.001 A 
ATOM     18  C   UNL     1      -3.774  -4.181  -7.672  0.00  0.00    +0.010 A 
ATOM     19  C   UNL     1      -4.766  -4.380  -8.570  0.00  0.00    +0.001 A 
ATOM     20  C   UNL     1      -5.170  -3.373  -9.457  0.00  0.00    +0.002 A 
ATOM     21  C   UNL     1      -4.603  -2.148  -9.476  0.00  0.00    +0.026 A 
ATOM     22  C   UNL     1      -3.551  -1.829  -8.574  0.00  0.00    +0.043 A 
ATOM     23  N   UNL     1      -2.852  -0.733  -8.401  0.00  0.00    -0.380 N 
ATOM     24  C   UNL     1      -1.888  -0.959  -7.318  0.00  0.00    +0.144 C 
ATOM     25  H   UNL     1      -2.958   0.091  -8.901  0.00  0.00    +0.160 HD
ENDBRANCH  15  16
ENDBRANCH  14  15
ENDBRANCH   5  14
BRANCH   2  26
ATOM     26  O   UNL     1       3.315  -6.566  -2.957  0.00  0.00    -0.442 OA
BRANCH  26  27
ATOM     27  C   UNL     1       4.598  -6.409  -3.367  0.00  0.00    +0.220 A 
ATOM     28  C   UNL     1       5.625  -7.030  -2.666  0.00  0.00    +0.068 A 
ATOM     29  C   UNL     1       6.930  -6.862  -3.094  0.00  0.00    +0.019 A 
ATOM     30  C   UNL     1       7.163  -6.075  -4.214  0.00  0.00    +0.073 A 
ATOM     31  C   UNL     1       6.095  -5.489  -4.862  0.00  0.00    +0.127 A 
ATOM     32  N   UNL     1       4.860  -5.671  -4.433  0.00  0.00    -0.220 NA
BRANCH  30  33
ATOM     33  C   UNL     1       8.568  -5.864  -4.717  0.00  0.00    +0.419 C 
ATOM     34  F   UNL     1       8.887  -6.862  -5.644  0.00  0.00    -0.166 F 
ATOM     35  F   UNL     1       8.660  -4.611  -5.332  0.00  0.00    -0.166 F 
ATOM     36  F   UNL     1       9.462  -5.923  -3.642  0.00  0.00    -0.166 F 
ENDBRANCH  30  33
ENDBRANCH  26  27
ENDBRANCH   2  26
TORSDOF 11
