REMARK  Name = ZINC09408913
REMARK  7 active torsions:
REMARK  status: ('A' for Active; 'I' for Inactive)
REMARK    1  A    between atoms: C_4  and  O_7
REMARK    2  A    between atoms: O_7  and  C_8
REMARK    3  A    between atoms: C_12  and  C_14
REMARK    4  A    between atoms: C_17  and  C_32
REMARK    5  A    between atoms: N_24  and  C_25
REMARK    6  A    between atoms: C_25  and  C_26
REMARK    7  A    between atoms: C_37  and  O_38
REMARK                            x       y       z     vdW  Elec       q    Type
REMARK                         _______ _______ _______ _____ _____    ______ ____
ROOT
ATOM      1  C   UNL     1       6.303  -4.682   0.145  0.00  0.00    +0.141 C 
ATOM      2  C   UNL     1       6.685  -5.206  -1.212  0.00  0.00    +0.035 A 
ATOM      3  C   UNL     1       6.960  -4.930  -2.514  0.00  0.00    +0.075 A 
ATOM      4  N   UNL     1       7.240  -6.122  -3.116  0.00  0.00    -0.276 N 
ATOM      5  H   UNL     1       7.474  -6.232  -4.051  0.00  0.00    +0.189 HD
ATOM      6  N   UNL     1       7.149  -7.078  -2.261  0.00  0.00    -0.168 NA
ATOM      7  C   UNL     1       6.815  -6.606  -1.076  0.00  0.00    +0.153 A 
ATOM      8  C   UNL     1       6.525  -6.954   0.327  0.00  0.00    +0.268 C 
ATOM      9  O   UNL     1       6.549  -8.081   0.781  0.00  0.00    -0.268 OA
ATOM     10  N   UNL     1       6.229  -5.848   1.033  0.00  0.00    -0.283 N 
ENDROOT
BRANCH   1  15
ATOM     11  C   UNL     1       3.657  -1.988  -0.010  0.00  0.00    +0.129 A 
ATOM     12  C   UNL     1       2.495  -2.747  -0.046  0.00  0.00    +0.046 A 
ATOM     13  C   UNL     1       2.571  -4.125  -0.020  0.00  0.00    +0.004 A 
ATOM     14  C   UNL     1       3.803  -4.750   0.042  0.00  0.00    +0.006 A 
ATOM     15  C   UNL     1       4.962  -3.997   0.077  0.00  0.00    -0.019 A 
ATOM     16  C   UNL     1       4.892  -2.618   0.046  0.00  0.00    +0.052 A 
BRANCH  11  17
ATOM     17  O   UNL     1       3.586  -0.632  -0.036  0.00  0.00    -0.456 OA
BRANCH  17  21
ATOM     18  C   UNL     1       3.335   1.363   3.566  0.00  0.00    +0.000 A 
ATOM     19  C   UNL     1       3.417  -0.017   3.546  0.00  0.00    +0.004 A 
ATOM     20  C   UNL     1       3.501  -0.687   2.341  0.00  0.00    +0.046 A 
ATOM     21  C   UNL     1       3.503   0.025   1.150  0.00  0.00    +0.128 A 
ATOM     22  C   UNL     1       3.420   1.410   1.174  0.00  0.00    +0.046 A 
ATOM     23  C   UNL     1       3.336   2.076   2.381  0.00  0.00    +0.004 A 
ENDBRANCH  17  21
ENDBRANCH  11  17
ENDBRANCH   1  15
BRANCH   3  24
ATOM     24  C   UNL     1       6.956  -3.596  -3.154  0.00  0.00    +0.042 A 
ATOM     25  C   UNL     1       6.023  -3.297  -4.146  0.00  0.00    +0.013 A 
ATOM     26  C   UNL     1       6.023  -2.052  -4.739  0.00  0.00    +0.001 A 
ATOM     27  C   UNL     1       6.947  -1.096  -4.353  0.00  0.00    +0.004 A 
ATOM     28  C   UNL     1       7.876  -1.381  -3.370  0.00  0.00    +0.046 A 
ATOM     29  C   UNL     1       7.884  -2.625  -2.761  0.00  0.00    +0.126 A 
BRANCH  29  30
ATOM     30  O   UNL     1       8.793  -2.904  -1.791  0.00  0.00    -0.506 OA
ATOM     31  H   UNL     1       9.621  -3.277  -2.124  0.00  0.00    +0.292 HD
ENDBRANCH  29  30
ENDBRANCH   3  24
BRANCH  10  32
ATOM     32  C   UNL     1       5.890  -5.812   2.458  0.00  0.00    +0.140 C 
BRANCH  32  33
ATOM     33  C   UNL     1       4.377  -5.962   2.626  0.00  0.00    +0.136 C 
ATOM     34  C   UNL     1       3.997  -5.804   4.114  0.00  0.00    +0.035 C 
ATOM     35  C   UNL     1       2.889  -6.879   4.287  0.00  0.00    +0.031 C 
ATOM     36  C   UNL     1       3.395  -7.980   3.320  0.00  0.00    +0.160 C 
ATOM     37  O   UNL     1       3.969  -7.270   2.209  0.00  0.00    -0.375 OA
ENDBRANCH  32  33
ENDBRANCH  10  32
TORSDOF 7
