REMARK  Name = ZINC05046307
REMARK  11 active torsions:
REMARK  status: ('A' for Active; 'I' for Inactive)
REMARK    1  A    between atoms: C_1  and  N_74
REMARK    2  A    between atoms: C_2  and  C_24
REMARK    3  A    between atoms: C_7  and  C_9
REMARK    4  A    between atoms: C_9  and  C_10
REMARK    5  A    between atoms: C_10  and  C_11
REMARK    6  A    between atoms: C_10  and  C_17
REMARK    7  A    between atoms: C_10  and  O_23
REMARK    8  A    between atoms: C_24  and  C_25
REMARK    9  A    between atoms: C_25  and  C_26
REMARK   10  A    between atoms: C_25  and  C_32
REMARK   11  A    between atoms: C_25  and  O_38
REMARK                            x       y       z     vdW  Elec       q    Type
REMARK                         _______ _______ _______ _____ _____    ______ ____
ROOT
ATOM      1  C   UNL     1      -0.773   4.269  -1.430  0.00  0.00    -0.095 C 
ATOM      2  C   UNL     1       0.434   2.354  -2.287  0.00  0.00    -0.065 C 
ATOM      3  C   UNL     1       0.451   0.824  -2.330  0.00  0.00    -0.015 C 
ATOM      4  C   UNL     1       0.680   0.281  -0.917  0.00  0.00    -0.003 C 
ATOM      5  C   UNL     1      -0.419   0.807   0.010  0.00  0.00    -0.015 C 
ATOM      6  C   UNL     1      -0.413   2.338  -0.016  0.00  0.00    -0.065 C 
ATOM      7  N   UNL     1      -0.663   2.796  -1.399  0.00  0.00    +0.382 N 
ATOM      8  H   UNL     1      -1.545   2.389  -1.731  0.00  0.00    -0.081 HD
ENDROOT
BRANCH   6   9
ATOM      9  C   UNL     1      -1.524   2.868   0.892  0.00  0.00    +0.029 C 
BRANCH   9  10
ATOM     10  C   UNL     1      -1.180   2.563   2.351  0.00  0.00    +0.114 C 
BRANCH  10  11
ATOM     11  C   UNL     1      -2.200   3.209   3.253  0.00  0.00    -0.012 A 
ATOM     12  C   UNL     1      -3.543   3.145   2.934  0.00  0.00    +0.007 A 
ATOM     13  C   UNL     1      -4.479   3.733   3.764  0.00  0.00    +0.000 A 
ATOM     14  C   UNL     1      -4.071   4.394   4.908  0.00  0.00    +0.000 A 
ATOM     15  C   UNL     1      -2.727   4.462   5.224  0.00  0.00    +0.000 A 
ATOM     16  C   UNL     1      -1.792   3.869   4.397  0.00  0.00    +0.007 A 
ENDBRANCH  10  11
BRANCH  10  17
ATOM     17  C   UNL     1      -1.188   1.072   2.569  0.00  0.00    -0.012 A 
ATOM     18  C   UNL     1      -2.182   0.297   2.002  0.00  0.00    +0.007 A 
ATOM     19  C   UNL     1      -2.187  -1.072   2.197  0.00  0.00    +0.000 A 
ATOM     20  C   UNL     1      -1.204  -1.663   2.969  0.00  0.00    +0.000 A 
ATOM     21  C   UNL     1      -0.213  -0.887   3.540  0.00  0.00    +0.000 A 
ATOM     22  C   UNL     1      -0.205   0.481   3.340  0.00  0.00    +0.007 A 
ENDBRANCH  10  17
BRANCH  10  23
ATOM     23  O   UNL     1       0.118   3.082   2.652  0.00  0.00    -0.379 OA
ATOM     24  H   UNL     1       0.179   4.045   2.599  0.00  0.00    +0.211 HD
ENDBRANCH  10  23
ENDBRANCH   9  10
ENDBRANCH   6   9
BRANCH   2  25
ATOM     25  C   UNL     1       1.781   2.865  -1.772  0.00  0.00    +0.029 C 
BRANCH  25  26
ATOM     26  C   UNL     1       2.871   2.553  -2.800  0.00  0.00    +0.114 C 
BRANCH  26  27
ATOM     27  C   UNL     1       2.468   3.105  -4.143  0.00  0.00    -0.012 A 
ATOM     28  C   UNL     1       2.037   4.414  -4.251  0.00  0.00    +0.007 A 
ATOM     29  C   UNL     1       1.672   4.922  -5.484  0.00  0.00    +0.000 A 
ATOM     30  C   UNL     1       1.728   4.118  -6.607  0.00  0.00    +0.000 A 
ATOM     31  C   UNL     1       2.154   2.807  -6.498  0.00  0.00    +0.000 A 
ATOM     32  C   UNL     1       2.524   2.301  -5.266  0.00  0.00    +0.007 A 
ENDBRANCH  26  27
BRANCH  26  33
ATOM     33  C   UNL     1       4.167   3.186  -2.365  0.00  0.00    -0.012 A 
ATOM     34  C   UNL     1       4.152   4.355  -1.627  0.00  0.00    +0.007 A 
ATOM     35  C   UNL     1       5.342   4.933  -1.224  0.00  0.00    +0.000 A 
ATOM     36  C   UNL     1       6.546   4.348  -1.568  0.00  0.00    +0.000 A 
ATOM     37  C   UNL     1       6.561   3.182  -2.310  0.00  0.00    +0.000 A 
ATOM     38  C   UNL     1       5.372   2.601  -2.708  0.00  0.00    +0.007 A 
ENDBRANCH  26  33
BRANCH  26  39
ATOM     39  O   UNL     1       3.041   1.138  -2.898  0.00  0.00    -0.379 OA
ATOM     40  H   UNL     1       3.302   0.714  -2.069  0.00  0.00    +0.211 HD
ENDBRANCH  26  39
ENDBRANCH  25  26
ENDBRANCH   2  25
TORSDOF 10
