REMARK  Name = ZINC62136477
REMARK  3 active torsions:
REMARK  status: ('A' for Active; 'I' for Inactive)
REMARK    1  A    between atoms: C_5  and  C_7
REMARK    2  A    between atoms: N_12  and  C_13
REMARK    3  A    between atoms: C_13  and  C_14
REMARK                            x       y       z     vdW  Elec       q    Type
REMARK                         _______ _______ _______ _____ _____    ______ ____
ROOT
ATOM      1  C   UNL     1      -0.019   1.547   0.011  0.00  0.00    +0.035 C 
ATOM      2  C   UNL     1       1.480   1.913  -0.002  0.00  0.00    +0.110 C 
ATOM      3  N   UNL     1       2.207   0.757  -0.545  0.00  0.00    -0.285 N 
ATOM      4  C   UNL     1       1.233  -0.293  -0.893  0.00  0.00    +0.124 C 
ATOM      5  C   UNL     1       0.002  -0.004   0.002  0.00  0.00    +0.121 C 
ATOM      6  C   UNL     1       3.543   0.672  -0.701  0.00  0.00    +0.303 C 
ATOM      7  O   UNL     1       4.038  -0.338  -1.163  0.00  0.00    -0.253 OA
ATOM      8  N   UNL     1       4.331   1.706  -0.344  0.00  0.00    -0.292 N 
ATOM      9  H   UNL     1       3.936   2.511   0.025  0.00  0.00    +0.151 HD
ENDROOT
BRANCH   5  10
ATOM     10  C   UNL     1      -1.256  -0.558  -0.615  0.00  0.00    +0.361 C 
ATOM     11  O   UNL     1      -1.228  -1.627  -1.201  0.00  0.00    -0.246 OA
ATOM     12  O   UNL     1      -2.302   0.063  -0.528  0.00  0.00    -0.246 OA
ENDBRANCH   5  10
BRANCH   8  13
ATOM     13  C   UNL     1       5.783   1.613  -0.513  0.00  0.00    +0.186 C 
BRANCH  13  14
ATOM     14  C   UNL     1       6.426   2.892  -0.042  0.00  0.00    +0.194 A 
ATOM     15  N   UNL     1       6.670   3.970  -0.773  0.00  0.00    -0.110 NA
ATOM     16  N   UNL     1       7.227   4.843  -0.005  0.00  0.00    -0.021 NA
ATOM     17  N   UNL     1       7.340   4.350   1.179  0.00  0.00    -0.021 NA
ATOM     18  N   UNL     1       6.852   3.157   1.185  0.00  0.00    -0.110 NA
ENDBRANCH  13  14
ENDBRANCH   8  13
TORSDOF 3
