REMARK  Name = ZINC32935837
REMARK  11 active torsions:
REMARK  status: ('A' for Active; 'I' for Inactive)
REMARK    1  A    between atoms: C_1  and  C_2
REMARK    2  A    between atoms: C_2  and  C_3
REMARK    3  A    between atoms: C_2  and  C_4
REMARK    4  A    between atoms: C_2  and  C_5
REMARK    5  A    between atoms: C_5  and  C_7
REMARK    6  A    between atoms: C_5  and  N_18
REMARK    7  A    between atoms: C_7  and  N_8
REMARK    8  A    between atoms: N_18  and  S_19
REMARK    9  A    between atoms: S_19  and  C_22
REMARK   10  A    between atoms: C_25  and  C_28
REMARK   11  A    between atoms: N_30  and  C_31
REMARK                            x       y       z     vdW  Elec       q    Type
REMARK                         _______ _______ _______ _____ _____    ______ ____
ROOT
ATOM      1  C   UNL     1      -0.077   1.201   2.535  0.00  0.00    +0.065 C 
ENDROOT
BRANCH   1   3
ATOM      2  C   UNL     1       0.296   1.273   0.066  0.00  0.00    +0.012 C 
ATOM      3  C   UNL     1      -0.599   1.758   1.209  0.00  0.00    -0.022 C 
ATOM      4  C   UNL     1      -0.582   3.287   1.256  0.00  0.00    +0.012 C 
ATOM      5  C   UNL     1      -2.030   1.270   0.979  0.00  0.00    +0.012 C 
ENDBRANCH   1   3
BRANCH   1   6
ATOM      6  N   UNL     1       1.334   1.561   2.695  0.00  0.00    -0.188 NA
ATOM      7  H   UNL     1       2.120   0.851   2.398  0.00  0.00    +0.148 HD
BRANCH   6   8
ATOM      8  S   UNL     1       1.751   2.921   3.543  0.00  0.00    +0.059 S 
ATOM      9  O   UNL     1       3.169   2.998   3.515  0.00  0.00    -0.153 OA
ATOM     10  O   UNL     1       0.920   3.969   3.063  0.00  0.00    -0.153 OA
BRANCH   8  11
ATOM     11  C   UNL     1       1.295   2.647   5.223  0.00  0.00    +0.105 A 
ATOM     12  C   UNL     1       0.035   3.013   5.664  0.00  0.00    +0.029 A 
ATOM     13  C   UNL     1      -0.329   2.797   6.977  0.00  0.00    +0.015 A 
ATOM     14  C   UNL     1       0.579   2.217   7.864  0.00  0.00    +0.037 A 
ATOM     15  C   UNL     1       1.850   1.855   7.414  0.00  0.00    +0.015 A 
ATOM     16  C   UNL     1       2.200   2.072   6.098  0.00  0.00    +0.029 A 
BRANCH  14  17
ATOM     17  C   UNL     1       0.197   1.987   9.273  0.00  0.00    +0.244 C 
ATOM     18  O   UNL     1       0.990   1.482  10.043  0.00  0.00    -0.270 OA
ATOM     19  N   UNL     1      -1.031   2.338   9.704  0.00  0.00    -0.314 N 
ATOM     20  C   UNL     1      -1.410   2.110  11.101  0.00  0.00    +0.128 C 
ATOM     21  H   UNL     1      -1.749   2.795   9.007  0.00  0.00    +0.149 HD
ENDBRANCH  14  17
ENDBRANCH   8  11
ENDBRANCH   6   8
ENDBRANCH   1   6
BRANCH   1  22
ATOM     22  C   UNL     1      -0.219  -0.322   2.540  0.00  0.00    -0.057 C 
BRANCH  22  23
ATOM     23  N   UNL     1       0.390  -0.867   3.761  0.00  0.00    +0.384 N 
ATOM     24  C   UNL     1       0.466  -2.335   3.702  0.00  0.00    -0.074 C 
ATOM     25  C   UNL     1       1.419  -2.816   4.798  0.00  0.00    +0.017 C 
ATOM     26  C   UNL     1       1.041  -2.193   6.117  0.00  0.00    -0.048 A 
ATOM     27  C   UNL     1       1.541  -2.757   7.282  0.00  0.00    +0.004 A 
ATOM     28  C   UNL     1       1.223  -2.216   8.511  0.00  0.00    +0.000 A 
ATOM     29  C   UNL     1       0.401  -1.106   8.582  0.00  0.00    +0.000 A 
ATOM     30  C   UNL     1      -0.098  -0.545   7.423  0.00  0.00    +0.002 A 
ATOM     31  C   UNL     1       0.220  -1.089   6.187  0.00  0.00    -0.061 A 
ATOM     32  C   UNL     1      -0.353  -0.444   4.952  0.00  0.00    -0.043 C 
ATOM     33  H   UNL     1       1.412  -0.466   3.831  0.00  0.00    -0.081 HD
ENDBRANCH  22  23
ENDBRANCH   1  22
TORSDOF 7
