REMARK  Name = ZINC07927301
REMARK  10 active torsions:
REMARK  status: ('A' for Active; 'I' for Inactive)
REMARK    1  A    between atoms: C_1  and  O_2
REMARK    2  A    between atoms: O_2  and  C_3
REMARK    3  A    between atoms: C_6  and  N_12
REMARK    4  A    between atoms: C_7  and  N_9
REMARK    5  A    between atoms: C_13  and  C_15
REMARK    6  A    between atoms: C_15  and  N_51
REMARK    7  A    between atoms: C_16  and  C_17
REMARK    8  A    between atoms: C_16  and  N_51
REMARK    9  A    between atoms: C_22  and  C_23
REMARK   10  A    between atoms: C_22  and  N_51
REMARK                            x       y       z     vdW  Elec       q    Type
REMARK                         _______ _______ _______ _____ _____    ______ ____
ROOT
ATOM      1  N   UNL     1      -0.003   1.813  -0.153  0.00  0.00    -0.285 N 
ATOM      2  C   UNL     1       1.289   2.196  -0.116  0.00  0.00    +0.201 C 
ATOM      3  O   UNL     1       1.575   3.373  -0.184  0.00  0.00    -0.278 OA
ATOM      4  H   UNL     1      -0.229   0.870  -0.171  0.00  0.00    +0.155 HD
ENDROOT
BRANCH   1   8
ATOM      5  C   UNL     1      -3.027   4.683  -0.211  0.00  0.00    +0.122 A 
ATOM      6  C   UNL     1      -1.834   4.919  -0.879  0.00  0.00    +0.047 A 
ATOM      7  C   UNL     1      -0.833   3.969  -0.860  0.00  0.00    +0.029 A 
ATOM      8  C   UNL     1      -1.019   2.777  -0.172  0.00  0.00    +0.064 A 
ATOM      9  C   UNL     1      -2.215   2.539   0.491  0.00  0.00    +0.151 A 
ATOM     10  C   UNL     1      -3.214   3.492   0.476  0.00  0.00    +0.080 A 
BRANCH   9  11
ATOM     11  N   UNL     1      -2.417   1.266   1.219  0.00  0.00    +0.058 N 
ATOM     12  O   UNL     1      -3.501   1.012   1.712  0.00  0.00    -0.126 OA
ATOM     13  O   UNL     1      -1.499   0.472   1.324  0.00  0.00    -0.126 OA
ENDBRANCH   9  11
BRANCH   5  15
ATOM     14  C   UNL     1      -3.754   6.820  -0.958  0.00  0.00    +0.277 C 
ATOM     15  O   UNL     1      -4.014   5.618  -0.230  0.00  0.00    -0.495 OA
ENDBRANCH   5  15
ENDBRANCH   1   8
BRANCH   2  16
ATOM     16  C   UNL     1       2.378   1.162   0.009  0.00  0.00    +0.019 C 
BRANCH  16  17
ATOM     17  N   UNL     1       3.688   1.847   0.005  0.00  0.00    +0.390 N 
ATOM     18  H   UNL     1       3.735   2.471  -0.808  0.00  0.00    -0.081 HD
BRANCH  17  19
ATOM     19  C   UNL     1       3.843   2.649   1.236  0.00  0.00    -0.035 C 
BRANCH  19  20
ATOM     20  C   UNL     1       4.990   3.609   1.048  0.00  0.00    -0.027 A 
ATOM     21  C   UNL     1       4.966   4.894   0.618  0.00  0.00    +0.009 A 
ATOM     22  C   UNL     1       6.155   5.591   0.523  0.00  0.00    +0.008 A 
ATOM     23  C   UNL     1       7.311   4.969   0.862  0.00  0.00    +0.045 A 
ATOM     24  S   UNL     1       6.732   3.350   1.341  0.00  0.00    -0.103 S 
ENDBRANCH  19  20
ENDBRANCH  17  19
BRANCH  17  25
ATOM     25  C   UNL     1       4.777   0.852  -0.089  0.00  0.00    -0.046 C 
BRANCH  25  26
ATOM     26  C   UNL     1       4.743   0.213  -1.479  0.00  0.00    +0.102 C 
ATOM     27  C   UNL     1       5.881  -0.821  -1.625  0.00  0.00    +0.032 C 
ATOM     28  C   UNL     1       6.352  -0.657  -3.088  0.00  0.00    +0.030 C 
ATOM     29  C   UNL     1       5.442   0.456  -3.653  0.00  0.00    +0.160 C 
ATOM     30  O   UNL     1       5.012   1.204  -2.495  0.00  0.00    -0.378 OA
ENDBRANCH  25  26
ENDBRANCH  17  25
ENDBRANCH  16  17
ENDBRANCH   2  16
TORSDOF 9
