REMARK  Name = ZINC38904006
REMARK  15 active torsions:
REMARK  status: ('A' for Active; 'I' for Inactive)
REMARK    1  A    between atoms: C_1  and  C_2
REMARK    2  A    between atoms: C_5  and  C_9
REMARK    3  A    between atoms: C_6  and  C_8
REMARK    4  A    between atoms: C_9  and  C_11
REMARK    5  A    between atoms: C_9  and  N_14
REMARK    6  A    between atoms: C_11  and  C_12
REMARK    7  A    between atoms: C_11  and  C_13
REMARK    8  A    between atoms: C_15  and  C_17
REMARK    9  A    between atoms: N_22  and  C_24
REMARK   10  A    between atoms: C_24  and  C_25
REMARK   11  A    between atoms: C_27  and  C_30
REMARK   12  A    between atoms: C_33  and  C_36
REMARK   13  A    between atoms: C_36  and  C_37
REMARK   14  A    between atoms: C_36  and  C_38
REMARK   15  A    between atoms: C_36  and  C_39
REMARK                            x       y       z     vdW  Elec       q    Type
REMARK                         _______ _______ _______ _____ _____    ______ ____
ROOT
ATOM      1  C   UNL     1      -0.534  -7.766  -1.895  0.00  0.00    +0.058 C 
ATOM      2  C   UNL     1      -1.867  -7.169  -2.357  0.00  0.00    +0.009 C 
ATOM      3  C   UNL     1      -2.396  -7.982  -3.541  0.00  0.00    -0.018 C 
ATOM      4  C   UNL     1      -2.530  -9.449  -3.126  0.00  0.00    -0.078 C 
ATOM      5  N   UNL     1      -1.219  -9.969  -2.721  0.00  0.00    +0.386 N 
ATOM      6  C   UNL     1      -0.736  -9.241  -1.542  0.00  0.00    -0.065 C 
ATOM      7  H   UNL     1      -0.563  -9.851  -3.479  0.00  0.00    -0.081 HD
ENDROOT
BRANCH   1   9
ATOM      8  N   UNL     1       0.205  -5.697  -0.758  0.00  0.00    -0.308 N 
ATOM      9  C   UNL     1      -0.042  -7.020  -0.682  0.00  0.00    +0.215 C 
ATOM     10  O   UNL     1       0.132  -7.610   0.363  0.00  0.00    -0.276 OA
ATOM     11  H   UNL     1       0.066  -5.225  -1.594  0.00  0.00    +0.149 HD
BRANCH   8  12
ATOM     12  C   UNL     1       0.684  -4.973   0.422  0.00  0.00    +0.106 C 
BRANCH  12  17
ATOM     13  C   UNL     1      -0.711   0.615  -0.055  0.00  0.00    +0.044 C 
ATOM     14  C   UNL     1      -0.347  -0.842   0.069  0.00  0.00    -0.050 A 
ATOM     15  C   UNL     1      -0.052  -1.580  -1.062  0.00  0.00    +0.004 A 
ATOM     16  C   UNL     1       0.281  -2.917  -0.948  0.00  0.00    +0.006 A 
ATOM     17  C   UNL     1       0.321  -3.515   0.298  0.00  0.00    -0.024 A 
ATOM     18  C   UNL     1       0.027  -2.777   1.429  0.00  0.00    -0.045 A 
ATOM     19  C   UNL     1      -0.303  -1.440   1.315  0.00  0.00    +0.007 A 
ATOM     20  C   UNL     1       0.070  -3.430   2.786  0.00  0.00    +0.044 C 
ENDBRANCH  12  17
BRANCH  12  21
ATOM     21  C   UNL     1       2.204  -5.112   0.525  0.00  0.00    +0.008 C 
ATOM     22  C   UNL     1       2.862  -4.423  -0.672  0.00  0.00    +0.009 C 
ATOM     23  C   UNL     1       2.690  -4.459   1.820  0.00  0.00    +0.009 C 
ENDBRANCH  12  21
ENDBRANCH   8  12
ENDBRANCH   1   9
BRANCH   5  24
ATOM     24  C   UNL     1      -1.338 -11.397  -2.398  0.00  0.00    +0.022 C 
BRANCH  24  25
ATOM     25  C   UNL     1      -1.705 -12.164  -3.642  0.00  0.00    +0.211 A 
ATOM     26  N   UNL     1      -0.865 -12.691  -4.487  0.00  0.00    -0.193 NA
ATOM     27  C   UNL     1      -1.534 -13.303  -5.481  0.00  0.00    +0.202 A 
ATOM     28  N   UNL     1      -2.820 -13.164  -5.268  0.00  0.00    -0.056 NA
ATOM     29  O   UNL     1      -2.950 -12.424  -4.063  0.00  0.00    -0.340 OA
BRANCH  27  30
ATOM     30  C   UNL     1      -0.919 -14.015  -6.628  0.00  0.00    +0.022 A 
ATOM     31  C   UNL     1       0.467 -14.097  -6.739  0.00  0.00    +0.012 A 
ATOM     32  C   UNL     1       1.034 -14.760  -7.808  0.00  0.00    +0.005 A 
ATOM     33  C   UNL     1       0.228 -15.343  -8.769  0.00  0.00    -0.042 A 
ATOM     34  C   UNL     1      -1.149 -15.266  -8.665  0.00  0.00    +0.005 A 
ATOM     35  C   UNL     1      -1.726 -14.610  -7.596  0.00  0.00    +0.012 A 
BRANCH  33  36
ATOM     36  C   UNL     1       0.853 -16.066  -9.935  0.00  0.00    -0.013 C 
ATOM     37  C   UNL     1       1.711 -17.223  -9.418  0.00  0.00    +0.015 C 
ATOM     38  C   UNL     1      -0.248 -16.614 -10.844  0.00  0.00    +0.015 C 
ATOM     39  C   UNL     1       1.731 -15.094 -10.726  0.00  0.00    +0.015 C 
ENDBRANCH  33  36
ENDBRANCH  27  30
ENDBRANCH  24  25
ENDBRANCH   5  24
TORSDOF 8
