REMARK  Name = ZINC35885940
REMARK  7 active torsions:
REMARK  status: ('A' for Active; 'I' for Inactive)
REMARK    1  A    between atoms: C_4  and  C_7
REMARK    2  A    between atoms: C_7  and  C_8
REMARK    3  A    between atoms: N_11  and  C_14
REMARK    4  A    between atoms: C_14  and  C_15
REMARK    5  A    between atoms: C_20  and  C_22
REMARK    6  A    between atoms: C_26  and  C_28
REMARK    7  A    between atoms: C_32  and  C_34
REMARK                            x       y       z     vdW  Elec       q    Type
REMARK                         _______ _______ _______ _____ _____    ______ ____
ROOT
ATOM      1  C   UNL     1       8.104  -1.580   4.654  0.00  0.00    -0.001 C 
ATOM      2  C   UNL     1       9.182  -0.694   3.994  0.00  0.00    +0.110 C 
ATOM      3  N   UNL     1       9.880  -0.046   5.130  0.00  0.00    -0.296 N 
ATOM      4  C   UNL     1       9.982  -1.112   6.154  0.00  0.00    +0.116 C 
ATOM      5  C   UNL     1       8.629  -1.858   6.077  0.00  0.00    +0.039 C 
ATOM      6  C   UNL     1      10.321   1.225   5.213  0.00  0.00    +0.253 C 
ATOM      7  O   UNL     1      10.228   1.965   4.251  0.00  0.00    -0.269 OA
ENDROOT
BRANCH   5   8
ATOM      8  C   UNL     1       8.833  -3.337   6.281  0.00  0.00    -0.042 A 
ATOM      9  C   UNL     1       9.718  -4.031   5.476  0.00  0.00    +0.004 A 
ATOM     10  C   UNL     1       9.905  -5.387   5.663  0.00  0.00    +0.001 A 
ATOM     11  C   UNL     1       9.207  -6.051   6.655  0.00  0.00    +0.012 A 
ATOM     12  C   UNL     1       8.323  -5.358   7.460  0.00  0.00    +0.055 A 
ATOM     13  C   UNL     1       8.140  -4.000   7.276  0.00  0.00    +0.016 A 
BRANCH  12  14
ATOM     14  C   UNL     1       7.562  -6.082   8.541  0.00  0.00    +0.417 C 
ATOM     15  F   UNL     1       7.917  -7.435   8.534  0.00  0.00    -0.166 F 
ATOM     16  F   UNL     1       7.876  -5.524   9.785  0.00  0.00    -0.166 F 
ATOM     17  F   UNL     1       6.189  -5.958   8.307  0.00  0.00    -0.166 F 
ENDBRANCH  12  14
ENDBRANCH   5   8
BRANCH   6  18
ATOM     18  C   UNL     1      10.912   1.716   6.461  0.00  0.00    +0.074 A 
ATOM     19  C   UNL     1      11.314   3.001   6.791  0.00  0.00    +0.021 A 
ATOM     20  C   UNL     1      11.839   3.156   8.052  0.00  0.00    +0.008 A 
ATOM     21  C   UNL     1      11.926   2.077   8.867  0.00  0.00    +0.046 A 
ATOM     22  S   UNL     1      11.293   0.818   7.953  0.00  0.00    -0.092 S 
ENDBRANCH   6  18
BRANCH   1  23
ATOM     23  C   UNL     1       6.769  -0.836   4.716  0.00  0.00    -0.073 C 
BRANCH  23  27
ATOM     24  C   UNL     1       4.214  -0.918   1.306  0.00  0.00    -0.010 C 
ATOM     25  C   UNL     1       4.522   0.420   1.984  0.00  0.00    -0.015 C 
ATOM     26  C   UNL     1       5.027   0.161   3.405  0.00  0.00    -0.079 C 
ATOM     27  N   UNL     1       6.245  -0.656   3.355  0.00  0.00    +0.380 N 
ATOM     28  C   UNL     1       5.941  -1.968   2.772  0.00  0.00    -0.079 C 
ATOM     29  C   UNL     1       5.472  -1.791   1.326  0.00  0.00    -0.015 C 
ATOM     30  H   UNL     1       6.938  -0.189   2.789  0.00  0.00    -0.082 HD
BRANCH  24  31
ATOM     31  C   UNL     1       3.784  -0.671  -0.141  0.00  0.00    +0.038 C 
BRANCH  31  35
ATOM     32  C   UNL     1       0.087   1.467  -0.188  0.00  0.00    +0.000 A 
ATOM     33  C   UNL     1       1.284   2.157  -0.180  0.00  0.00    +0.000 A 
ATOM     34  C   UNL     1       2.481   1.465  -0.165  0.00  0.00    +0.003 A 
ATOM     35  C   UNL     1       2.480   0.083  -0.157  0.00  0.00    -0.047 A 
ATOM     36  C   UNL     1       1.282  -0.608  -0.163  0.00  0.00    +0.003 A 
ATOM     37  C   UNL     1       0.086   0.084  -0.180  0.00  0.00    +0.000 A 
ENDBRANCH  31  35
ENDBRANCH  24  31
ENDBRANCH  23  27
ENDBRANCH   1  23
TORSDOF 7
