REMARK  Name = ZINC36595757
REMARK  11 active torsions:
REMARK  status: ('A' for Active; 'I' for Inactive)
REMARK    1  A    between atoms: C_1  and  C_2
REMARK    2  A    between atoms: C_5  and  C_7
REMARK    3  A    between atoms: C_7  and  N_8
REMARK    4  A    between atoms: N_8  and  C_9
REMARK    5  A    between atoms: C_9  and  C_11
REMARK    6  A    between atoms: C_9  and  C_25
REMARK    7  A    between atoms: N_27  and  C_28
REMARK    8  A    between atoms: C_28  and  C_29
REMARK    9  A    between atoms: C_28  and  C_30
REMARK   10  A    between atoms: C_28  and  C_31
REMARK   11  A    between atoms: C_32  and  C_34
REMARK                            x       y       z     vdW  Elec       q    Type
REMARK                         _______ _______ _______ _____ _____    ______ ____
ROOT
ATOM      1  C   UNL     1       3.004  -2.996  -2.118  0.00  0.00    +0.194 C 
ENDROOT
BRANCH   1   2
ATOM      2  C   UNL     1       3.726  -4.191  -2.685  0.00  0.00    -0.010 A 
ATOM      3  C   UNL     1       3.476  -4.573  -3.954  0.00  0.00    +0.015 A 
ATOM      4  C   UNL     1       4.127  -5.687  -4.531  0.00  0.00    -0.017 A 
ATOM      5  C   UNL     1       3.860  -6.076  -5.851  0.00  0.00    +0.008 A 
ATOM      6  C   UNL     1       4.504  -7.155  -6.383  0.00  0.00    +0.001 A 
ATOM      7  C   UNL     1       5.424  -7.878  -5.633  0.00  0.00    +0.001 A 
ATOM      8  C   UNL     1       5.706  -7.525  -4.344  0.00  0.00    +0.009 A 
ATOM      9  C   UNL     1       5.064  -6.425  -3.772  0.00  0.00    -0.010 A 
ATOM     10  C   UNL     1       5.336  -6.011  -2.393  0.00  0.00    -0.010 A 
ATOM     11  C   UNL     1       4.656  -4.884  -1.876  0.00  0.00    -0.012 A 
ATOM     12  C   UNL     1       4.914  -4.476  -0.559  0.00  0.00    +0.009 A 
ATOM     13  C   UNL     1       5.816  -5.164   0.198  0.00  0.00    +0.001 A 
ATOM     14  C   UNL     1       6.486  -6.267  -0.316  0.00  0.00    +0.001 A 
ATOM     15  C   UNL     1       6.249  -6.697  -1.590  0.00  0.00    +0.009 A 
ENDBRANCH   1   2
BRANCH   1  16
ATOM     16  C   UNL     1       2.404  -2.192  -3.243  0.00  0.00    +0.239 C 
ATOM     17  O   UNL     1       1.205  -2.016  -3.289  0.00  0.00    -0.273 OA
ATOM     18  N   UNL     1       3.199  -1.670  -4.197  0.00  0.00    -0.309 N 
ATOM     19  H   UNL     1       4.158  -1.811  -4.160  0.00  0.00    +0.149 HD
BRANCH  18  20
ATOM     20  C   UNL     1       2.616  -0.889  -5.291  0.00  0.00    +0.026 C 
ATOM     21  C   UNL     1       1.882   0.325  -4.716  0.00  0.00    +0.031 C 
ATOM     22  C   UNL     1       3.727  -0.415  -6.229  0.00  0.00    +0.031 C 
ATOM     23  C   UNL     1       1.628  -1.760  -6.069  0.00  0.00    +0.031 C 
ENDBRANCH  18  20
ENDBRANCH   1  16
BRANCH   1  24
ATOM     24  N   UNL     1       1.940  -3.449  -1.220  0.00  0.00    -0.272 N 
ATOM     25  C   UNL     1       1.003  -4.309  -1.665  0.00  0.00    +0.283 C 
ATOM     26  O   UNL     1       1.089  -4.777  -2.785  0.00  0.00    -0.267 OA
BRANCH  25  27
ATOM     27  C   UNL     1      -0.121  -4.682  -0.800  0.00  0.00    +0.189 A 
ATOM     28  C   UNL     1      -1.074  -5.619  -1.081  0.00  0.00    +0.054 A 
ATOM     29  C   UNL     1      -1.947  -5.649   0.018  0.00  0.00    +0.042 A 
ATOM     30  C   UNL     1      -1.495  -4.741   0.910  0.00  0.00    +0.196 A 
ATOM     31  O   UNL     1      -0.392  -4.164   0.416  0.00  0.00    -0.458 OA
ENDBRANCH  25  27
BRANCH  24  32
ATOM     32  C   UNL     1       1.893  -2.967   0.163  0.00  0.00    +0.183 C 
BRANCH  32  37
ATOM     33  C   UNL     1       1.135   2.019   0.087  0.00  0.00    +0.086 C 
ATOM     34  C   UNL     1       0.870   0.538   0.173  0.00  0.00    +0.102 A 
ATOM     35  C   UNL     1      -0.333  -0.036   0.350  0.00  0.00    +0.045 A 
ATOM     36  C   UNL     1      -0.121  -1.434   0.371  0.00  0.00    +0.046 A 
ATOM     37  C   UNL     1       1.200  -1.630   0.206  0.00  0.00    +0.122 A 
ATOM     38  O   UNL     1       1.794  -0.432   0.081  0.00  0.00    -0.463 OA
ENDBRANCH  32  37
ENDBRANCH  24  32
ENDBRANCH   1  24
TORSDOF 7
