REMARK  Name = ZINC05237896
REMARK  8 active torsions:
REMARK  status: ('A' for Active; 'I' for Inactive)
REMARK    1  A    between atoms: C_1  and  C_2
REMARK    2  A    between atoms: C_6  and  N_9
REMARK    3  A    between atoms: C_7  and  C_8
REMARK    4  A    between atoms: C_10  and  C_12
REMARK    5  A    between atoms: C_12  and  C_14
REMARK    6  A    between atoms: C_12  and  S_15
REMARK    7  A    between atoms: S_15  and  C_16
REMARK    8  A    between atoms: C_22  and  C_24
REMARK                            x       y       z     vdW  Elec       q    Type
REMARK                         _______ _______ _______ _____ _____    ______ ____
ROOT
ATOM      1  N   UNL     1      -2.270   5.875   0.693  0.00  0.00    -0.284 N 
ATOM      2  C   UNL     1      -1.092   5.485   0.167  0.00  0.00    +0.230 C 
ATOM      3  O   UNL     1      -0.290   6.315  -0.207  0.00  0.00    -0.274 OA
ATOM      4  H   UNL     1      -2.943   5.214   0.918  0.00  0.00    +0.155 HD
ENDROOT
BRANCH   1  10
ATOM      5  C   UNL     1      -5.492   9.552   1.213  0.00  0.00    +0.044 C 
ATOM      6  C   UNL     1      -4.074   9.043   1.172  0.00  0.00    -0.046 A 
ATOM      7  C   UNL     1      -3.020   9.920   1.353  0.00  0.00    +0.004 A 
ATOM      8  C   UNL     1      -1.718   9.457   1.316  0.00  0.00    +0.002 A 
ATOM      9  C   UNL     1      -1.466   8.116   1.097  0.00  0.00    +0.023 A 
ATOM     10  C   UNL     1      -2.522   7.234   0.915  0.00  0.00    +0.037 A 
ATOM     11  C   UNL     1      -3.829   7.703   0.947  0.00  0.00    -0.026 A 
ATOM     12  C   UNL     1      -4.978   6.750   0.743  0.00  0.00    +0.046 C 
ENDBRANCH   1  10
BRANCH   2  13
ATOM     13  C   UNL     1      -0.771   4.018   0.044  0.00  0.00    +0.137 C 
ATOM     14  C   UNL     1      -1.365   3.474  -1.257  0.00  0.00    +0.029 C 
BRANCH  13  15
ATOM     15  S   UNL     1       1.025   3.793   0.028  0.00  0.00    -0.075 S 
BRANCH  15  16
ATOM     16  C   UNL     1       1.113   2.033   0.031  0.00  0.00    +0.170 A 
ATOM     17  N   UNL     1       2.331   1.424   0.021  0.00  0.00    -0.302 N 
ATOM     18  H   UNL     1       3.167   1.973   0.012  0.00  0.00    +0.171 HD
ATOM     19  C   UNL     1       2.406   0.076   0.023  0.00  0.00    +0.252 A 
ATOM     20  O   UNL     1       3.488  -0.487   0.015  0.00  0.00    -0.268 OA
ATOM     21  C   UNL     1       1.212  -0.667   0.036  0.00  0.00    +0.093 A 
ATOM     22  C   UNL     1       0.021  -0.002   0.046  0.00  0.00    +0.046 A 
ATOM     23  N   UNL     1      -0.002   1.328   0.043  0.00  0.00    -0.228 NA
ATOM     24  C   UNL     1      -1.273  -0.776   0.060  0.00  0.00    +0.066 C 
ENDBRANCH  15  16
ENDBRANCH  13  15
ENDBRANCH   2  13
TORSDOF 4
