REMARK  Name = ZINC12151025
REMARK  13 active torsions:
REMARK  status: ('A' for Active; 'I' for Inactive)
REMARK    1  A    between atoms: C_1  and  C_2
REMARK    2  A    between atoms: C_2  and  C_32
REMARK    3  A    between atoms: C_3  and  C_4
REMARK    4  A    between atoms: C_4  and  C_5
REMARK    5  A    between atoms: C_5  and  C_6
REMARK    6  A    between atoms: C_6  and  C_31
REMARK    7  A    between atoms: C_7  and  C_8
REMARK    8  A    between atoms: C_8  and  N_64
REMARK    9  A    between atoms: C_10  and  S_20
REMARK   10  A    between atoms: C_13  and  C_15
REMARK   11  A    between atoms: N_17  and  C_18
REMARK   12  A    between atoms: N_17  and  C_19
REMARK   13  A    between atoms: S_20  and  C_21
REMARK                            x       y       z     vdW  Elec       q    Type
REMARK                         _______ _______ _______ _____ _____    ______ ____
ROOT
ATOM      1  C   UNL     1      -3.308   2.359   2.192  0.00  0.00    -0.063 C 
ATOM      2  C   UNL     1      -4.769   2.815   2.382  0.00  0.00    +0.037 C 
ATOM      3  C   UNL     1      -5.316   1.808   3.428  0.00  0.00    +0.006 C 
ATOM      4  C   UNL     1      -4.075   1.586   4.327  0.00  0.00    +0.021 C 
ATOM      5  N   UNL     1      -2.938   1.584   3.390  0.00  0.00    +0.390 N 
ATOM      6  H   UNL     1      -2.724   0.617   3.117  0.00  0.00    -0.080 HD
ENDROOT
BRANCH   4   7
ATOM      7  C   UNL     1      -4.167   0.255   5.029  0.00  0.00    +0.202 C 
ATOM      8  O   UNL     1      -3.724  -0.742   4.499  0.00  0.00    -0.277 OA
ATOM      9  N   UNL     1      -4.742   0.173   6.245  0.00  0.00    -0.309 N 
ATOM     10  C   UNL     1      -4.732  -1.097   6.976  0.00  0.00    +0.131 C 
ATOM     11  C   UNL     1      -5.377   1.353   6.836  0.00  0.00    +0.131 C 
ENDBRANCH   4   7
BRANCH   5  12
ATOM     12  C   UNL     1      -1.739   2.182   4.033  0.00  0.00    -0.050 C 
BRANCH  12  14
ATOM     13  C   UNL     1       0.203   2.973   2.782  0.00  0.00    -0.078 C 
ATOM     14  C   UNL     1      -0.536   1.957   3.154  0.00  0.00    -0.046 C 
ATOM     15  C   UNL     1      -0.069   4.346   3.341  0.00  0.00    +0.038 C 
BRANCH  13  16
ATOM     16  C   UNL     1       1.323   2.769   1.795  0.00  0.00    +0.034 C 
BRANCH  16  17
ATOM     17  C   UNL     1       0.823   3.085   0.384  0.00  0.00    +0.031 C 
BRANCH  17  20
ATOM     18  C   UNL     1       0.458   1.387  -1.837  0.00  0.00    +0.038 C 
ATOM     19  C   UNL     1       1.791   2.051  -1.605  0.00  0.00    -0.080 C 
ATOM     20  C   UNL     1       1.944   2.881  -0.603  0.00  0.00    -0.028 C 
ATOM     21  C   UNL     1       2.948   1.760  -2.526  0.00  0.00    +0.038 C 
ENDBRANCH  17  20
ENDBRANCH  16  17
ENDBRANCH  13  16
ENDBRANCH  12  14
ENDBRANCH   5  12
BRANCH   2  22
ATOM     22  S   UNL     1      -5.688   2.686   0.828  0.00  0.00    -0.086 S 
BRANCH  22  23
ATOM     23  C   UNL     1      -4.958   4.014  -0.070  0.00  0.00    +0.167 A 
ATOM     24  N   UNL     1      -5.287   4.373  -1.347  0.00  0.00    -0.333 N 
ATOM     25  H   UNL     1      -5.971   3.934  -1.929  0.00  0.00    +0.168 HD
ATOM     26  C   UNL     1      -4.494   5.458  -1.685  0.00  0.00    +0.067 A 
ATOM     27  C   UNL     1      -4.375   6.244  -2.821  0.00  0.00    +0.028 A 
ATOM     28  C   UNL     1      -3.461   7.277  -2.849  0.00  0.00    +0.002 A 
ATOM     29  C   UNL     1      -2.659   7.536  -1.747  0.00  0.00    +0.002 A 
ATOM     30  C   UNL     1      -2.764   6.766  -0.610  0.00  0.00    +0.030 A 
ATOM     31  C   UNL     1      -3.685   5.715  -0.566  0.00  0.00    +0.090 A 
ATOM     32  N   UNL     1      -4.015   4.802   0.384  0.00  0.00    -0.222 NA
ENDBRANCH  22  23
ENDBRANCH   2  22
TORSDOF 8
