REMARK  Name = ZINC38701976
REMARK  11 active torsions:
REMARK  status: ('A' for Active; 'I' for Inactive)
REMARK    1  A    between atoms: C_1  and  C_2
REMARK    2  A    between atoms: C_2  and  O_3
REMARK    3  A    between atoms: O_3  and  C_4
REMARK    4  A    between atoms: C_6  and  C_14
REMARK    5  A    between atoms: C_9  and  O_10
REMARK    6  A    between atoms: O_10  and  C_11
REMARK    7  A    between atoms: C_11  and  C_12
REMARK    8  A    between atoms: C_17  and  C_33
REMARK    9  A    between atoms: N_24  and  C_25
REMARK   10  A    between atoms: C_35  and  C_40
REMARK   11  A    between atoms: C_38  and  O_39
REMARK                            x       y       z     vdW  Elec       q    Type
REMARK                         _______ _______ _______ _____ _____    ______ ____
ROOT
ATOM      1  C   UNL     1      -0.328  -4.984   0.613  0.00  0.00    +0.142 C 
ATOM      2  C   UNL     1       0.831  -5.615   1.334  0.00  0.00    +0.035 A 
ATOM      3  C   UNL     1       1.962  -5.432   2.138  0.00  0.00    +0.102 A 
ATOM      4  N   UNL     1       2.490  -6.621   2.353  0.00  0.00    -0.173 NA
ATOM      5  N   UNL     1       1.805  -7.536   1.765  0.00  0.00    -0.272 N 
ATOM      6  H   UNL     1       2.008  -8.484   1.787  0.00  0.00    +0.189 HD
ATOM      7  C   UNL     1       0.748  -6.975   1.106  0.00  0.00    +0.126 A 
ATOM      8  C   UNL     1      -0.424  -7.236   0.263  0.00  0.00    +0.266 C 
ATOM      9  O   UNL     1      -0.775  -8.337  -0.117  0.00  0.00    -0.268 OA
ATOM     10  N   UNL     1      -1.058  -6.085  -0.029  0.00  0.00    -0.280 N 
ENDROOT
BRANCH  10  11
ATOM     11  C   UNL     1      -2.267  -5.952  -0.846  0.00  0.00    +0.100 C 
ATOM     12  C   UNL     1      -3.406  -6.778  -0.225  0.00  0.00    +0.047 C 
ATOM     13  C   UNL     1      -4.574  -6.905  -1.233  0.00  0.00    +0.168 C 
ATOM     14  S   UNL     1      -3.721  -6.789  -2.858  0.00  0.00    -0.029 S 
ATOM     15  O   UNL     1      -3.783  -8.052  -3.505  0.00  0.00    -0.174 OA
ATOM     16  O   UNL     1      -4.182  -5.630  -3.540  0.00  0.00    -0.174 OA
ATOM     17  C   UNL     1      -1.997  -6.498  -2.277  0.00  0.00    +0.188 C 
ENDBRANCH  10  11
BRANCH   3  18
ATOM     18  C   UNL     1       2.473  -4.137   2.653  0.00  0.00    +0.044 A 
ATOM     19  C   UNL     1       1.599  -3.221   3.233  0.00  0.00    +0.017 A 
ATOM     20  C   UNL     1       2.079  -2.019   3.711  0.00  0.00    -0.050 A 
ATOM     21  C   UNL     1       3.426  -1.719   3.615  0.00  0.00    +0.007 A 
ATOM     22  C   UNL     1       4.302  -2.620   3.041  0.00  0.00    +0.046 A 
ATOM     23  C   UNL     1       3.834  -3.834   2.563  0.00  0.00    +0.126 A 
ATOM     24  C   UNL     1       1.132  -1.028   4.338  0.00  0.00    +0.044 C 
BRANCH  23  25
ATOM     25  O   UNL     1       4.695  -4.724   2.004  0.00  0.00    -0.506 OA
ATOM     26  H   UNL     1       4.869  -4.567   1.066  0.00  0.00    +0.292 HD
ENDBRANCH  23  25
ENDBRANCH   3  18
BRANCH   1  29
ATOM     27  C   UNL     1       0.475  -1.767  -1.198  0.00  0.00    +0.162 A 
ATOM     28  C   UNL     1       0.015  -2.657  -0.241  0.00  0.00    +0.055 A 
ATOM     29  C   UNL     1       0.173  -4.017  -0.429  0.00  0.00    -0.019 A 
ATOM     30  C   UNL     1       0.791  -4.493  -1.570  0.00  0.00    +0.009 A 
ATOM     31  C   UNL     1       1.254  -3.611  -2.529  0.00  0.00    +0.050 A 
ATOM     32  C   UNL     1       1.093  -2.246  -2.349  0.00  0.00    +0.162 A 
BRANCH  27  33
ATOM     33  O   UNL     1       0.320  -0.428  -1.015  0.00  0.00    -0.489 OA
BRANCH  33  35
ATOM     34  C   UNL     1      -0.406   1.518   0.219  0.00  0.00    +0.048 C 
ATOM     35  C   UNL     1      -0.322  -0.009   0.191  0.00  0.00    +0.226 C 
ENDBRANCH  33  35
ENDBRANCH  27  33
BRANCH  32  36
ATOM     36  O   UNL     1       1.541  -1.377  -3.294  0.00  0.00    -0.484 OA
BRANCH  36  37
ATOM     37  C   UNL     1       2.164  -1.940  -4.450  0.00  0.00    +0.256 C 
BRANCH  37  38
ATOM     38  C   UNL     1       2.594  -0.833  -5.379  0.00  0.00    +0.006 C 
ATOM     39  C   UNL     1       3.783  -0.864  -5.928  0.00  0.00    +0.007 C 
ENDBRANCH  37  38
ENDBRANCH  36  37
ENDBRANCH  32  36
ENDBRANCH   1  29
TORSDOF 9
