REMARK  Name = ZINC02421789
REMARK  4 active torsions:
REMARK  status: ('A' for Active; 'I' for Inactive)
REMARK    1  A    between atoms: C_3  and  C_8
REMARK    2  A    between atoms: C_5  and  O_7
REMARK    3  A    between atoms: N_23  and  C_24
REMARK    4  A    between atoms: C_24  and  C_25
REMARK                            x       y       z     vdW  Elec       q    Type
REMARK                         _______ _______ _______ _____ _____    ______ ____
ROOT
ATOM      1  C   UNL     1       3.016   4.253   2.191  0.00  0.00    +0.145 C 
ATOM      2  C   UNL     1       2.903   4.935   3.529  0.00  0.00    +0.072 A 
ATOM      3  C   UNL     1       3.712   4.870   4.749  0.00  0.00    +0.199 A 
ATOM      4  O   UNL     1       4.700   4.161   4.824  0.00  0.00    -0.287 OA
ATOM      5  C   UNL     1       3.272   5.707   5.883  0.00  0.00    +0.066 A 
ATOM      6  C   UNL     1       3.968   5.721   7.090  0.00  0.00    +0.035 A 
ATOM      7  C   UNL     1       3.520   6.517   8.123  0.00  0.00    +0.042 A 
ATOM      8  C   UNL     1       2.384   7.299   7.960  0.00  0.00    +0.023 A 
ATOM      9  C   UNL     1       1.688   7.292   6.771  0.00  0.00    +0.048 A 
ATOM     10  C   UNL     1       2.121   6.497   5.715  0.00  0.00    +0.140 A 
ATOM     11  O   UNL     1       1.449   6.482   4.549  0.00  0.00    -0.450 OA
ATOM     12  C   UNL     1       1.811   5.737   3.486  0.00  0.00    +0.199 A 
ATOM     13  C   UNL     1       1.191   5.611   2.143  0.00  0.00    +0.284 C 
ATOM     14  O   UNL     1       0.195   6.205   1.779  0.00  0.00    -0.267 OA
ATOM     15  N   UNL     1       1.888   4.744   1.389  0.00  0.00    -0.276 N 
ATOM     16 CL   UNL     1       4.379   6.542   9.631  0.00  0.00    -0.084 Cl
ENDROOT
BRANCH   1  19
ATOM     17  C   UNL     1       1.603   0.795   2.740  0.00  0.00    +0.004 A 
ATOM     18  C   UNL     1       1.693   2.166   2.584  0.00  0.00    +0.006 A 
ATOM     19  C   UNL     1       2.921   2.759   2.360  0.00  0.00    -0.019 A 
ATOM     20  C   UNL     1       4.062   1.982   2.285  0.00  0.00    +0.051 A 
ATOM     21  C   UNL     1       3.974   0.607   2.447  0.00  0.00    +0.117 A 
ATOM     22  C   UNL     1       2.740   0.015   2.672  0.00  0.00    +0.045 A 
BRANCH  21  23
ATOM     23  O   UNL     1       5.095  -0.158   2.381  0.00  0.00    -0.507 OA
ATOM     24  H   UNL     1       5.305  -0.472   1.491  0.00  0.00    +0.292 HD
ENDBRANCH  21  23
ENDBRANCH   1  19
BRANCH  15  25
ATOM     25  C   UNL     1       1.581   4.361   0.009  0.00  0.00    +0.183 C 
BRANCH  25  26
ATOM     26  C   UNL     1       0.671   3.160   0.012  0.00  0.00    +0.122 A 
ATOM     27  C   UNL     1      -0.673   3.191   0.025  0.00  0.00    +0.046 A 
ATOM     28  C   UNL     1      -1.114   1.848   0.017  0.00  0.00    +0.041 A 
ATOM     29  C   UNL     1      -0.013   1.076   0.008  0.00  0.00    +0.195 A 
ATOM     30  O   UNL     1       1.066   1.876   0.002  0.00  0.00    -0.466 OA
ENDBRANCH  25  26
ENDBRANCH  15  25
TORSDOF 4
