REMARK  Name = ZINC09382848
REMARK  8 active torsions:
REMARK  status: ('A' for Active; 'I' for Inactive)
REMARK    1  A    between atoms: C_1  and  C_2
REMARK    2  A    between atoms: C_7  and  N_8
REMARK    3  A    between atoms: C_9  and  C_25
REMARK    4  A    between atoms: C_12  and  S_13
REMARK    5  A    between atoms: S_13  and  C_14
REMARK    6  A    between atoms: C_14  and  C_15
REMARK    7  A    between atoms: N_17  and  C_18
REMARK    8  A    between atoms: C_25  and  N_26
REMARK                            x       y       z     vdW  Elec       q    Type
REMARK                         _______ _______ _______ _____ _____    ______ ____
ROOT
ATOM      1  N   UNL     1       1.991   5.333  -2.425  0.00  0.00    -0.272 N 
ATOM      2  C   UNL     1       1.255   6.184  -1.643  0.00  0.00    +0.159 A 
ATOM      3  N   UNL     1       0.975   7.231  -2.367  0.00  0.00    -0.131 NA
ATOM      4  N   UNL     1       1.473   7.101  -3.545  0.00  0.00    -0.122 NA
ATOM      5  C   UNL     1       2.105   5.954  -3.639  0.00  0.00    +0.197 A 
ENDROOT
BRANCH   1  12
ATOM      6  C   UNL     1       4.496   5.269  -1.076  0.00  0.00    +0.046 C 
ATOM      7  C   UNL     1       3.734   4.010  -1.399  0.00  0.00    -0.027 A 
ATOM      8  C   UNL     1       4.245   2.779  -1.035  0.00  0.00    +0.005 A 
ATOM      9  C   UNL     1       3.550   1.623  -1.336  0.00  0.00    +0.000 A 
ATOM     10  C   UNL     1       2.338   1.695  -1.998  0.00  0.00    +0.002 A 
ATOM     11  C   UNL     1       1.819   2.922  -2.361  0.00  0.00    +0.026 A 
ATOM     12  C   UNL     1       2.515   4.085  -2.059  0.00  0.00    +0.053 A 
ENDBRANCH   1  12
BRANCH   5  13
ATOM     13  S   UNL     1       2.947   5.335  -5.058  0.00  0.00    -0.076 S 
BRANCH  13  14
ATOM     14  C   UNL     1       2.659   6.697  -6.214  0.00  0.00    +0.173 C 
BRANCH  14  15
ATOM     15  C   UNL     1       3.308   6.380  -7.536  0.00  0.00    +0.228 C 
ATOM     16  O   UNL     1       3.907   5.335  -7.683  0.00  0.00    -0.275 OA
ATOM     17  N   UNL     1       3.224   7.257  -8.556  0.00  0.00    -0.283 N 
ATOM     18  H   UNL     1       2.811   8.124  -8.417  0.00  0.00    +0.155 HD
BRANCH  17  19
ATOM     19  C   UNL     1       3.733   6.917  -9.816  0.00  0.00    +0.069 A 
ATOM     20  C   UNL     1       3.938   5.585 -10.147  0.00  0.00    +0.026 A 
ATOM     21  C   UNL     1       4.434   5.252 -11.392  0.00  0.00    +0.002 A 
ATOM     22  C   UNL     1       4.738   6.245 -12.306  0.00  0.00    +0.003 A 
ATOM     23  C   UNL     1       4.541   7.574 -11.979  0.00  0.00    +0.040 A 
ATOM     24  C   UNL     1       4.039   7.914 -10.736  0.00  0.00    +0.144 A 
ATOM     25  F   UNL     1       3.847   9.212 -10.416  0.00  0.00    -0.204 F 
ENDBRANCH  17  19
ENDBRANCH  14  15
ENDBRANCH  13  14
ENDBRANCH   5  13
BRANCH   2  26
ATOM     26  C   UNL     1       0.851   5.955  -0.210  0.00  0.00    +0.202 C 
BRANCH  26  27
ATOM     27  N   UNL     1      -0.595   5.728  -0.140  0.00  0.00    -0.294 N 
ATOM     28  C   UNL     1      -1.083   4.434  -0.082  0.00  0.00    +0.060 A 
ATOM     29  C   UNL     1      -0.347   3.237  -0.078  0.00  0.00    +0.027 A 
ATOM     30  C   UNL     1      -0.980   2.019  -0.015  0.00  0.00    +0.002 A 
ATOM     31  C   UNL     1      -2.361   1.929   0.048  0.00  0.00    +0.001 A 
ATOM     32  C   UNL     1      -3.112   3.092   0.041  0.00  0.00    +0.017 A 
ATOM     33  C   UNL     1      -2.479   4.309  -0.017  0.00  0.00    +0.041 A 
ATOM     34  S   UNL     1      -3.036   5.996  -0.042  0.00  0.00    -0.027 S 
ATOM     35  C   UNL     1      -1.435   6.781  -0.135  0.00  0.00    +0.292 A 
ATOM     36  O   UNL     1      -1.170   7.968  -0.180  0.00  0.00    -0.259 OA
ENDBRANCH  26  27
ENDBRANCH   2  26
TORSDOF 7
