REMARK  Name = ZINC14749200
REMARK  10 active torsions:
REMARK  status: ('A' for Active; 'I' for Inactive)
REMARK    1  A    between atoms: C_1  and  C_2
REMARK    2  A    between atoms: C_2  and  C_3
REMARK    3  A    between atoms: C_2  and  C_4
REMARK    4  A    between atoms: C_4  and  N_5
REMARK    5  A    between atoms: N_8  and  C_27
REMARK    6  A    between atoms: C_16  and  C_17
REMARK    7  A    between atoms: C_16  and  N_70
REMARK    8  A    between atoms: C_27  and  C_28
REMARK    9  A    between atoms: C_28  and  C_29
REMARK   10  A    between atoms: C_29  and  C_30
REMARK                            x       y       z     vdW  Elec       q    Type
REMARK                         _______ _______ _______ _____ _____    ______ ____
ROOT
ATOM      1  N   UNL     1      -5.535   4.589  -4.335  0.00  0.00    -0.271 N 
ATOM      2  C   UNL     1      -5.282   3.823  -3.256  0.00  0.00    +0.312 C 
ATOM      3  O   UNL     1      -5.765   2.722  -3.081  0.00  0.00    -0.252 OA
ATOM      4  N   UNL     1      -4.438   4.411  -2.399  0.00  0.00    -0.224 N 
ATOM      5  C   UNL     1      -4.057   5.630  -2.834  0.00  0.00    +0.247 C 
ATOM      6  O   UNL     1      -3.307   6.405  -2.282  0.00  0.00    -0.273 OA
ATOM      7  C   UNL     1      -4.761   5.824  -4.157  0.00  0.00    +0.112 C 
ATOM      8  C   UNL     1      -5.689   7.033  -4.091  0.00  0.00    +0.017 C 
ATOM      9  C   UNL     1      -6.371   7.223  -5.449  0.00  0.00    -0.076 C 
ATOM     10  C   UNL     1      -4.494   6.213  -6.606  0.00  0.00    -0.076 C 
ATOM     11  C   UNL     1      -3.749   5.989  -5.286  0.00  0.00    +0.017 C 
ATOM     12  N   UNL     1      -5.332   7.426  -6.482  0.00  0.00    +0.383 N 
ATOM     13  H   UNL     1      -4.736   8.215  -6.204  0.00  0.00    -0.081 HD
ENDROOT
BRANCH   1  14
ATOM     14  C   UNL     1      -6.409   4.256  -5.463  0.00  0.00    +0.113 C 
BRANCH  14  16
ATOM     15  C   UNL     1      -6.838   2.612  -7.295  0.00  0.00    +0.009 C 
ATOM     16  C   UNL     1      -5.892   2.993  -6.153  0.00  0.00    +0.000 C 
ATOM     17  C   UNL     1      -4.494   3.255  -6.716  0.00  0.00    +0.009 C 
ENDBRANCH  14  16
ENDBRANCH   1  14
BRANCH  12  18
ATOM     18  C   UNL     1      -5.964   7.736  -7.780  0.00  0.00    -0.025 C 
BRANCH  18  19
ATOM     19  C   UNL     1      -6.630   9.085  -7.685  0.00  0.00    +0.000 A 
ATOM     20  C   UNL     1      -7.930   9.285  -7.415  0.00  0.00    +0.029 A 
ATOM     21  C   UNL     1      -8.148  10.734  -7.415  0.00  0.00    -0.000 A 
ATOM     22  C   UNL     1      -9.263  11.547  -7.202  0.00  0.00    +0.010 A 
ATOM     23  C   UNL     1      -9.137  12.905  -7.279  0.00  0.00    +0.001 A 
ATOM     24  C   UNL     1      -7.908  13.483  -7.569  0.00  0.00    +0.002 A 
ATOM     25  C   UNL     1      -6.796  12.700  -7.783  0.00  0.00    +0.026 A 
ATOM     26  C   UNL     1      -6.902  11.315  -7.709  0.00  0.00    +0.047 A 
ATOM     27  N   UNL     1      -6.001  10.286  -7.867  0.00  0.00    -0.360 N 
ATOM     28  H   UNL     1      -5.060  10.396  -8.077  0.00  0.00    +0.166 HD
ENDBRANCH  18  19
ENDBRANCH  12  18
BRANCH   4  29
ATOM     29  C   UNL     1      -3.989   3.808  -1.142  0.00  0.00    +0.118 C 
BRANCH  29  30
ATOM     30  C   UNL     1      -2.716   2.998  -1.391  0.00  0.00    +0.024 C 
BRANCH  30  31
ATOM     31  C   UNL     1      -2.247   2.368  -0.078  0.00  0.00    +0.038 C 
BRANCH  31  32
ATOM     32  C   UNL     1      -0.992   1.569  -0.324  0.00  0.00    -0.029 A 
ATOM     33  C   UNL     1      -1.070   0.230  -0.673  0.00  0.00    +0.006 A 
ATOM     34  C   UNL     1       0.110  -0.467  -0.884  0.00  0.00    +0.020 A 
ATOM     35  C   UNL     1       1.316   0.196  -0.752  0.00  0.00    +0.111 A 
ATOM     36  N   UNL     1       1.352   1.473  -0.424  0.00  0.00    -0.263 NA
ATOM     37  C   UNL     1       0.250   2.165  -0.210  0.00  0.00    +0.114 A 
ENDBRANCH  31  32
ENDBRANCH  30  31
ENDBRANCH  29  30
ENDBRANCH   4  29
TORSDOF 8
