REMARK  Name = ZINC08884624
REMARK  11 active torsions:
REMARK  status: ('A' for Active; 'I' for Inactive)
REMARK    1  A    between atoms: C_1  and  O_2
REMARK    2  A    between atoms: O_2  and  C_3
REMARK    3  A    between atoms: C_5  and  C_13
REMARK    4  A    between atoms: C_8  and  O_9
REMARK    5  A    between atoms: O_9  and  C_10
REMARK    6  A    between atoms: C_13  and  C_15
REMARK    7  A    between atoms: C_15  and  O_16
REMARK    8  A    between atoms: O_16  and  C_17
REMARK    9  A    between atoms: C_17  and  C_19
REMARK   10  A    between atoms: N_22  and  C_25
REMARK   11  A    between atoms: C_28  and  C_30
REMARK                            x       y       z     vdW  Elec       q    Type
REMARK                         _______ _______ _______ _____ _____    ______ ____
ROOT
ATOM      1  C   UNL     1      -5.367   3.730   7.887  0.00  0.00    +0.311 C 
ATOM      2  O   UNL     1      -5.933   4.791   7.768  0.00  0.00    -0.251 OA
ENDROOT
BRANCH   1   3
ATOM      3  C   UNL     1      -4.716   3.085   6.691  0.00  0.00    +0.101 C 
ATOM      4  C   UNL     1      -4.915   3.973   5.459  0.00  0.00    +0.033 C 
ATOM      5  C   UNL     1      -4.200   3.343   4.262  0.00  0.00    +0.107 C 
ATOM      6  N   UNL     1      -2.769   3.205   4.561  0.00  0.00    -0.317 N 
ATOM      7  C   UNL     1      -2.551   2.319   5.712  0.00  0.00    +0.107 C 
ATOM      8  C   UNL     1      -3.217   2.918   6.953  0.00  0.00    +0.033 C 
BRANCH   6   9
ATOM      9  C   UNL     1      -2.068   2.757   3.448  0.00  0.00    +0.099 A 
ATOM     10  C   UNL     1      -0.692   2.563   3.532  0.00  0.00    +0.042 A 
ATOM     11  C   UNL     1      -0.007   2.118   2.416  0.00  0.00    +0.017 A 
ATOM     12  C   UNL     1      -0.722   1.881   1.250  0.00  0.00    +0.071 A 
ATOM     13  C   UNL     1      -2.085   2.100   1.236  0.00  0.00    +0.096 A 
ATOM     14  N   UNL     1      -2.792   2.532   2.314  0.00  0.00    -0.349 N 
ATOM     15  H   UNL     1      -3.808   2.679   2.277  0.00  0.00    +0.167 HD
BRANCH  12  16
ATOM     16  C   UNL     1      -0.017   1.395   0.010  0.00  0.00    +0.419 C 
ATOM     17  F   UNL     1       0.002  -0.004   0.002  0.00  0.00    -0.166 F 
ATOM     18  F   UNL     1       1.296   1.879  -0.000  0.00  0.00    -0.166 F 
ATOM     19  F   UNL     1      -0.694   1.858  -1.124  0.00  0.00    -0.166 F 
ENDBRANCH  12  16
ENDBRANCH   6   9
ENDBRANCH   1   3
BRANCH   1  20
ATOM     20  O   UNL     1      -5.319   3.126   9.085  0.00  0.00    -0.456 OA
BRANCH  20  21
ATOM     21  C   UNL     1      -5.968   3.805  10.192  0.00  0.00    +0.311 C 
BRANCH  21  22
ATOM     22  C   UNL     1      -5.811   2.984  11.446  0.00  0.00    +0.200 C 
ATOM     23  O   UNL     1      -5.212   1.930  11.410  0.00  0.00    -0.288 OA
BRANCH  22  26
ATOM     24  C   UNL     1      -6.781   3.150  15.064  0.00  0.00    +0.162 A 
ATOM     25  C   UNL     1      -6.240   2.698  13.878  0.00  0.00    +0.061 A 
ATOM     26  C   UNL     1      -6.385   3.459  12.712  0.00  0.00    +0.025 A 
ATOM     27  C   UNL     1      -7.072   4.678  12.757  0.00  0.00    +0.015 A 
ATOM     28  C   UNL     1      -7.614   5.119  13.943  0.00  0.00    +0.050 A 
ATOM     29  C   UNL     1      -7.470   4.363  15.100  0.00  0.00    +0.168 A 
BRANCH  24  31
ATOM     30  C   UNL     1      -5.926   1.182  16.090  0.00  0.00    +0.277 C 
ATOM     31  O   UNL     1      -6.643   2.413  16.199  0.00  0.00    -0.491 OA
ENDBRANCH  24  31
BRANCH  29  32
ATOM     32  O   UNL     1      -8.002   4.805  16.268  0.00  0.00    -0.431 OA
BRANCH  32  33
ATOM     33  C   UNL     1      -8.694   6.055  16.234  0.00  0.00    +0.541 C 
ATOM     34  F   UNL     1      -7.819   7.062  15.814  0.00  0.00    -0.166 F 
ATOM     35  F   UNL     1      -9.768   5.968  15.341  0.00  0.00    -0.166 F 
ENDBRANCH  32  33
ENDBRANCH  29  32
ENDBRANCH  22  26
ENDBRANCH  21  22
ENDBRANCH  20  21
ENDBRANCH   1  20
TORSDOF 10
