REMARK  Name = ZINC36972318
REMARK  5 active torsions:
REMARK  status: ('A' for Active; 'I' for Inactive)
REMARK    1  A    between atoms: C_1  and  C_2
REMARK    2  A    between atoms: C_7  and  N_10
REMARK    3  A    between atoms: N_10  and  C_11
REMARK    4  A    between atoms: C_14  and  C_17
REMARK    5  A    between atoms: N_21  and  C_22
REMARK                            x       y       z     vdW  Elec       q    Type
REMARK                         _______ _______ _______ _____ _____    ______ ____
ROOT
ATOM      1  C   UNL     1       0.751  -3.467   3.783  0.00  0.00    +0.027 A 
ATOM      2  C   UNL     1      -0.153  -4.228   3.049  0.00  0.00    +0.023 A 
ATOM      3  C   UNL     1      -0.311  -5.568   3.325  0.00  0.00    +0.013 A 
ATOM      4  C   UNL     1       0.437  -6.163   4.343  0.00  0.00    +0.019 A 
ATOM      5  C   UNL     1       1.344  -5.396   5.078  0.00  0.00    +0.013 A 
ATOM      6  C   UNL     1       1.501  -4.057   4.794  0.00  0.00    +0.023 A 
ENDROOT
BRANCH   4   7
ATOM      7  C   UNL     1       0.269  -7.601   4.643  0.00  0.00    +0.164 A 
ATOM      8  N   UNL     1      -0.766  -8.349   4.332  0.00  0.00    -0.129 NA
ATOM      9  N   UNL     1      -0.574  -9.550   4.746  0.00  0.00    -0.138 NA
ATOM     10  C   UNL     1       0.586  -9.639   5.340  0.00  0.00    +0.225 A 
ATOM     11  N   UNL     1       1.165  -8.408   5.291  0.00  0.00    -0.317 N 
ATOM     12  C   UNL     1       2.474  -8.024   5.826  0.00  0.00    +0.152 C 
ENDBRANCH   4   7
BRANCH   1  13
ATOM     13  N   UNL     1       0.909  -2.110   3.500  0.00  0.00    -0.341 N 
ATOM     14  H   UNL     1       1.542  -1.579   4.009  0.00  0.00    +0.146 HD
BRANCH  13  20
ATOM     15  C   UNL     1      -0.974   2.163   1.875  0.00  0.00    +0.007 C 
ATOM     16  C   UNL     1      -0.840   0.664   1.599  0.00  0.00    -0.012 C 
ATOM     17  C   UNL     1      -0.141   0.453   0.255  0.00  0.00    +0.003 C 
ATOM     18  C   UNL     1      -0.007  -1.046  -0.020  0.00  0.00    +0.002 C 
ATOM     19  C   UNL     1       0.818  -1.698   1.091  0.00  0.00    +0.022 C 
ATOM     20  C   UNL     1       0.119  -1.486   2.436  0.00  0.00    +0.071 C 
ATOM     21  C   UNL     1      -0.015   0.013   2.711  0.00  0.00    +0.025 C 
ENDBRANCH  13  20
ENDBRANCH   1  13
TORSDOF 3
