REMARK  Name = ZINC67299059
REMARK  6 active torsions:
REMARK  status: ('A' for Active; 'I' for Inactive)
REMARK    1  A    between atoms: C_1  and  O_2
REMARK    2  A    between atoms: O_2  and  C_3
REMARK    3  A    between atoms: N_11  and  C_12
REMARK    4  A    between atoms: C_20  and  C_22
REMARK    5  A    between atoms: N_24  and  C_25
REMARK    6  A    between atoms: C_25  and  C_26
REMARK                            x       y       z     vdW  Elec       q    Type
REMARK                         _______ _______ _______ _____ _____    ______ ____
ROOT
ATOM      1  C   UNL     1       0.719  -0.661   1.012  0.00  0.00    +0.163 A 
ATOM      2  C   UNL     1       1.306   0.096   2.012  0.00  0.00    +0.049 A 
ATOM      3  C   UNL     1       1.925  -0.516   3.091  0.00  0.00    +0.004 A 
ATOM      4  C   UNL     1       1.967  -1.889   3.184  0.00  0.00    +0.012 A 
ATOM      5  C   UNL     1       1.381  -2.671   2.181  0.00  0.00    +0.022 A 
ATOM      6  C   UNL     1       0.744  -2.050   1.091  0.00  0.00    +0.179 A 
ATOM      7  O   UNL     1       0.164  -2.807   0.127  0.00  0.00    -0.435 OA
ATOM      8  C   UNL     1       0.673  -4.050  -0.071  0.00  0.00    +0.212 A 
ATOM      9  N   UNL     1       0.824  -4.535  -1.284  0.00  0.00    -0.325 N 
ATOM     10  C   UNL     1       1.053  -4.840   1.117  0.00  0.00    +0.097 A 
ATOM     11  C   UNL     1       1.418  -4.134   2.253  0.00  0.00    +0.030 A 
ATOM     12  H   UNL     1       1.270  -5.386  -1.414  0.00  0.00    +0.169 HD
ENDROOT
BRANCH   9  13
ATOM     13  C   UNL     1       0.352  -3.838  -2.363  0.00  0.00    +0.043 A 
ATOM     14  C   UNL     1      -0.921  -3.264  -2.325  0.00  0.00    +0.028 A 
ATOM     15  C   UNL     1      -1.392  -2.562  -3.415  0.00  0.00    +0.042 A 
ATOM     16  C   UNL     1      -0.605  -2.426  -4.547  0.00  0.00    +0.142 A 
ATOM     17  C   UNL     1       0.659  -2.993  -4.592  0.00  0.00    +0.078 A 
ATOM     18  C   UNL     1       1.143  -3.693  -3.505  0.00  0.00    +0.048 A 
ATOM     19 CL   UNL     1       1.638  -2.818  -6.015  0.00  0.00    -0.081 Cl
ATOM     20  F   UNL     1      -1.072  -1.738  -5.612  0.00  0.00    -0.204 F 
ENDBRANCH   9  13
BRANCH  10  21
ATOM     21  C   UNL     1       1.055  -6.312   1.092  0.00  0.00    +0.250 C 
ATOM     22  O   UNL     1       0.815  -6.904   0.057  0.00  0.00    -0.270 OA
ATOM     23  N   UNL     1       1.324  -7.005   2.217  0.00  0.00    -0.304 N 
ATOM     24  H   UNL     1       1.442  -6.537   3.058  0.00  0.00    +0.149 HD
BRANCH  23  25
ATOM     25  C   UNL     1       1.437  -8.465   2.168  0.00  0.00    +0.179 C 
BRANCH  25  26
ATOM     26  C   UNL     1       1.739  -8.991   3.548  0.00  0.00    +0.122 A 
ATOM     27  C   UNL     1       0.828  -9.360   4.466  0.00  0.00    +0.046 A 
ATOM     28  C   UNL     1       1.546  -9.787   5.607  0.00  0.00    +0.041 A 
ATOM     29  C   UNL     1       2.853  -9.654   5.317  0.00  0.00    +0.195 A 
ATOM     30  O   UNL     1       2.964  -9.177   4.066  0.00  0.00    -0.466 OA
ENDBRANCH  25  26
ENDBRANCH  23  25
ENDBRANCH  10  21
BRANCH   1  32
ATOM     31  C   UNL     1       0.126   1.379  -0.055  0.00  0.00    +0.277 C 
ATOM     32  O   UNL     1       0.114  -0.050  -0.041  0.00  0.00    -0.491 OA
ENDBRANCH   1  32
TORSDOF 5
