REMARK  Name = ZINC12347761
REMARK  5 active torsions:
REMARK  status: ('A' for Active; 'I' for Inactive)
REMARK    1  A    between atoms: C_1  and  C_2
REMARK    2  A    between atoms: C_2  and  C_31
REMARK    3  A    between atoms: C_6  and  C_16
REMARK    4  A    between atoms: C_13  and  O_14
REMARK    5  A    between atoms: C_19  and  C_22
REMARK                            x       y       z     vdW  Elec       q    Type
REMARK                         _______ _______ _______ _____ _____    ______ ____
ROOT
ATOM      1  C   UNL     1       6.923  -1.562   2.791  0.00  0.00    +0.011 C 
ATOM      2  C   UNL     1       6.268  -0.322   3.401  0.00  0.00    -0.023 C 
ATOM      3  C   UNL     1       6.335   0.839   2.408  0.00  0.00    +0.058 C 
ATOM      4  C   UNL     1       5.584   0.474   1.147  0.00  0.00    +0.017 C 
ATOM      5  C   UNL     1       4.508  -0.341   1.195  0.00  0.00    +0.024 C 
ATOM      6  C   UNL     1       3.710  -0.706  -0.038  0.00  0.00    +0.092 C 
ATOM      7  C   UNL     1       4.481  -0.327  -1.270  0.00  0.00    +0.067 A 
ATOM      8  C   UNL     1       5.578   0.491  -1.227  0.00  0.00    +0.126 A 
ATOM      9  N   UNL     1       6.032   0.636  -2.486  0.00  0.00    -0.260 N 
ATOM     10  H   UNL     1       6.823   1.180  -2.769  0.00  0.00    +0.190 HD
ATOM     11  N   UNL     1       5.198  -0.113  -3.331  0.00  0.00    -0.134 NA
ATOM     12  C   UNL     1       4.270  -0.688  -2.598  0.00  0.00    +0.237 A 
ATOM     13  N   UNL     1       6.045   1.014  -0.027  0.00  0.00    -0.303 N 
ATOM     14  C   UNL     1       4.078  -0.896   2.414  0.00  0.00    +0.162 C 
ATOM     15  O   UNL     1       3.104  -1.623   2.424  0.00  0.00    -0.292 OA
ATOM     16  C   UNL     1       4.794  -0.612   3.704  0.00  0.00    +0.086 C 
ATOM     17  C   UNL     1       6.995   0.062   4.692  0.00  0.00    +0.011 C 
ATOM     18  H   UNL     1       6.683   1.745  -0.020  0.00  0.00    +0.153 HD
ENDROOT
BRANCH   6  19
ATOM     19  C   UNL     1       2.396   0.033  -0.021  0.00  0.00    -0.035 A 
ATOM     20  C   UNL     1       1.208  -0.675  -0.013  0.00  0.00    +0.005 A 
ATOM     21  C   UNL     1       0.002  -0.004   0.002  0.00  0.00    +0.009 A 
ATOM     22  C   UNL     1      -0.017   1.389   0.010  0.00  0.00    -0.018 A 
ATOM     23  C   UNL     1       1.183   2.097   0.002  0.00  0.00    +0.009 A 
ATOM     24  C   UNL     1       2.383   1.416  -0.014  0.00  0.00    +0.005 A 
BRANCH  22  25
ATOM     25  C   UNL     1      -1.310   2.116   0.020  0.00  0.00    -0.018 A 
ATOM     26  C   UNL     1      -2.510   1.408   0.016  0.00  0.00    +0.008 A 
ATOM     27  C   UNL     1      -3.711   2.090   0.030  0.00  0.00    +0.001 A 
ATOM     28  C   UNL     1      -3.724   3.473   0.038  0.00  0.00    +0.000 A 
ATOM     29  C   UNL     1      -2.535   4.181   0.036  0.00  0.00    +0.001 A 
ATOM     30  C   UNL     1      -1.329   3.510   0.027  0.00  0.00    +0.008 A 
ENDBRANCH  22  25
ENDBRANCH   6  19
BRANCH  12  31
ATOM     31  O   UNL     1       3.277  -1.496  -3.057  0.00  0.00    -0.491 OA
ATOM     32  H   UNL     1       3.356  -1.590  -4.049  0.00  0.00    +0.294 HD
ENDBRANCH  12  31
TORSDOF 3
