REMARK  Name = ZINC06227828
REMARK  10 active torsions:
REMARK  status: ('A' for Active; 'I' for Inactive)
REMARK    1  A    between atoms: C_1  and  C_2
REMARK    2  A    between atoms: C_2  and  O_3
REMARK    3  A    between atoms: O_3  and  C_4
REMARK    4  A    between atoms: C_4  and  C_6
REMARK    5  A    between atoms: C_7  and  C_37
REMARK    6  A    between atoms: C_14  and  C_15
REMARK    7  A    between atoms: C_20  and  O_21
REMARK    8  A    between atoms: C_23  and  C_25
REMARK    9  A    between atoms: C_34  and  O_35
REMARK   10  A    between atoms: O_35  and  C_36
REMARK                            x       y       z     vdW  Elec       q    Type
REMARK                         _______ _______ _______ _____ _____    ______ ____
ROOT
ATOM      1  C   UNL     1      -6.080   7.110  -0.305  0.00  0.00    +0.085 C 
ATOM      2  C   UNL     1      -5.580   8.380  -0.375  0.00  0.00    +0.053 C 
ATOM      3  N   UNL     1      -4.271   8.593  -0.343  0.00  0.00    -0.228 NA
ATOM      4  C   UNL     1      -3.364   7.654  -0.246  0.00  0.00    +0.178 A 
ATOM      5  N   UNL     1      -3.651   6.311  -0.165  0.00  0.00    -0.275 N 
ATOM      6  C   UNL     1      -2.636   5.442  -0.069  0.00  0.00    +0.268 A 
ATOM      7  O   UNL     1      -2.842   4.244   0.007  0.00  0.00    -0.266 OA
ATOM      8  C   UNL     1      -1.268   5.977  -0.057  0.00  0.00    +0.081 A 
ATOM      9  C   UNL     1      -0.084   5.317   0.031  0.00  0.00    +0.032 C 
ATOM     10  S   UNL     1      -1.584   7.730  -0.181  0.00  0.00    -0.046 S 
ATOM     11  C   UNL     1      -5.100   5.965  -0.192  0.00  0.00    +0.166 C 
ATOM     12  C   UNL     1      -6.524   9.549  -0.488  0.00  0.00    +0.066 C 
ENDROOT
BRANCH  11  13
ATOM     13  C   UNL     1      -5.419   5.205   1.069  0.00  0.00    +0.029 A 
ATOM     14  C   UNL     1      -6.203   4.041   1.013  0.00  0.00    -0.009 A 
ATOM     15  C   UNL     1      -6.707   3.559  -0.207  0.00  0.00    +0.009 A 
ATOM     16  C   UNL     1      -7.463   2.428  -0.225  0.00  0.00    +0.001 A 
ATOM     17  C   UNL     1      -7.748   1.738   0.952  0.00  0.00    +0.001 A 
ATOM     18  C   UNL     1      -7.278   2.174   2.152  0.00  0.00    +0.008 A 
ATOM     19  C   UNL     1      -6.493   3.339   2.210  0.00  0.00    -0.017 A 
ATOM     20  C   UNL     1      -5.990   3.818   3.432  0.00  0.00    +0.012 A 
ATOM     21  C   UNL     1      -5.233   4.948   3.453  0.00  0.00    +0.046 A 
ATOM     22  C   UNL     1      -4.942   5.640   2.273  0.00  0.00    +0.126 A 
BRANCH  22  23
ATOM     23  O   UNL     1      -4.179   6.763   2.325  0.00  0.00    -0.495 OA
ATOM     24  C   UNL     1      -3.709   7.169   3.612  0.00  0.00    +0.277 C 
ENDBRANCH  22  23
ENDBRANCH  11  13
BRANCH   9  25
ATOM     25  C   UNL     1      -0.053   3.852  -0.037  0.00  0.00    +0.018 A 
ATOM     26  C   UNL     1      -0.854   3.172  -0.964  0.00  0.00    +0.011 A 
ATOM     27  C   UNL     1      -0.816   1.797  -1.025  0.00  0.00    +0.001 A 
ATOM     28  C   UNL     1       0.002   1.081  -0.166  0.00  0.00    +0.004 A 
ATOM     29  C   UNL     1       0.798   1.737   0.753  0.00  0.00    +0.046 A 
ATOM     30  C   UNL     1       0.778   3.120   0.827  0.00  0.00    +0.124 A 
BRANCH  30  31
ATOM     31  O   UNL     1       1.559   3.766   1.731  0.00  0.00    -0.506 OA
ATOM     32  H   UNL     1       2.438   3.994   1.399  0.00  0.00    +0.292 HD
ENDBRANCH  30  31
ENDBRANCH   9  25
BRANCH   1  33
ATOM     33  C   UNL     1      -7.464   6.875  -0.338  0.00  0.00    +0.339 C 
ATOM     34  O   UNL     1      -8.239   7.811  -0.429  0.00  0.00    -0.245 OA
BRANCH  33  35
ATOM     35  O   UNL     1      -7.937   5.612  -0.267  0.00  0.00    -0.462 OA
BRANCH  35  37
ATOM     36  C   UNL     1      -9.699   3.959  -0.215  0.00  0.00    +0.048 C 
ATOM     37  C   UNL     1      -9.356   5.447  -0.306  0.00  0.00    +0.229 C 
ENDBRANCH  35  37
ENDBRANCH  33  35
ENDBRANCH   1  33
TORSDOF 7
