REMARK  Name = ZINC36316459
REMARK  18 active torsions:
REMARK  status: ('A' for Active; 'I' for Inactive)
REMARK    1  A    between atoms: C_1  and  C_2
REMARK    2  A    between atoms: C_2  and  C_3
REMARK    3  A    between atoms: C_4  and  C_22
REMARK    4  A    between atoms: C_5  and  O_14
REMARK    5  A    between atoms: N_6  and  C_8
REMARK    6  A    between atoms: O_14  and  C_15
REMARK    7  A    between atoms: C_22  and  N_23
REMARK    8  A    between atoms: N_23  and  C_24
REMARK    9  A    between atoms: N_23  and  C_33
REMARK   10  A    between atoms: C_24  and  C_25
REMARK   11  A    between atoms: C_25  and  C_27
REMARK   12  A    between atoms: C_25  and  O_32
REMARK   13  A    between atoms: C_27  and  O_28
REMARK   14  A    between atoms: O_28  and  C_29
REMARK   15  A    between atoms: C_29  and  C_30
REMARK   16  A    between atoms: C_33  and  C_34
REMARK   17  A    between atoms: C_34  and  C_35
REMARK   18  A    between atoms: C_34  and  C_36
REMARK                            x       y       z     vdW  Elec       q    Type
REMARK                         _______ _______ _______ _____ _____    ______ ____
ROOT
ATOM      1  C   UNL     1       0.022  -0.578   0.660  0.00  0.00    +0.068 A 
ATOM      2  C   UNL     1       1.375  -0.460   0.992  0.00  0.00    +0.021 A 
ATOM      3  C   UNL     1       1.465  -0.351   2.345  0.00  0.00    +0.225 A 
ATOM      4  N   UNL     1       0.201  -0.400   2.844  0.00  0.00    -0.200 N 
ATOM      5  N   UNL     1      -0.680  -0.537   1.764  0.00  0.00    -0.168 NA
ENDROOT
BRANCH   4   6
ATOM      6  C   UNL     1      -0.157  -0.321   4.197  0.00  0.00    +0.069 A 
ATOM      7  C   UNL     1       0.573  -1.018   5.151  0.00  0.00    +0.028 A 
ATOM      8  C   UNL     1       0.218  -0.938   6.483  0.00  0.00    +0.002 A 
ATOM      9  C   UNL     1      -0.863  -0.166   6.867  0.00  0.00    +0.000 A 
ATOM     10  C   UNL     1      -1.591   0.529   5.920  0.00  0.00    +0.002 A 
ATOM     11  C   UNL     1      -1.238   0.458   4.586  0.00  0.00    +0.028 A 
ENDBRANCH   4   6
BRANCH   1  13
ATOM     12  C   UNL     1      -0.814   0.664  -1.316  0.00  0.00    +0.010 C 
ATOM     13  C   UNL     1      -0.533  -0.722  -0.733  0.00  0.00    +0.054 C 
ENDBRANCH   1  13
BRANCH   3  14
ATOM     14  O   UNL     1       2.608  -0.218   3.065  0.00  0.00    -0.435 OA
BRANCH  14  15
ATOM     15  C   UNL     1       3.274  -1.349   3.420  0.00  0.00    +0.165 A 
ATOM     16  C   UNL     1       2.838  -2.584   2.963  0.00  0.00    +0.049 A 
ATOM     17  C   UNL     1       3.517  -3.732   3.325  0.00  0.00    +0.004 A 
ATOM     18  C   UNL     1       4.630  -3.652   4.141  0.00  0.00    +0.003 A 
ATOM     19  C   UNL     1       5.068  -2.422   4.598  0.00  0.00    +0.042 A 
ATOM     20  C   UNL     1       4.396  -1.269   4.235  0.00  0.00    +0.165 A 
ATOM     21  F   UNL     1       4.827  -0.068   4.678  0.00  0.00    -0.202 F 
ENDBRANCH  14  15
ENDBRANCH   3  14
BRANCH   2  22
ATOM     22  C   UNL     1       2.529  -0.455   0.023  0.00  0.00    -0.036 C 
BRANCH  22  23
ATOM     23  N   UNL     1       2.810   0.924  -0.397  0.00  0.00    +0.384 N 
ATOM     24  H   UNL     1       1.970   1.339  -0.770  0.00  0.00    -0.081 HD
BRANCH  23  25
ATOM     25  C   UNL     1       3.854   0.918  -1.431  0.00  0.00    -0.044 C 
BRANCH  25  26
ATOM     26  C   UNL     1       3.322   0.228  -2.688  0.00  0.00    +0.124 C 
BRANCH  26  27
ATOM     27  O   UNL     1       2.193   0.948  -3.186  0.00  0.00    -0.391 OA
ATOM     28  H   UNL     1       2.400   1.841  -3.494  0.00  0.00    +0.210 HD
ENDBRANCH  26  27
BRANCH  26  29
ATOM     29  C   UNL     1       4.418   0.198  -3.756  0.00  0.00    +0.189 C 
BRANCH  29  30
ATOM     30  O   UNL     1       3.962  -0.548  -4.886  0.00  0.00    -0.373 OA
BRANCH  30  31
ATOM     31  C   UNL     1       4.916  -0.637  -5.946  0.00  0.00    +0.186 C 
BRANCH  31  32
ATOM     32  C   UNL     1       4.333  -1.441  -7.080  0.00  0.00    -0.007 C 
ATOM     33  C   UNL     1       4.460  -1.021  -8.314  0.00  0.00    +0.006 C 
ENDBRANCH  31  32
ENDBRANCH  30  31
ENDBRANCH  29  30
ENDBRANCH  26  29
ENDBRANCH  25  26
ENDBRANCH  23  25
BRANCH  23  34
ATOM     34  C   UNL     1       3.270   1.704   0.759  0.00  0.00    -0.075 C 
BRANCH  34  35
ATOM     35  C   UNL     1       3.427   3.171   0.355  0.00  0.00    -0.034 C 
ATOM     36  C   UNL     1       2.063   3.738  -0.046  0.00  0.00    +0.005 C 
ATOM     37  C   UNL     1       3.983   3.969   1.536  0.00  0.00    +0.005 C 
ENDBRANCH  34  35
ENDBRANCH  23  34
ENDBRANCH  22  23
ENDBRANCH   2  22
TORSDOF 15
