REMARK  Name = ZINC05504426
REMARK  6 active torsions:
REMARK  status: ('A' for Active; 'I' for Inactive)
REMARK    1  A    between atoms: C_1  and  C_2
REMARK    2  A    between atoms: C_5  and  C_8
REMARK    3  A    between atoms: C_11  and  C_24
REMARK    4  A    between atoms: C_12  and  C_22
REMARK    5  A    between atoms: C_16  and  C_19
REMARK    6  A    between atoms: C_17  and  C_18
REMARK                            x       y       z     vdW  Elec       q    Type
REMARK                         _______ _______ _______ _____ _____    ______ ____
ROOT
ATOM      1  C   UNL     1      -0.480  -4.249   0.023  0.00  0.00    +0.016 C 
ATOM      2  C   UNL     1      -0.327  -4.864   1.249  0.00  0.00    -0.011 C 
ATOM      3  C   UNL     1      -0.107  -4.187   2.543  0.00  0.00    +0.013 A 
ATOM      4  C   UNL     1       0.008  -2.853   2.913  0.00  0.00    -0.020 A 
ATOM      5  C   UNL     1       0.219  -2.558   4.265  0.00  0.00    +0.095 A 
ATOM      6  C   UNL     1       0.308  -3.616   5.191  0.00  0.00    +0.135 A 
ATOM      7  N   UNL     1       0.194  -4.872   4.801  0.00  0.00    -0.230 NA
ATOM      8  C   UNL     1      -0.008  -5.194   3.525  0.00  0.00    +0.092 A 
ATOM      9  C   UNL     1      -0.167  -6.488   2.838  0.00  0.00    +0.081 C 
ATOM     10  C   UNL     1      -0.360  -6.257   1.493  0.00  0.00    -0.023 C 
ATOM     11  C   UNL     1      -0.569  -7.322   0.447  0.00  0.00    +0.046 C 
ATOM     12  N   UNL     1       0.517  -3.334   6.530  0.00  0.00    -0.342 N 
ATOM     13  C   UNL     1      -0.093  -1.753   1.888  0.00  0.00    +0.046 C 
ATOM     14  H   UNL     1       0.603  -2.414   6.824  0.00  0.00    +0.144 HD
ATOM     15  H   UNL     1       0.580  -4.057   7.174  0.00  0.00    +0.144 HD
ENDROOT
BRANCH   1  20
ATOM     16  C   UNL     1      -3.206   0.794  -0.337  0.00  0.00    +0.044 C 
ATOM     17  C   UNL     1      -2.490  -0.529  -0.243  0.00  0.00    -0.050 A 
ATOM     18  C   UNL     1      -2.986  -1.521   0.586  0.00  0.00    +0.004 A 
ATOM     19  C   UNL     1      -2.339  -2.734   0.678  0.00  0.00    +0.008 A 
ATOM     20  C   UNL     1      -1.176  -2.962  -0.069  0.00  0.00    -0.024 A 
ATOM     21  C   UNL     1      -0.681  -1.951  -0.905  0.00  0.00    +0.008 A 
ATOM     22  C   UNL     1      -1.345  -0.746  -0.989  0.00  0.00    +0.004 A 
ENDBRANCH   1  20
BRANCH   9  23
ATOM     23  C   UNL     1      -0.132  -7.774   3.466  0.00  0.00    +0.102 C 
ATOM     24  N   UNL     1      -0.105  -8.795   3.964  0.00  0.00    -0.191 NA
ENDBRANCH   9  23
BRANCH   5  25
ATOM     25  C   UNL     1       0.345  -1.200   4.700  0.00  0.00    +0.103 C 
ATOM     26  N   UNL     1       0.445  -0.122   5.046  0.00  0.00    -0.191 NA
ENDBRANCH   5  25
TORSDOF 3
