REMARK  Name = ZINC08395628
REMARK  7 active torsions:
REMARK  status: ('A' for Active; 'I' for Inactive)
REMARK    1  A    between atoms: C_1  and  C_2
REMARK    2  A    between atoms: C_3  and  C_27
REMARK    3  A    between atoms: C_11  and  C_13
REMARK    4  A    between atoms: C_13  and  C_15
REMARK    5  A    between atoms: C_13  and  O_16
REMARK    6  A    between atoms: O_16  and  C_17
REMARK    7  A    between atoms: C_17  and  C_19
REMARK                            x       y       z     vdW  Elec       q    Type
REMARK                         _______ _______ _______ _____ _____    ______ ____
ROOT
ATOM      1  C   UNL     1      -1.828  -8.193   3.945  0.00  0.00    +0.045 C 
ATOM      2  C   UNL     1      -1.956  -7.913   2.469  0.00  0.00    -0.026 A 
ATOM      3  C   UNL     1      -1.947  -8.921   1.583  0.00  0.00    -0.008 A 
ATOM      4  S   UNL     1      -2.120  -8.093   0.014  0.00  0.00    -0.073 S 
ATOM      5  C   UNL     1      -2.200  -6.418   0.594  0.00  0.00    +0.116 A 
ATOM      6  C   UNL     1      -2.090  -6.550   1.990  0.00  0.00    +0.075 A 
ATOM      7  C   UNL     1      -2.125  -5.325   2.732  0.00  0.00    +0.260 A 
ATOM      8  O   UNL     1      -2.037  -5.334   3.948  0.00  0.00    -0.267 OA
ATOM      9  N   UNL     1      -2.258  -4.163   2.066  0.00  0.00    -0.307 N 
ATOM     10  H   UNL     1      -2.284  -3.304   2.578  0.00  0.00    +0.170 HD
ATOM     11  C   UNL     1      -2.358  -4.133   0.712  0.00  0.00    +0.152 A 
ATOM     12  N   UNL     1      -2.334  -5.232   0.008  0.00  0.00    -0.223 NA
ATOM     13  C   UNL     1      -1.819 -10.399   1.850  0.00  0.00    +0.052 C 
ENDROOT
BRANCH  11  14
ATOM     14  C   UNL     1      -2.506  -2.807   0.010  0.00  0.00    +0.239 C 
ATOM     15  C   UNL     1      -2.969  -3.042  -1.430  0.00  0.00    +0.060 C 
BRANCH  14  16
ATOM     16  O   UNL     1      -1.228  -2.119   0.002  0.00  0.00    -0.450 OA
BRANCH  16  17
ATOM     17  C   UNL     1      -1.259  -0.772   0.009  0.00  0.00    +0.341 C 
ATOM     18  O   UNL     1      -2.325  -0.189   0.022  0.00  0.00    -0.245 OA
BRANCH  17  19
ATOM     19  C   UNL     1       0.002  -0.004   0.002  0.00  0.00    +0.079 A 
ATOM     20  C   UNL     1      -0.017   1.397   0.010  0.00  0.00    +0.039 A 
ATOM     21  C   UNL     1       1.192   2.069   0.002  0.00  0.00    +0.078 A 
ATOM     22  C   UNL     1       2.373   1.341  -0.013  0.00  0.00    +0.147 A 
ATOM     23  N   UNL     1       2.358   0.021  -0.020  0.00  0.00    -0.241 NA
ATOM     24  C   UNL     1       1.233  -0.662  -0.013  0.00  0.00    +0.127 A 
ATOM     25 CL   UNL     1       3.893   2.179  -0.023  0.00  0.00    -0.060 Cl
ATOM     26 CL   UNL     1       1.232   3.805   0.010  0.00  0.00    -0.080 Cl
ENDBRANCH  17  19
ENDBRANCH  16  17
ENDBRANCH  14  16
ENDBRANCH  11  14
TORSDOF 4
