REMARK  Name = ZINC39781340
REMARK  8 active torsions:
REMARK  status: ('A' for Active; 'I' for Inactive)
REMARK    1  A    between atoms: C_1  and  C_2
REMARK    2  A    between atoms: C_2  and  C_3
REMARK    3  A    between atoms: C_3  and  C_4
REMARK    4  A    between atoms: C_6  and  C_10
REMARK    5  A    between atoms: C_10  and  C_12
REMARK    6  A    between atoms: C_10  and  S_13
REMARK    7  A    between atoms: S_13  and  C_14
REMARK    8  A    between atoms: C_19  and  C_24
REMARK                            x       y       z     vdW  Elec       q    Type
REMARK                         _______ _______ _______ _____ _____    ______ ____
ROOT
ATOM      1  C   UNL     1      -3.630  -5.382   0.427  0.00  0.00    +0.182 C 
ATOM      2  N   UNL     1      -3.164  -5.912  -0.691  0.00  0.00    -0.151 NA
ATOM      3  C   UNL     1      -3.956  -6.484  -1.598  0.00  0.00    +0.272 C 
ATOM      4  O   UNL     1      -3.493  -6.965  -2.621  0.00  0.00    -0.268 OA
ATOM      5  C   UNL     1      -5.423  -6.522  -1.327  0.00  0.00    +0.075 C 
ATOM      6  C   UNL     1      -6.418  -7.054  -2.108  0.00  0.00    -0.015 C 
ATOM      7  C   UNL     1      -7.833  -6.954  -1.586  0.00  0.00    +0.112 C 
ATOM      8  S   UNL     1      -7.586  -6.084   0.014  0.00  0.00    -0.100 S 
ATOM      9  C   UNL     1      -5.822  -5.902  -0.053  0.00  0.00    +0.112 C 
ATOM     10  N   UNL     1      -4.923  -5.379   0.745  0.00  0.00    -0.217 NA
ENDROOT
BRANCH   6  11
ATOM     11  C   UNL     1      -6.122  -7.691  -3.391  0.00  0.00    -0.020 A 
ATOM     12  C   UNL     1      -5.595  -6.934  -4.449  0.00  0.00    +0.011 A 
ATOM     13  C   UNL     1      -5.319  -7.541  -5.653  0.00  0.00    +0.039 A 
ATOM     14  C   UNL     1      -5.562  -8.897  -5.823  0.00  0.00    +0.123 A 
ATOM     15  C   UNL     1      -6.085  -9.652  -4.782  0.00  0.00    +0.039 A 
ATOM     16  C   UNL     1      -6.359  -9.062  -3.569  0.00  0.00    +0.011 A 
ATOM     17  F   UNL     1      -5.290  -9.485  -7.009  0.00  0.00    -0.205 F 
ENDBRANCH   6  11
BRANCH   1  18
ATOM     18  S   UNL     1      -2.485  -4.653   1.551  0.00  0.00    -0.081 S 
BRANCH  18  19
ATOM     19  C   UNL     1      -0.876  -4.871   0.743  0.00  0.00    +0.103 C 
ATOM     20  C   UNL     1      -0.552  -6.363   0.647  0.00  0.00    +0.024 C 
BRANCH  19  23
ATOM     21  C   UNL     1       0.762  -2.018   1.233  0.00  0.00    +0.103 C 
ATOM     22  N   UNL     1      -0.148  -2.755   1.767  0.00  0.00    -0.346 N 
ATOM     23  C   UNL     1       0.206  -4.165   1.562  0.00  0.00    +0.256 C 
ATOM     24  O   UNL     1       1.446  -4.141   0.838  0.00  0.00    -0.247 OA
ATOM     25  N   UNL     1       1.745  -2.767   0.655  0.00  0.00    -0.252 N 
ATOM     26  H   UNL     1       2.524  -2.416   0.194  0.00  0.00    +0.195 HD
ATOM     27  H   UNL     1      -0.938  -2.432   2.228  0.00  0.00    +0.163 HD
BRANCH  21  28
ATOM     28  C   UNL     1       0.742  -0.511   1.242  0.00  0.00    +0.073 C 
BRANCH  28  30
ATOM     29  C   UNL     1      -0.019   1.526   0.010  0.00  0.00    +0.004 C 
ATOM     30  C   UNL     1       0.002  -0.004   0.002  0.00  0.00    +0.004 C 
ENDBRANCH  28  30
ENDBRANCH  21  28
ENDBRANCH  19  23
ENDBRANCH  18  19
ENDBRANCH   1  18
TORSDOF 6
