REMARK  Name = ZINC10913761
REMARK  10 active torsions:
REMARK  status: ('A' for Active; 'I' for Inactive)
REMARK    1  A    between atoms: C_1  and  S_2
REMARK    2  A    between atoms: S_2  and  N_5
REMARK    3  A    between atoms: N_5  and  C_6
REMARK    4  A    between atoms: C_6  and  C_7
REMARK    5  A    between atoms: C_7  and  C_8
REMARK    6  A    between atoms: C_11  and  C_13
REMARK    7  A    between atoms: N_15  and  C_16
REMARK    8  A    between atoms: C_16  and  C_18
REMARK    9  A    between atoms: C_16  and  C_24
REMARK   10  A    between atoms: C_33  and  O_34
REMARK                            x       y       z     vdW  Elec       q    Type
REMARK                         _______ _______ _______ _____ _____    ______ ____
ROOT
ATOM      1  C   UNL     1      -1.529   5.927  -0.006  0.00  0.00    +0.138 C 
ENDROOT
BRANCH   1   2
ATOM      2  C   UNL     1      -0.238   5.151  -0.069  0.00  0.00    +0.026 A 
ATOM      3  C   UNL     1      -0.254   3.778  -0.362  0.00  0.00    -0.009 A 
ATOM      4  C   UNL     1      -1.460   3.097  -0.602  0.00  0.00    +0.009 A 
ATOM      5  C   UNL     1      -1.437   1.767  -0.888  0.00  0.00    +0.001 A 
ATOM      6  C   UNL     1      -0.234   1.064  -0.937  0.00  0.00    +0.001 A 
ATOM      7  C   UNL     1       0.953   1.690  -0.710  0.00  0.00    +0.008 A 
ATOM      8  C   UNL     1       0.970   3.064  -0.416  0.00  0.00    -0.017 A 
ATOM      9  C   UNL     1       2.177   3.743  -0.177  0.00  0.00    +0.012 A 
ATOM     10  C   UNL     1       2.158   5.074   0.104  0.00  0.00    +0.046 A 
ATOM     11  C   UNL     1       0.953   5.780   0.158  0.00  0.00    +0.123 A 
BRANCH  11  12
ATOM     12  O   UNL     1       0.966   7.109   0.442  0.00  0.00    -0.506 OA
ATOM     13  H   UNL     1       0.989   7.309   1.388  0.00  0.00    +0.292 HD
ENDBRANCH  11  12
ENDBRANCH   1   2
BRANCH   1  14
ATOM     14  C   UNL     1      -1.861   6.234   1.431  0.00  0.00    -0.023 A 
ATOM     15  C   UNL     1      -1.374   7.385   2.023  0.00  0.00    +0.006 A 
ATOM     16  C   UNL     1      -1.682   7.668   3.340  0.00  0.00    +0.000 A 
ATOM     17  C   UNL     1      -2.470   6.797   4.069  0.00  0.00    +0.000 A 
ATOM     18  C   UNL     1      -2.952   5.644   3.479  0.00  0.00    +0.000 A 
ATOM     19  C   UNL     1      -2.648   5.362   2.160  0.00  0.00    +0.006 A 
ENDBRANCH   1  14
BRANCH   1  22
ATOM     20  C   UNL     1      -2.469   7.788  -1.268  0.00  0.00    +0.251 C 
ATOM     21  O   UNL     1      -3.572   7.296  -1.114  0.00  0.00    -0.270 OA
ATOM     22  N   UNL     1      -1.383   7.179  -0.752  0.00  0.00    -0.300 N 
ATOM     23  H   UNL     1      -0.504   7.571  -0.875  0.00  0.00    +0.150 HD
BRANCH  20  27
ATOM     24  C   UNL     1      -1.561  11.267  -3.271  0.00  0.00    -0.008 A 
ATOM     25  C   UNL     1      -2.884  10.958  -3.258  0.00  0.00    +0.012 A 
ATOM     26  C   UNL     1      -3.300   9.817  -2.618  0.00  0.00    +0.021 A 
ATOM     27  C   UNL     1      -2.323   9.041  -2.014  0.00  0.00    +0.074 A 
ATOM     28  S   UNL     1      -0.842   9.969  -2.374  0.00  0.00    -0.089 S 
BRANCH  24  29
ATOM     29  C   UNL     1      -0.883  12.454  -3.905  0.00  0.00    +0.059 C 
BRANCH  29  30
ATOM     30  C   UNL     1      -0.816  13.603  -2.896  0.00  0.00    +0.110 C 
BRANCH  30  31
ATOM     31  N   UNL     1      -0.157  14.757  -3.512  0.00  0.00    -0.194 NA
ATOM     32  H   UNL     1       0.345  14.646  -4.335  0.00  0.00    +0.148 HD
BRANCH  31  34
ATOM     33  C   UNL     1       0.597  16.082  -1.221  0.00  0.00    +0.214 C 
ATOM     34  S   UNL     1      -0.270  16.250  -2.805  0.00  0.00    +0.027 S 
ATOM     35  O   UNL     1       0.452  17.116  -3.669  0.00  0.00    -0.158 OA
ATOM     36  O   UNL     1      -1.661  16.442  -2.584  0.00  0.00    -0.158 OA
ENDBRANCH  31  34
ENDBRANCH  30  31
ENDBRANCH  29  30
ENDBRANCH  24  29
ENDBRANCH  20  27
ENDBRANCH   1  22
TORSDOF 9
