REMARK  Name = ZINC21239062
REMARK  11 active torsions:
REMARK  status: ('A' for Active; 'I' for Inactive)
REMARK    1  A    between atoms: C_1  and  C_2
REMARK    2  A    between atoms: C_2  and  O_3
REMARK    3  A    between atoms: O_3  and  C_4
REMARK    4  A    between atoms: C_6  and  C_11
REMARK    5  A    between atoms: C_9  and  O_10
REMARK    6  A    between atoms: C_16  and  C_21
REMARK    7  A    between atoms: C_24  and  O_27
REMARK    8  A    between atoms: O_27  and  C_28
REMARK    9  A    between atoms: C_28  and  C_29
REMARK   10  A    between atoms: C_29  and  C_30
REMARK   11  A    between atoms: C_29  and  C_31
REMARK                            x       y       z     vdW  Elec       q    Type
REMARK                         _______ _______ _______ _____ _____    ______ ____
ROOT
ATOM      1  C   UNL     1      -2.513   0.975   0.019  0.00  0.00    +0.136 C 
ATOM      2  C   UNL     1      -2.930   0.738  -1.413  0.00  0.00    +0.036 C 
ATOM      3  C   UNL     1      -2.920  -0.444  -2.052  0.00  0.00    +0.017 C 
ATOM      4  C   UNL     1      -3.380  -0.545  -3.496  0.00  0.00    +0.059 C 
ATOM      5  C   UNL     1      -3.058   0.751  -4.239  0.00  0.00    +0.032 C 
ATOM      6  C   UNL     1      -3.788   1.893  -3.522  0.00  0.00    +0.088 C 
ATOM      7  C   UNL     1      -3.356   1.908  -2.086  0.00  0.00    +0.163 C 
ATOM      8  O   UNL     1      -3.372   2.961  -1.479  0.00  0.00    -0.292 OA
ATOM      9  N   UNL     1      -2.533  -1.619  -1.494  0.00  0.00    -0.316 N 
ATOM     10  C   UNL     1      -1.383  -1.801  -0.735  0.00  0.00    +0.052 A 
ATOM     11  C   UNL     1      -0.369  -2.659  -1.123  0.00  0.00    +0.025 A 
ATOM     12  C   UNL     1       0.695  -2.883  -0.265  0.00  0.00    +0.002 A 
ATOM     13  C   UNL     1       0.743  -2.255   0.966  0.00  0.00    +0.002 A 
ATOM     14  C   UNL     1      -0.259  -1.379   1.345  0.00  0.00    +0.025 A 
ATOM     15  C   UNL     1      -1.316  -1.139   0.482  0.00  0.00    +0.049 A 
ATOM     16  N   UNL     1      -2.324  -0.230   0.798  0.00  0.00    -0.331 N 
ATOM     17  H   UNL     1      -3.148  -2.521  -1.629  0.00  0.00    +0.152 HD
ATOM     18  H   UNL     1      -2.982  -0.440   1.655  0.00  0.00    +0.147 HD
ENDROOT
BRANCH   1  21
ATOM     19  C   UNL     1       0.002   3.748   0.524  0.00  0.00    +0.162 A 
ATOM     20  C   UNL     1      -1.184   3.032   0.530  0.00  0.00    +0.055 A 
ATOM     21  C   UNL     1      -1.220   1.749   0.017  0.00  0.00    -0.019 A 
ATOM     22  C   UNL     1      -0.071   1.173  -0.492  0.00  0.00    +0.009 A 
ATOM     23  C   UNL     1       1.116   1.881  -0.501  0.00  0.00    +0.049 A 
ATOM     24  C   UNL     1       1.157   3.170   0.006  0.00  0.00    +0.158 A 
BRANCH  24  25
ATOM     25  O   UNL     1       2.324   3.869  -0.003  0.00  0.00    -0.503 OA
ATOM     26  H   UNL     1       3.236   3.411  -0.412  0.00  0.00    +0.292 HD
ENDBRANCH  24  25
BRANCH  19  27
ATOM     27  O   UNL     1       0.038   5.013   1.023  0.00  0.00    -0.489 OA
BRANCH  27  29
ATOM     28  C   UNL     1      -0.951   6.964   2.051  0.00  0.00    +0.048 C 
ATOM     29  C   UNL     1      -1.185   5.542   1.539  0.00  0.00    +0.226 C 
ENDBRANCH  27  29
ENDBRANCH  19  27
ENDBRANCH   1  21
BRANCH   5  30
ATOM     30  C   UNL     1      -3.537   0.655  -5.665  0.00  0.00    -0.043 A 
ATOM     31  C   UNL     1      -4.877   0.442  -5.930  0.00  0.00    +0.007 A 
ATOM     32  C   UNL     1      -5.319   0.359  -7.236  0.00  0.00    +0.046 A 
ATOM     33  C   UNL     1      -4.415   0.478  -8.282  0.00  0.00    +0.121 A 
ATOM     34  C   UNL     1      -3.070   0.687  -8.013  0.00  0.00    +0.046 A 
ATOM     35  C   UNL     1      -2.634   0.775  -6.705  0.00  0.00    +0.007 A 
BRANCH  33  36
ATOM     36  O   UNL     1      -4.847   0.392  -9.568  0.00  0.00    -0.492 OA
BRANCH  36  37
ATOM     37  C   UNL     1      -6.245   0.177  -9.770  0.00  0.00    +0.232 C 
BRANCH  37  38
ATOM     38  C   UNL     1      -6.539   0.108 -11.270  0.00  0.00    +0.020 C 
ATOM     39  C   UNL     1      -5.850  -1.119 -11.869  0.00  0.00    +0.010 C 
ATOM     40  C   UNL     1      -8.050   0.002 -11.489  0.00  0.00    +0.010 C 
ENDBRANCH  37  38
ENDBRANCH  36  37
ENDBRANCH  33  36
ENDBRANCH   5  30
TORSDOF 8
