REMARK  Name = ZINC14018025
REMARK  9 active torsions:
REMARK  status: ('A' for Active; 'I' for Inactive)
REMARK    1  A    between atoms: C_1  and  N_2
REMARK    2  A    between atoms: C_3  and  C_5
REMARK    3  A    between atoms: C_5  and  C_7
REMARK    4  A    between atoms: C_5  and  N_15
REMARK    5  A    between atoms: C_16  and  C_18
REMARK    6  A    between atoms: C_18  and  N_19
REMARK    7  A    between atoms: N_19  and  C_20
REMARK    8  A    between atoms: N_19  and  S_21
REMARK    9  A    between atoms: S_21  and  C_24
REMARK                            x       y       z     vdW  Elec       q    Type
REMARK                         _______ _______ _______ _____ _____    ______ ____
ROOT
ATOM      1  N   UNL     1      -3.508   3.461  -0.833  0.00  0.00    -0.299 N 
ATOM      2  C   UNL     1      -4.531   4.148  -1.379  0.00  0.00    +0.230 C 
ATOM      3  O   UNL     1      -4.664   5.330  -1.139  0.00  0.00    -0.274 OA
ATOM      4  H   UNL     1      -3.402   2.516  -1.025  0.00  0.00    +0.150 HD
ENDROOT
BRANCH   1   5
ATOM      5  C   UNL     1      -2.557   4.141   0.049  0.00  0.00    +0.190 C 
BRANCH   5   6
ATOM      6  C   UNL     1      -1.242   3.405   0.032  0.00  0.00    -0.016 A 
ATOM      7  C   UNL     1      -0.054   4.113   0.025  0.00  0.00    +0.009 A 
ATOM      8  C   UNL     1       1.153   3.441   0.010  0.00  0.00    +0.041 A 
ATOM      9  C   UNL     1       1.175   2.057   0.002  0.00  0.00    +0.158 A 
ATOM     10  C   UNL     1      -0.016   1.347   0.009  0.00  0.00    +0.159 A 
ATOM     11  C   UNL     1      -1.224   2.023   0.019  0.00  0.00    +0.047 A 
ATOM     12  F   UNL     1       0.002  -0.004   0.002  0.00  0.00    -0.202 F 
ATOM     13  F   UNL     1       2.354   1.399  -0.013  0.00  0.00    -0.202 F 
ENDBRANCH   5   6
BRANCH   5  16
ATOM     14  C   UNL     1      -2.922   4.762   3.809  0.00  0.00    +0.128 C 
ATOM     15  N   UNL     1      -2.392   4.741   2.443  0.00  0.00    -0.317 N 
ATOM     16  C   UNL     1      -3.102   4.163   1.454  0.00  0.00    +0.238 C 
ATOM     17  O   UNL     1      -4.179   3.660   1.694  0.00  0.00    -0.273 OA
ATOM     18  H   UNL     1      -1.531   5.143   2.251  0.00  0.00    +0.148 HD
ENDBRANCH   5  16
ENDBRANCH   1   5
BRANCH   2  19
ATOM     19  C   UNL     1      -5.510   3.449  -2.287  0.00  0.00    +0.204 C 
BRANCH  19  20
ATOM     20  N   UNL     1      -6.519   4.406  -2.746  0.00  0.00    -0.170 NA
ATOM     21  C   UNL     1      -6.252   5.248  -3.915  0.00  0.00    +0.132 C 
BRANCH  20  22
ATOM     22  S   UNL     1      -7.962   4.536  -1.944  0.00  0.00    +0.067 S 
ATOM     23  O   UNL     1      -8.897   5.064  -2.875  0.00  0.00    -0.152 OA
ATOM     24  O   UNL     1      -8.169   3.299  -1.276  0.00  0.00    -0.152 OA
BRANCH  22  25
ATOM     25  C   UNL     1      -7.754   5.757  -0.691  0.00  0.00    +0.143 A 
ATOM     26  C   UNL     1      -7.956   7.095  -0.761  0.00  0.00    +0.036 A 
ATOM     27  C   UNL     1      -7.729   7.867   0.363  0.00  0.00    +0.010 A 
ATOM     28  C   UNL     1      -7.301   7.264   1.499  0.00  0.00    +0.047 A 
ATOM     29  S   UNL     1      -7.214   5.553   0.998  0.00  0.00    -0.077 S 
ENDBRANCH  22  25
ENDBRANCH  20  22
ENDBRANCH  19  20
ENDBRANCH   2  19
TORSDOF 7
