REMARK  Name = ZINC39282992
REMARK  8 active torsions:
REMARK  status: ('A' for Active; 'I' for Inactive)
REMARK    1  A    between atoms: C_1  and  C_2
REMARK    2  A    between atoms: C_2  and  C_3
REMARK    3  A    between atoms: C_8  and  C_12
REMARK    4  A    between atoms: C_12  and  C_13
REMARK    5  A    between atoms: C_12  and  C_20
REMARK    6  A    between atoms: C_16  and  C_19
REMARK    7  A    between atoms: C_25  and  C_29
REMARK    8  A    between atoms: C_29  and  C_30
REMARK                            x       y       z     vdW  Elec       q    Type
REMARK                         _______ _______ _______ _____ _____    ______ ____
ROOT
ATOM      1  C   UNL     1      -5.385  -1.716  -2.811  0.00  0.00    +0.079 C 
ENDROOT
BRANCH   1   7
ATOM      2  C   UNL     1      -1.412  -0.526   0.013  0.00  0.00    -0.024 A 
ATOM      3  C   UNL     1      -1.997  -0.855   1.184  0.00  0.00    +0.005 A 
ATOM      4  C   UNL     1      -3.308  -1.346   1.264  0.00  0.00    +0.001 A 
ATOM      5  C   UNL     1      -4.070  -1.520   0.161  0.00  0.00    +0.010 A 
ATOM      6  C   UNL     1      -3.509  -1.185  -1.153  0.00  0.00    +0.000 A 
ATOM      7  C   UNL     1      -4.011  -1.248  -2.408  0.00  0.00    -0.030 C 
ATOM      8  C   UNL     1      -2.913  -0.755  -3.324  0.00  0.00    +0.145 C 
ATOM      9  N   UNL     1      -1.781  -0.422  -2.453  0.00  0.00    -0.380 N 
ATOM     10  C   UNL     1      -2.124  -0.663  -1.210  0.00  0.00    +0.046 A 
ATOM     11  H   UNL     1      -0.923  -0.078  -2.746  0.00  0.00    +0.160 HD
BRANCH   2  13
ATOM     12  C   UNL     1      -0.019   1.526   0.010  0.00  0.00    +0.009 C 
ATOM     13  C   UNL     1       0.002  -0.004   0.002  0.00  0.00    +0.034 C 
ENDBRANCH   2  13
ENDBRANCH   1   7
BRANCH   1  14
ATOM     14  C   UNL     1      -6.110  -0.598  -3.515  0.00  0.00    -0.011 A 
ATOM     15  C   UNL     1      -7.370   0.022  -3.099  0.00  0.00    +0.004 A 
ATOM     16  C   UNL     1      -8.243  -0.178  -2.029  0.00  0.00    +0.010 A 
ATOM     17  C   UNL     1      -9.369   0.589  -1.919  0.00  0.00    +0.001 A 
ATOM     18  C   UNL     1      -9.652   1.565  -2.864  0.00  0.00    +0.005 A 
ATOM     19  C   UNL     1      -8.804   1.779  -3.928  0.00  0.00    -0.024 A 
ATOM     20  C   UNL     1      -7.652   1.011  -4.060  0.00  0.00    +0.050 A 
ATOM     21  N   UNL     1      -6.632   0.982  -4.984  0.00  0.00    -0.360 N 
ATOM     22  C   UNL     1      -5.720   0.022  -4.640  0.00  0.00    +0.088 A 
ATOM     23  H   UNL     1      -6.567   1.560  -5.761  0.00  0.00    +0.165 HD
BRANCH  19  24
ATOM     24  C   UNL     1      -9.124   2.842  -4.947  0.00  0.00    +0.034 C 
ATOM     25  C   UNL     1      -9.858   2.209  -6.131  0.00  0.00    +0.009 C 
ENDBRANCH  19  24
ENDBRANCH   1  14
BRANCH   1  26
ATOM     26  C   UNL     1      -5.262  -2.898  -3.738  0.00  0.00    -0.036 A 
ATOM     27  C   UNL     1      -4.584  -2.769  -4.935  0.00  0.00    +0.005 A 
ATOM     28  C   UNL     1      -4.471  -3.853  -5.786  0.00  0.00    +0.003 A 
ATOM     29  C   UNL     1      -5.036  -5.066  -5.439  0.00  0.00    -0.050 A 
ATOM     30  C   UNL     1      -5.713  -5.195  -4.241  0.00  0.00    +0.003 A 
ATOM     31  C   UNL     1      -5.823  -4.112  -3.388  0.00  0.00    +0.005 A 
ATOM     32  C   UNL     1      -4.913  -6.247  -6.366  0.00  0.00    +0.044 C 
ENDBRANCH   1  26
TORSDOF 5
