REMARK  Name = ZINC24839198
REMARK  9 active torsions:
REMARK  status: ('A' for Active; 'I' for Inactive)
REMARK    1  A    between atoms: C_1  and  C_2
REMARK    2  A    between atoms: C_2  and  C_3
REMARK    3  A    between atoms: C_5  and  C_30
REMARK    4  A    between atoms: C_6  and  N_8
REMARK    5  A    between atoms: C_9  and  C_11
REMARK    6  A    between atoms: C_23  and  C_26
REMARK    7  A    between atoms: C_30  and  O_32
REMARK    8  A    between atoms: O_32  and  C_33
REMARK    9  A    between atoms: C_33  and  C_34
REMARK                            x       y       z     vdW  Elec       q    Type
REMARK                         _______ _______ _______ _____ _____    ______ ____
ROOT
ATOM      1  C   UNL     1       4.908   2.138  -0.033  0.00  0.00    +0.078 C 
ATOM      2  C   UNL     1       5.168   1.284   1.211  0.00  0.00    +0.032 C 
ATOM      3  C   UNL     1       6.631   0.837   1.221  0.00  0.00    +0.107 C 
ATOM      4  N   UNL     1       7.506   2.016   1.222  0.00  0.00    -0.314 N 
ATOM      5  C   UNL     1       7.308   2.825   0.012  0.00  0.00    +0.107 C 
ATOM      6  C   UNL     1       5.865   3.333  -0.033  0.00  0.00    +0.032 C 
ATOM      7  C   UNL     1       8.840   1.647   1.362  0.00  0.00    +0.142 A 
ATOM      8  C   UNL     1       9.233   0.865   2.465  0.00  0.00    +0.049 A 
ATOM      9  C   UNL     1      10.534   0.499   2.612  0.00  0.00    +0.053 A 
ATOM     10  C   UNL     1      11.475   0.911   1.650  0.00  0.00    +0.178 A 
ATOM     11  N   UNL     1      12.778   0.730   1.507  0.00  0.00    -0.128 NA
ATOM     12  N   UNL     1      13.175   1.325   0.437  0.00  0.00    -0.123 NA
ATOM     13  C   UNL     1      12.164   1.912  -0.154  0.00  0.00    +0.258 A 
ATOM     14  N   UNL     1      11.060   1.673   0.586  0.00  0.00    -0.187 N 
ATOM     15  N   UNL     1       9.716   2.028   0.461  0.00  0.00    -0.148 NA
ENDROOT
BRANCH   1  17
ATOM     16  N   UNL     1       2.465   1.751  -0.012  0.00  0.00    -0.279 N 
ATOM     17  C   UNL     1       3.485   2.633  -0.017  0.00  0.00    +0.221 C 
ATOM     18  O   UNL     1       3.257   3.824  -0.009  0.00  0.00    -0.275 OA
ATOM     19  H   UNL     1       2.672   0.671  -0.020  0.00  0.00    +0.155 HD
BRANCH  16  23
ATOM     20  C   UNL     1      -1.170   3.543   0.032  0.00  0.00    -0.008 A 
ATOM     21  C   UNL     1      -1.257   2.201   0.020  0.00  0.00    +0.028 A 
ATOM     22  C   UNL     1      -0.018   1.460   0.010  0.00  0.00    +0.088 A 
ATOM     23  C   UNL     1       1.156   2.206   0.003  0.00  0.00    +0.086 A 
ATOM     24  S   UNL     1       0.586   3.841   0.017  0.00  0.00    -0.078 S 
BRANCH  20  26
ATOM     25  C   UNL     1      -2.655   4.886   1.496  0.00  0.00    +0.009 C 
ATOM     26  C   UNL     1      -2.289   4.552   0.048  0.00  0.00    +0.039 C 
ENDBRANCH  20  26
BRANCH  22  27
ATOM     27  C   UNL     1       0.002  -0.004   0.002  0.00  0.00    +0.342 C 
ATOM     28  O   UNL     1       1.064  -0.598  -0.011  0.00  0.00    -0.245 OA
BRANCH  27  29
ATOM     29  O   UNL     1      -1.157  -0.694   0.009  0.00  0.00    -0.461 OA
BRANCH  29  30
ATOM     30  C   UNL     1      -1.061  -2.143   0.001  0.00  0.00    +0.229 C 
ATOM     31  C   UNL     1      -2.467  -2.747   0.011  0.00  0.00    +0.048 C 
ENDBRANCH  29  30
ENDBRANCH  27  29
ENDBRANCH  22  27
ENDBRANCH  16  23
ENDBRANCH   1  17
BRANCH  13  32
ATOM     32  C   UNL     1      12.222   2.711  -1.431  0.00  0.00    +0.454 C 
ATOM     33  F   UNL     1      13.434   2.460  -2.083  0.00  0.00    -0.163 F 
ATOM     34  F   UNL     1      11.160   2.339  -2.263  0.00  0.00    -0.163 F 
ATOM     35  F   UNL     1      12.125   4.074  -1.133  0.00  0.00    -0.163 F 
ENDBRANCH  13  32
TORSDOF 7
