REMARK  Name = ZINC18538524
REMARK  9 active torsions:
REMARK  status: ('A' for Active; 'I' for Inactive)
REMARK    1  A    between atoms: C_3  and  C_6
REMARK    2  A    between atoms: C_6  and  C_8
REMARK    3  A    between atoms: C_6  and  N_15
REMARK    4  A    between atoms: C_16  and  C_18
REMARK    5  A    between atoms: C_18  and  O_19
REMARK    6  A    between atoms: O_19  and  C_20
REMARK    7  A    between atoms: C_20  and  C_22
REMARK    8  A    between atoms: C_24  and  N_34
REMARK    9  A    between atoms: C_27  and  N_28
REMARK                            x       y       z     vdW  Elec       q    Type
REMARK                         _______ _______ _______ _____ _____    ______ ____
ROOT
ATOM      1  C   UNL     1       1.555  -3.487   3.091  0.00  0.00    +0.328 C 
ENDROOT
BRANCH   1   3
ATOM      2  N   UNL     1       1.929  -2.490   0.859  0.00  0.00    -0.301 N 
ATOM      3  C   UNL     1       2.209  -2.483   2.177  0.00  0.00    +0.251 C 
ATOM      4  O   UNL     1       2.986  -1.669   2.628  0.00  0.00    -0.272 OA
ATOM      5  H   UNL     1       1.307  -3.141   0.498  0.00  0.00    +0.150 HD
BRANCH   2   6
ATOM      6  C   UNL     1       2.565  -1.514  -0.030  0.00  0.00    +0.140 C 
BRANCH   6   7
ATOM      7  C   UNL     1       2.606  -2.064  -1.433  0.00  0.00    -0.022 A 
ATOM      8  C   UNL     1       1.527  -2.771  -1.929  0.00  0.00    +0.008 A 
ATOM      9  C   UNL     1       1.561  -3.271  -3.217  0.00  0.00    +0.038 A 
ATOM     10  C   UNL     1       2.682  -3.073  -4.006  0.00  0.00    +0.123 A 
ATOM     11  C   UNL     1       3.764  -2.369  -3.506  0.00  0.00    +0.038 A 
ATOM     12  C   UNL     1       3.725  -1.865  -2.220  0.00  0.00    +0.008 A 
ATOM     13  F   UNL     1       2.718  -3.566  -5.264  0.00  0.00    -0.205 F 
ENDBRANCH   6   7
BRANCH   6  16
ATOM     14  C   UNL     1       1.300   2.079   0.001  0.00  0.00    +0.008 A 
ATOM     15  C   UNL     1       2.220   1.048  -0.013  0.00  0.00    +0.013 A 
ATOM     16  C   UNL     1       1.773  -0.232  -0.016  0.00  0.00    +0.014 A 
ATOM     17  S   UNL     1       0.002  -0.004   0.002  0.00  0.00    -0.099 S 
ATOM     18  C   UNL     1      -0.022   1.781   0.012  0.00  0.00    +0.045 A 
ENDBRANCH   6  16
ENDBRANCH   2   6
ENDBRANCH   1   3
BRANCH   1  19
ATOM     19  O   UNL     1       2.016  -3.275   4.452  0.00  0.00    -0.452 OA
BRANCH  19  20
ATOM     20  C   UNL     1       1.523  -4.096   5.400  0.00  0.00    +0.342 C 
ATOM     21  O   UNL     1       0.730  -4.966   5.098  0.00  0.00    -0.245 OA
BRANCH  20  22
ATOM     22  C   UNL     1       1.946  -3.940   6.802  0.00  0.00    +0.082 A 
ATOM     23  C   UNL     1       2.858  -2.941   7.154  0.00  0.00    +0.049 A 
ATOM     24  C   UNL     1       3.248  -2.799   8.467  0.00  0.00    +0.127 A 
ATOM     25  C   UNL     1       2.741  -3.643   9.444  0.00  0.00    +0.034 A 
ATOM     26  C   UNL     1       1.841  -4.634   9.113  0.00  0.00    +0.026 A 
ATOM     27  C   UNL     1       1.430  -4.789   7.794  0.00  0.00    +0.044 A 
BRANCH  27  28
ATOM     28  N   UNL     1       0.519  -5.782   7.459  0.00  0.00    -0.325 N 
ATOM     29  C   UNL     1      -0.779  -5.546   8.107  0.00  0.00    +0.133 C 
ATOM     30  C   UNL     1      -1.768  -6.627   7.665  0.00  0.00    +0.178 C 
ATOM     31  O   UNL     1      -1.232  -7.915   7.980  0.00  0.00    -0.377 OA
ATOM     32  C   UNL     1       0.032  -8.178   7.364  0.00  0.00    +0.178 C 
ATOM     33  C   UNL     1       1.040  -7.113   7.804  0.00  0.00    +0.133 C 
ENDBRANCH  27  28
BRANCH  24  34
ATOM     34  N   UNL     1       4.214  -1.741   8.838  0.00  0.00    +0.056 N 
ATOM     35  O   UNL     1       4.662  -0.998   7.983  0.00  0.00    -0.126 OA
ATOM     36  O   UNL     1       4.562  -1.613   9.998  0.00  0.00    -0.126 OA
ENDBRANCH  24  34
ENDBRANCH  20  22
ENDBRANCH  19  20
ENDBRANCH   1  19
TORSDOF 9
