REMARK  Name = ZINC39754828
REMARK  7 active torsions:
REMARK  status: ('A' for Active; 'I' for Inactive)
REMARK    1  A    between atoms: C_1  and  C_2
REMARK    2  A    between atoms: C_2  and  C_4
REMARK    3  A    between atoms: C_2  and  S_19
REMARK    4  A    between atoms: C_9  and  C_12
REMARK    5  A    between atoms: C_12  and  C_13
REMARK    6  A    between atoms: S_19  and  C_20
REMARK    7  A    between atoms: C_24  and  C_26
REMARK                            x       y       z     vdW  Elec       q    Type
REMARK                         _______ _______ _______ _____ _____    ______ ____
ROOT
ATOM      1  C   UNL     1      -0.012   1.523   0.001  0.00  0.00    +0.029 C 
ATOM      2  C   UNL     1       0.001  -0.007   0.001  0.00  0.00    +0.134 C 
ENDROOT
BRANCH   2   3
ATOM      3  C   UNL     1       0.731  -0.503   1.223  0.00  0.00    +0.228 C 
ATOM      4  O   UNL     1       1.887  -0.859   1.136  0.00  0.00    -0.274 OA
ATOM      5  N   UNL     1       0.099  -0.552   2.412  0.00  0.00    -0.301 N 
ATOM      6  C   UNL     1       0.827  -0.926   3.632  0.00  0.00    +0.108 C 
ATOM      7  C   UNL     1       0.614   0.164   4.687  0.00  0.00    +0.023 C 
ATOM      8  C   UNL     1      -0.887   0.383   4.893  0.00  0.00    -0.004 C 
ATOM      9  C   UNL     1      -1.521   0.850   3.581  0.00  0.00    +0.023 C 
ATOM     10  C   UNL     1      -1.330  -0.226   2.514  0.00  0.00    +0.108 C 
BRANCH   8  11
ATOM     11  C   UNL     1      -1.104   1.446   5.971  0.00  0.00    +0.038 C 
BRANCH  11  12
ATOM     12  C   UNL     1      -2.577   1.574   6.262  0.00  0.00    -0.047 A 
ATOM     13  C   UNL     1      -3.348   2.469   5.543  0.00  0.00    +0.003 A 
ATOM     14  C   UNL     1      -4.699   2.586   5.809  0.00  0.00    +0.000 A 
ATOM     15  C   UNL     1      -5.280   1.808   6.794  0.00  0.00    +0.000 A 
ATOM     16  C   UNL     1      -4.509   0.913   7.512  0.00  0.00    +0.000 A 
ATOM     17  C   UNL     1      -3.159   0.793   7.242  0.00  0.00    +0.003 A 
ENDBRANCH  11  12
ENDBRANCH   8  11
ENDBRANCH   2   3
BRANCH   2  18
ATOM     18  S   UNL     1       0.843  -0.605  -1.490  0.00  0.00    -0.084 S 
BRANCH  18  19
ATOM     19  C   UNL     1      -0.230  -0.059  -2.848  0.00  0.00    +0.340 C 
ATOM     20  N   UNL     1      -1.585  -0.612  -2.686  0.00  0.00    -0.219 N 
ATOM     21  N   UNL     1      -2.432   0.499  -2.560  0.00  0.00    -0.145 NA
ATOM     22  C   UNL     1      -1.737   1.604  -2.628  0.00  0.00    +0.238 C 
ATOM     23  O   UNL     1      -0.411   1.363  -2.801  0.00  0.00    -0.443 OA
ATOM     24  H   UNL     1      -1.839  -1.548  -2.671  0.00  0.00    +0.173 HD
BRANCH  22  25
ATOM     25  C   UNL     1      -2.294   2.887  -2.536  0.00  0.00    +0.043 C 
ATOM     26  C   UNL     1      -3.639   3.212  -2.354  0.00  0.00    +0.008 A 
ATOM     27  C   UNL     1      -4.800   2.422  -2.214  0.00  0.00    +0.010 A 
ATOM     28  C   UNL     1      -6.006   3.022  -2.047  0.00  0.00    +0.001 A 
ATOM     29  C   UNL     1      -6.133   4.412  -2.008  0.00  0.00    +0.002 A 
ATOM     30  C   UNL     1      -5.061   5.231  -2.135  0.00  0.00    +0.026 A 
ATOM     31  C   UNL     1      -3.767   4.677  -2.314  0.00  0.00    +0.043 A 
ATOM     32  N   UNL     1      -2.586   5.247  -2.460  0.00  0.00    -0.380 N 
ATOM     33  C   UNL     1      -1.562   4.209  -2.605  0.00  0.00    +0.154 C 
ATOM     34  H   UNL     1      -2.422   6.203  -2.466  0.00  0.00    +0.160 HD
ENDBRANCH  22  25
ENDBRANCH  18  19
ENDBRANCH   2  18
TORSDOF 6
