REMARK  Name = ZINC35729747
REMARK  10 active torsions:
REMARK  status: ('A' for Active; 'I' for Inactive)
REMARK    1  A    between atoms: C_1  and  C_2
REMARK    2  A    between atoms: C_2  and  C_3
REMARK    3  A    between atoms: C_6  and  N_9
REMARK    4  A    between atoms: N_12  and  C_13
REMARK    5  A    between atoms: C_16  and  C_19
REMARK    6  A    between atoms: C_21  and  C_29
REMARK    7  A    between atoms: C_22  and  C_28
REMARK    8  A    between atoms: N_23  and  C_27
REMARK    9  A    between atoms: C_29  and  O_31
REMARK   10  A    between atoms: O_31  and  C_32
REMARK                            x       y       z     vdW  Elec       q    Type
REMARK                         _______ _______ _______ _____ _____    ______ ____
ROOT
ATOM      1  C   UNL     1       2.785  -2.694   8.385  0.00  0.00    +0.035 A 
ATOM      2  C   UNL     1       1.415  -2.716   8.160  0.00  0.00    +0.024 A 
ATOM      3  C   UNL     1       0.551  -3.018   9.194  0.00  0.00    +0.007 A 
ATOM      4  C   UNL     1       1.049  -3.299  10.453  0.00  0.00    -0.022 A 
ATOM      5  C   UNL     1       2.412  -3.278  10.681  0.00  0.00    +0.007 A 
ATOM      6  C   UNL     1       3.282  -2.983   9.650  0.00  0.00    +0.024 A 
ENDROOT
BRANCH   4   7
ATOM      7  C   UNL     1       0.103  -3.629  11.579  0.00  0.00    +0.141 C 
ATOM      8  C   UNL     1       0.012  -5.138  11.687  0.00  0.00    +0.078 C 
ATOM      9  C   UNL     1       0.348  -5.705  12.866  0.00  0.00    +0.021 C 
ATOM     10  N   UNL     1       0.754  -4.945  13.923  0.00  0.00    -0.289 N 
ATOM     11  C   UNL     1       0.853  -3.610  13.884  0.00  0.00    +0.137 C 
ATOM     12  S   UNL     1       1.377  -2.777  15.284  0.00  0.00    -0.018 S 
ATOM     13  N   UNL     1       0.553  -2.901  12.778  0.00  0.00    -0.315 N 
ATOM     14  C   UNL     1       1.102  -5.627  15.172  0.00  0.00    +0.137 C 
ATOM     15  C   UNL     1       0.272  -7.203  13.016  0.00  0.00    +0.061 C 
ATOM     16  H   UNL     1       0.633  -1.935  12.771  0.00  0.00    +0.149 HD
BRANCH   8  17
ATOM     17  C   UNL     1      -0.410  -5.925  10.590  0.00  0.00    +0.339 C 
ATOM     18  O   UNL     1      -0.524  -7.130  10.714  0.00  0.00    -0.245 OA
BRANCH  17  19
ATOM     19  O   UNL     1      -0.686  -5.339   9.406  0.00  0.00    -0.465 OA
ATOM     20  C   UNL     1      -1.107  -6.195   8.342  0.00  0.00    +0.280 C 
ENDBRANCH  17  19
ENDBRANCH   8  17
ENDBRANCH   4   7
BRANCH   1  24
ATOM     21  N   UNL     1       4.095  -1.296   5.322  0.00  0.00    -0.269 N 
ATOM     22  C   UNL     1       3.294  -1.512   6.385  0.00  0.00    +0.308 C 
ATOM     23  O   UNL     1       2.239  -0.915   6.482  0.00  0.00    -0.252 OA
ATOM     24  N   UNL     1       3.663  -2.388   7.340  0.00  0.00    -0.269 N 
ATOM     25  H   UNL     1       4.896  -1.829   5.203  0.00  0.00    +0.156 HD
ATOM     26  H   UNL     1       4.537  -2.807   7.302  0.00  0.00    +0.156 HD
BRANCH  21  30
ATOM     27  C   UNL     1       3.127   1.660   2.550  0.00  0.00    -0.048 A 
ATOM     28  C   UNL     1       2.810   1.835   3.884  0.00  0.00    +0.005 A 
ATOM     29  C   UNL     1       3.129   0.857   4.806  0.00  0.00    +0.023 A 
ATOM     30  C   UNL     1       3.769  -0.303   4.391  0.00  0.00    +0.035 A 
ATOM     31  C   UNL     1       4.087  -0.476   3.050  0.00  0.00    +0.023 A 
ATOM     32  C   UNL     1       3.760   0.503   2.133  0.00  0.00    +0.005 A 
BRANCH  27  34
ATOM     33  C   UNL     1       1.377   2.467   0.991  0.00  0.00    +0.009 C 
ATOM     34  C   UNL     1       2.777   2.729   1.547  0.00  0.00    +0.032 C 
ENDBRANCH  27  34
ENDBRANCH  21  30
ENDBRANCH   1  24
TORSDOF 6
