REMARK  Name = ZINC02131183
REMARK  10 active torsions:
REMARK  status: ('A' for Active; 'I' for Inactive)
REMARK    1  A    between atoms: C_1  and  C_2
REMARK    2  A    between atoms: C_2  and  C_4
REMARK    3  A    between atoms: C_2  and  N_10
REMARK    4  A    between atoms: C_11  and  C_13
REMARK    5  A    between atoms: C_13  and  C_15
REMARK    6  A    between atoms: C_13  and  N_19
REMARK    7  A    between atoms: C_15  and  C_16
REMARK    8  A    between atoms: C_16  and  C_17
REMARK    9  A    between atoms: C_16  and  C_18
REMARK   10  A    between atoms: C_22  and  C_38
REMARK                            x       y       z     vdW  Elec       q    Type
REMARK                         _______ _______ _______ _____ _____    ______ ____
ROOT
ATOM      1  N   UNL     1       4.317  -1.281  -2.352  0.00  0.00    -0.212 N 
ATOM      2  C   UNL     1       5.174  -0.489  -3.034  0.00  0.00    +0.253 C 
ATOM      3  O   UNL     1       4.895   0.457  -3.739  0.00  0.00    -0.272 OA
ATOM      4  C   UNL     1       6.551  -1.031  -2.733  0.00  0.00    +0.153 C 
ATOM      5  C   UNL     1       7.440   0.023  -2.119  0.00  0.00    +0.053 A 
ATOM      6  C   UNL     1       8.067  -0.144  -0.933  0.00  0.00    -0.015 A 
ATOM      7  C   UNL     1       8.832   1.068  -0.695  0.00  0.00    +0.003 A 
ATOM      8  C   UNL     1       9.674   1.462   0.349  0.00  0.00    +0.010 A 
ATOM      9  C   UNL     1      10.245   2.707   0.249  0.00  0.00    +0.001 A 
ATOM     10  C   UNL     1      10.005   3.541  -0.831  0.00  0.00    +0.002 A 
ATOM     11  C   UNL     1       9.177   3.176  -1.878  0.00  0.00    +0.026 A 
ATOM     12  C   UNL     1       8.585   1.916  -1.804  0.00  0.00    +0.047 A 
ATOM     13  N   UNL     1       7.738   1.252  -2.642  0.00  0.00    -0.356 N 
ATOM     14  H   UNL     1       7.398   1.598  -3.482  0.00  0.00    +0.166 HD
ATOM     15  C   UNL     1       7.967  -1.347  -0.030  0.00  0.00    +0.056 C 
ATOM     16  C   UNL     1       7.350  -2.533  -0.788  0.00  0.00    +0.115 C 
ATOM     17  N   UNL     1       6.288  -2.007  -1.648  0.00  0.00    -0.266 N 
ATOM     18  C   UNL     1       4.968  -2.184  -1.601  0.00  0.00    +0.313 C 
ATOM     19  O   UNL     1       4.421  -3.059  -0.960  0.00  0.00    -0.252 OA
ATOM     20  C   UNL     1       7.188  -1.688  -3.959  0.00  0.00    +0.048 C 
ENDROOT
BRANCH   1  21
ATOM     21  C   UNL     1       2.858  -1.164  -2.418  0.00  0.00    +0.171 C 
BRANCH  21  23
ATOM     22  N   UNL     1       0.995  -0.639  -0.877  0.00  0.00    -0.307 N 
ATOM     23  C   UNL     1       2.321  -0.801  -1.057  0.00  0.00    +0.235 C 
ATOM     24  O   UNL     1       3.082  -0.654  -0.124  0.00  0.00    -0.274 OA
ATOM     25  H   UNL     1       0.387  -0.756  -1.623  0.00  0.00    +0.149 HD
BRANCH  22  27
ATOM     26  C   UNL     1       0.535   1.231   0.630  0.00  0.00    +0.033 C 
ATOM     27  C   UNL     1       0.473  -0.286   0.446  0.00  0.00    +0.100 C 
BRANCH  27  28
ATOM     28  C   UNL     1      -0.956  -0.749   0.561  0.00  0.00    -0.027 A 
ATOM     29  C   UNL     1      -1.813  -0.623  -0.516  0.00  0.00    +0.005 A 
ATOM     30  C   UNL     1      -3.124  -1.047  -0.410  0.00  0.00    +0.000 A 
ATOM     31  C   UNL     1      -3.579  -1.598   0.773  0.00  0.00    +0.000 A 
ATOM     32  C   UNL     1      -2.722  -1.724   1.851  0.00  0.00    +0.000 A 
ATOM     33  C   UNL     1      -1.410  -1.304   1.743  0.00  0.00    +0.005 A 
ENDBRANCH  27  28
ENDBRANCH  22  27
ENDBRANCH  21  23
BRANCH  21  34
ATOM     34  C   UNL     1       2.259  -2.499  -2.863  0.00  0.00    +0.035 C 
BRANCH  34  35
ATOM     35  C   UNL     1       2.749  -2.833  -4.273  0.00  0.00    -0.015 C 
ATOM     36  C   UNL     1       2.269  -4.234  -4.661  0.00  0.00    +0.007 C 
ATOM     37  C   UNL     1       2.189  -1.810  -5.263  0.00  0.00    +0.007 C 
ENDBRANCH  34  35
ENDBRANCH  21  34
ENDBRANCH   1  21
TORSDOF 6
