REMARK  Name = ZINC39946207
REMARK  12 active torsions:
REMARK  status: ('A' for Active; 'I' for Inactive)
REMARK    1  A    between atoms: C_1  and  C_2
REMARK    2  A    between atoms: C_4  and  C_12
REMARK    3  A    between atoms: C_12  and  C_14
REMARK    4  A    between atoms: C_14  and  O_15
REMARK    5  A    between atoms: O_15  and  C_16
REMARK    6  A    between atoms: C_16  and  C_18
REMARK    7  A    between atoms: C_20  and  O_34
REMARK    8  A    between atoms: C_21  and  O_32
REMARK    9  A    between atoms: C_23  and  N_24
REMARK   10  A    between atoms: C_25  and  C_27
REMARK   11  A    between atoms: O_32  and  C_33
REMARK   12  A    between atoms: O_34  and  C_35
REMARK                            x       y       z     vdW  Elec       q    Type
REMARK                         _______ _______ _______ _____ _____    ______ ____
ROOT
ATOM      1  C   UNL     1       0.623  -0.922  -7.460  0.00  0.00    +0.084 A 
ATOM      2  C   UNL     1      -0.576  -0.212  -7.601  0.00  0.00    +0.066 A 
ATOM      3  C   UNL     1      -0.863   0.423  -8.790  0.00  0.00    +0.162 A 
ATOM      4  C   UNL     1       0.036   0.359  -9.856  0.00  0.00    +0.163 A 
ATOM      5  C   UNL     1       1.224  -0.342  -9.726  0.00  0.00    +0.073 A 
ATOM      6  C   UNL     1       1.528  -0.979  -8.533  0.00  0.00    +0.051 A 
ENDROOT
BRANCH   6   7
ATOM      7  N   UNL     1       2.725  -1.679  -8.399  0.00  0.00    -0.280 N 
ATOM      8  C   UNL     1       3.160  -2.467  -9.402  0.00  0.00    +0.255 C 
ATOM      9  O   UNL     1       2.548  -2.508 -10.454  0.00  0.00    -0.269 OA
ATOM     10  H   UNL     1       3.245  -1.599  -7.585  0.00  0.00    +0.155 HD
BRANCH   8  11
ATOM     11  C   UNL     1       4.370  -3.275  -9.227  0.00  0.00    +0.074 A 
ATOM     12  C   UNL     1       4.983  -4.137 -10.124  0.00  0.00    +0.021 A 
ATOM     13  C   UNL     1       6.120  -4.761  -9.670  0.00  0.00    +0.008 A 
ATOM     14  C   UNL     1       6.556  -4.503  -8.412  0.00  0.00    +0.046 A 
ATOM     15  S   UNL     1       5.442  -3.400  -7.808  0.00  0.00    -0.092 S 
ENDBRANCH   8  11
ENDBRANCH   6   7
BRANCH   1  16
ATOM     16  C   UNL     1       0.935  -1.601  -6.193  0.00  0.00    +0.342 C 
ATOM     17  O   UNL     1       1.928  -2.296  -6.105  0.00  0.00    -0.245 OA
BRANCH  16  18
ATOM     18  O   UNL     1       0.119  -1.452  -5.130  0.00  0.00    -0.453 OA
BRANCH  18  19
ATOM     19  C   UNL     1       0.484  -2.140  -3.932  0.00  0.00    +0.311 C 
BRANCH  19  20
ATOM     20  C   UNL     1      -0.537  -1.856  -2.860  0.00  0.00    +0.199 C 
ATOM     21  O   UNL     1      -1.484  -1.135  -3.099  0.00  0.00    -0.289 OA
BRANCH  20  24
ATOM     22  C   UNL     1      -1.380  -0.782   0.014  0.00  0.00    +0.035 C 
ATOM     23  C   UNL     1      -1.312  -2.256  -0.390  0.00  0.00    +0.111 C 
ATOM     24  C   UNL     1      -0.392  -2.429  -1.579  0.00  0.00    +0.029 C 
ATOM     25  C   UNL     1       0.621  -3.266  -1.146  0.00  0.00    +0.007 A 
ATOM     26  C   UNL     1       1.768  -3.797  -1.782  0.00  0.00    +0.010 A 
ATOM     27  C   UNL     1       2.607  -4.611  -1.104  0.00  0.00    +0.001 A 
ATOM     28  C   UNL     1       2.393  -4.966   0.238  0.00  0.00    +0.002 A 
ATOM     29  C   UNL     1       1.329  -4.513   0.936  0.00  0.00    +0.026 A 
ATOM     30  C   UNL     1       0.364  -3.622   0.271  0.00  0.00    +0.043 A 
ATOM     31  N   UNL     1      -0.729  -3.051   0.696  0.00  0.00    -0.377 N 
ATOM     32  H   UNL     1      -1.097  -3.137   1.589  0.00  0.00    +0.160 HD
ENDBRANCH  20  24
ENDBRANCH  19  20
ENDBRANCH  18  19
ENDBRANCH  16  18
ENDBRANCH   1  16
BRANCH   4  33
ATOM     33  O   UNL     1      -0.255   0.985 -11.025  0.00  0.00    -0.491 OA
ATOM     34  C   UNL     1       0.709   0.880 -12.075  0.00  0.00    +0.277 C 
ENDBRANCH   4  33
BRANCH   3  35
ATOM     35  O   UNL     1      -2.028   1.113  -8.927  0.00  0.00    -0.491 OA
ATOM     36  C   UNL     1      -2.903   1.138  -7.797  0.00  0.00    +0.277 C 
ENDBRANCH   3  35
TORSDOF 9
