REMARK  Name = ZINC35745136
REMARK  16 active torsions:
REMARK  status: ('A' for Active; 'I' for Inactive)
REMARK    1  A    between atoms: C_1  and  C_2
REMARK    2  A    between atoms: C_2  and  C_3
REMARK    3  A    between atoms: C_2  and  C_4
REMARK    4  A    between atoms: C_4  and  N_5
REMARK    5  A    between atoms: N_5  and  C_6
REMARK    6  A    between atoms: N_5  and  C_14
REMARK    7  A    between atoms: C_6  and  C_7
REMARK    8  A    between atoms: C_14  and  C_15
REMARK    9  A    between atoms: C_18  and  C_20
REMARK   10  A    between atoms: C_20  and  C_21
REMARK   11  A    between atoms: C_20  and  C_29
REMARK   12  A    between atoms: C_20  and  O_37
REMARK   13  A    between atoms: C_24  and  O_27
REMARK   14  A    between atoms: O_27  and  C_28
REMARK   15  A    between atoms: C_32  and  O_35
REMARK   16  A    between atoms: O_35  and  C_36
REMARK                            x       y       z     vdW  Elec       q    Type
REMARK                         _______ _______ _______ _____ _____    ______ ____
ROOT
ATOM      1  C   UNL     1      -3.034  -1.923  -1.677  0.00  0.00    +0.089 A 
ATOM      2  C   UNL     1      -3.269  -2.885  -2.588  0.00  0.00    +0.043 A 
ATOM      3  C   UNL     1      -4.097  -2.313  -3.582  0.00  0.00    +0.048 A 
ATOM      4  C   UNL     1      -4.319  -1.037  -3.218  0.00  0.00    +0.146 A 
ATOM      5  O   UNL     1      -3.677  -0.808  -2.060  0.00  0.00    -0.463 OA
ENDROOT
BRANCH   1   6
ATOM      6  C   UNL     1      -2.198  -2.074  -0.432  0.00  0.00    -0.003 C 
BRANCH   6   7
ATOM      7  N   UNL     1      -0.778  -1.911  -0.774  0.00  0.00    +0.387 N 
ATOM      8  H   UNL     1      -0.620  -2.237  -1.716  0.00  0.00    -0.081 HD
BRANCH   7   9
ATOM      9  C   UNL     1      -0.412  -0.492  -0.679  0.00  0.00    -0.075 C 
BRANCH   9  11
ATOM     10  C   UNL     1      -0.766   1.778  -1.662  0.00  0.00    +0.005 C 
ATOM     11  C   UNL     1      -1.159   0.302  -1.752  0.00  0.00    -0.034 C 
ATOM     12  C   UNL     1      -0.790  -0.240  -3.135  0.00  0.00    +0.005 C 
ENDBRANCH   9  11
ENDBRANCH   7   9
BRANCH   7  13
ATOM     13  C   UNL     1       0.043  -2.693   0.159  0.00  0.00    -0.040 C 
BRANCH  13  14
ATOM     14  C   UNL     1       1.486  -2.634  -0.271  0.00  0.00    -0.029 A 
ATOM     15  C   UNL     1       2.010  -3.631  -1.072  0.00  0.00    +0.004 A 
ATOM     16  C   UNL     1       3.334  -3.577  -1.466  0.00  0.00    +0.000 A 
ATOM     17  C   UNL     1       4.135  -2.526  -1.061  0.00  0.00    +0.003 A 
ATOM     18  C   UNL     1       3.614  -1.528  -0.261  0.00  0.00    +0.038 A 
ATOM     19  C   UNL     1       2.286  -1.578   0.131  0.00  0.00    +0.125 A 
ATOM     20  F   UNL     1       1.774  -0.600   0.910  0.00  0.00    -0.205 F 
ENDBRANCH  13  14
ENDBRANCH   7  13
ENDBRANCH   6   7
ENDBRANCH   1   6
BRANCH   4  21
ATOM     21  C   UNL     1      -5.150  -0.036  -3.978  0.00  0.00    +0.174 C 
BRANCH  21  22
ATOM     22  C   UNL     1      -5.764   0.944  -3.012  0.00  0.00    -0.004 A 
ATOM     23  C   UNL     1      -7.131   1.150  -3.013  0.00  0.00    +0.011 A 
ATOM     24  C   UNL     1      -7.696   2.048  -2.128  0.00  0.00    +0.046 A 
ATOM     25  C   UNL     1      -6.891   2.743  -1.238  0.00  0.00    +0.120 A 
ATOM     26  C   UNL     1      -5.519   2.534  -1.238  0.00  0.00    +0.046 A 
ATOM     27  C   UNL     1      -4.959   1.631  -2.122  0.00  0.00    +0.011 A 
BRANCH  25  28
ATOM     28  O   UNL     1      -7.444   3.627  -0.367  0.00  0.00    -0.495 OA
ATOM     29  C   UNL     1      -6.554   4.307   0.521  0.00  0.00    +0.277 C 
ENDBRANCH  25  28
ENDBRANCH  21  22
BRANCH  21  30
ATOM     30  C   UNL     1      -4.275   0.705  -4.956  0.00  0.00    -0.004 A 
ATOM     31  C   UNL     1      -3.591   0.008  -5.935  0.00  0.00    +0.011 A 
ATOM     32  C   UNL     1      -2.788   0.684  -6.833  0.00  0.00    +0.046 A 
ATOM     33  C   UNL     1      -2.668   2.064  -6.751  0.00  0.00    +0.120 A 
ATOM     34  C   UNL     1      -3.355   2.761  -5.768  0.00  0.00    +0.046 A 
ATOM     35  C   UNL     1      -4.161   2.080  -4.877  0.00  0.00    +0.011 A 
BRANCH  33  36
ATOM     36  O   UNL     1      -1.878   2.731  -7.633  0.00  0.00    -0.495 OA
ATOM     37  C   UNL     1      -1.802   4.151  -7.489  0.00  0.00    +0.277 C 
ENDBRANCH  33  36
ENDBRANCH  21  30
BRANCH  21  38
ATOM     38  O   UNL     1      -6.186  -0.718  -4.688  0.00  0.00    -0.372 OA
ATOM     39  H   UNL     1      -5.863  -1.366  -5.329  0.00  0.00    +0.212 HD
ENDBRANCH  21  38
ENDBRANCH   4  21
TORSDOF 12
