REMARK  Name = ZINC13215680
REMARK  9 active torsions:
REMARK  status: ('A' for Active; 'I' for Inactive)
REMARK    1  A    between atoms: C_1  and  C_2
REMARK    2  A    between atoms: C_5  and  C_8
REMARK    3  A    between atoms: C_8  and  C_10
REMARK    4  A    between atoms: N_14  and  C_25
REMARK    5  A    between atoms: C_15  and  C_17
REMARK    6  A    between atoms: C_22  and  O_23
REMARK    7  A    between atoms: O_23  and  C_24
REMARK    8  A    between atoms: C_27  and  C_32
REMARK    9  A    between atoms: C_30  and  C_31
REMARK                            x       y       z     vdW  Elec       q    Type
REMARK                         _______ _______ _______ _____ _____    ______ ____
ROOT
ATOM      1  C   UNL     1       0.183  -4.952   1.338  0.00  0.00    +0.077 C 
ATOM      2  C   UNL     1       0.377  -6.262   1.622  0.00  0.00    +0.250 C 
ATOM      3  C   UNL     1       0.376  -6.446   3.088  0.00  0.00    +0.292 C 
ATOM      4  O   UNL     1       0.527  -7.509   3.658  0.00  0.00    -0.266 OA
ATOM      5  N   UNL     1       0.184  -5.263   3.699  0.00  0.00    -0.253 N 
ATOM      6  C   UNL     1       0.053  -4.234   2.661  0.00  0.00    +0.153 C 
ATOM      7  O   UNL     1       0.545  -7.246   0.709  0.00  0.00    -0.282 OA
ENDROOT
BRANCH   5   8
ATOM      8  C   UNL     1       0.123  -5.050   5.080  0.00  0.00    +0.041 A 
ATOM      9  C   UNL     1       1.273  -4.722   5.782  0.00  0.00    +0.039 A 
ATOM     10  C   UNL     1       1.207  -4.511   7.160  0.00  0.00    +0.065 A 
ATOM     11  C   UNL     1      -0.018  -4.632   7.822  0.00  0.00    +0.015 A 
ATOM     12  C   UNL     1      -1.155  -4.959   7.114  0.00  0.00    +0.006 A 
ATOM     13  C   UNL     1      -1.091  -5.163   5.748  0.00  0.00    -0.029 A 
ATOM     14  C   UNL     1      -2.340  -5.513   4.981  0.00  0.00    +0.045 C 
BRANCH  10  15
ATOM     15  C   UNL     1       2.426  -4.162   7.915  0.00  0.00    +0.387 C 
ATOM     16  O   UNL     1       3.496  -4.057   7.333  0.00  0.00    -0.241 OA
ATOM     17  O   UNL     1       2.365  -3.977   9.122  0.00  0.00    -0.241 OA
ENDBRANCH  10  15
ENDBRANCH   5   8
BRANCH   6  18
ATOM     18  C   UNL     1       1.148  -3.208   2.803  0.00  0.00    +0.020 A 
ATOM     19  C   UNL     1       2.264  -3.270   1.990  0.00  0.00    +0.009 A 
ATOM     20  C   UNL     1       3.268  -2.330   2.120  0.00  0.00    +0.001 A 
ATOM     21  C   UNL     1       3.160  -1.325   3.064  0.00  0.00    +0.004 A 
ATOM     22  C   UNL     1       2.047  -1.259   3.879  0.00  0.00    +0.046 A 
ATOM     23  C   UNL     1       1.035  -2.198   3.747  0.00  0.00    +0.125 A 
BRANCH  23  24
ATOM     24  O   UNL     1      -0.064  -2.132   4.544  0.00  0.00    -0.495 OA
ATOM     25  C   UNL     1      -0.162  -1.009   5.422  0.00  0.00    +0.277 C 
ENDBRANCH  23  24
ENDBRANCH   6  18
BRANCH   1  26
ATOM     26  C   UNL     1       0.118  -4.348   0.005  0.00  0.00    +0.195 C 
ATOM     27  O   UNL     1       1.093  -4.374  -0.723  0.00  0.00    -0.287 OA
BRANCH  26  32
ATOM     28  C   UNL     1      -4.747  -1.851  -1.788  0.00  0.00    +0.044 C 
ATOM     29  C   UNL     1      -3.473  -2.505  -1.319  0.00  0.00    -0.050 A 
ATOM     30  C   UNL     1      -2.347  -2.476  -2.123  0.00  0.00    +0.004 A 
ATOM     31  C   UNL     1      -1.178  -3.072  -1.699  0.00  0.00    +0.012 A 
ATOM     32  C   UNL     1      -1.132  -3.706  -0.456  0.00  0.00    +0.022 A 
ATOM     33  C   UNL     1      -2.271  -3.731   0.351  0.00  0.00    +0.012 A 
ATOM     34  C   UNL     1      -3.433  -3.126  -0.083  0.00  0.00    +0.004 A 
ENDBRANCH  26  32
ENDBRANCH   1  26
TORSDOF 6
