REMARK  Name = ZINC16195311
REMARK  8 active torsions:
REMARK  status: ('A' for Active; 'I' for Inactive)
REMARK    1  A    between atoms: C_1  and  O_2
REMARK    2  A    between atoms: O_2  and  C_3
REMARK    3  A    between atoms: C_7  and  C_13
REMARK    4  A    between atoms: C_8  and  O_9
REMARK    5  A    between atoms: O_9  and  C_10
REMARK    6  A    between atoms: C_10  and  C_11
REMARK    7  A    between atoms: N_14  and  N_15
REMARK    8  A    between atoms: C_16  and  C_18
REMARK                            x       y       z     vdW  Elec       q    Type
REMARK                         _______ _______ _______ _____ _____    ______ ____
ROOT
ATOM      1  N   UNL     1       0.866  -6.204  -1.458  0.00  0.00    -0.200 N 
ATOM      2  C   UNL     1       0.318  -6.960  -0.485  0.00  0.00    +0.299 C 
ATOM      3  O   UNL     1      -0.224  -6.428   0.466  0.00  0.00    -0.265 OA
ATOM      4  H   UNL     1       1.298  -6.628  -2.216  0.00  0.00    +0.178 HD
ENDROOT
BRANCH   2   5
ATOM      5  C   UNL     1       0.376  -8.424  -0.573  0.00  0.00    +0.192 A 
ATOM      6  C   UNL     1      -0.143  -9.290   0.340  0.00  0.00    +0.063 A 
ATOM      7  C   UNL     1       0.132 -10.591  -0.128  0.00  0.00    +0.029 A 
ATOM      8  C   UNL     1      -0.149 -11.935   0.373  0.00  0.00    -0.007 A 
ATOM      9  C   UNL     1      -0.836 -12.143   1.572  0.00  0.00    +0.009 A 
ATOM     10  C   UNL     1      -1.077 -13.416   2.001  0.00  0.00    +0.001 A 
ATOM     11  C   UNL     1      -0.646 -14.512   1.259  0.00  0.00    +0.001 A 
ATOM     12  C   UNL     1       0.026 -14.343   0.086  0.00  0.00    +0.008 A 
ATOM     13  C   UNL     1       0.290 -13.047  -0.384  0.00  0.00    -0.017 A 
ATOM     14  C   UNL     1       0.983 -12.834  -1.593  0.00  0.00    +0.012 A 
ATOM     15  C   UNL     1       1.237 -11.582  -2.045  0.00  0.00    +0.047 A 
ATOM     16  C   UNL     1       0.825 -10.446  -1.337  0.00  0.00    +0.136 A 
ATOM     17  O   UNL     1       0.948  -9.125  -1.575  0.00  0.00    -0.450 OA
ENDBRANCH   2   5
BRANCH   1  19
ATOM     18  C   UNL     1       1.337  -4.079  -2.311  0.00  0.00    +0.142 C 
ATOM     19  N   UNL     1       0.810  -4.807  -1.374  0.00  0.00    -0.187 NA
BRANCH  18  24
ATOM     20  C   UNL     1       0.606  -0.608  -1.056  0.00  0.00    +0.163 A 
ATOM     21  C   UNL     1       1.173   0.161  -2.062  0.00  0.00    +0.064 A 
ATOM     22  C   UNL     1       1.789  -0.447  -3.143  0.00  0.00    +0.022 A 
ATOM     23  C   UNL     1       1.846  -1.823  -3.229  0.00  0.00    +0.028 A 
ATOM     24  C   UNL     1       1.279  -2.609  -2.223  0.00  0.00    +0.041 A 
ATOM     25  C   UNL     1       0.661  -1.994  -1.127  0.00  0.00    +0.172 A 
ATOM     26 BR   UNL     1       2.556   0.615  -4.507  0.00  0.00    -0.050 Br
BRANCH  20  28
ATOM     27  C   UNL     1      -0.017   1.425   0.010  0.00  0.00    +0.277 C 
ATOM     28  O   UNL     1       0.002  -0.004   0.002  0.00  0.00    -0.491 OA
ENDBRANCH  20  28
BRANCH  25  29
ATOM     29  O   UNL     1       0.112  -2.750  -0.140  0.00  0.00    -0.475 OA
BRANCH  29  30
ATOM     30  C   UNL     1      -1.259  -3.123  -0.295  0.00  0.00    +0.317 C 
BRANCH  30  31
ATOM     31  C   UNL     1      -1.681  -3.933   0.860  0.00  0.00    -0.065 C 
ATOM     32  C   UNL     1      -2.017  -4.578   1.781  0.00  0.00    +0.007 C 
ENDBRANCH  30  31
ENDBRANCH  29  30
ENDBRANCH  25  29
ENDBRANCH  18  24
ENDBRANCH   1  19
TORSDOF 7
