REMARK  Name = ZINC38547936
REMARK  7 active torsions:
REMARK  status: ('A' for Active; 'I' for Inactive)
REMARK    1  A    between atoms: C_1  and  C_2
REMARK    2  A    between atoms: C_2  and  C_3
REMARK    3  A    between atoms: C_5  and  C_16
REMARK    4  A    between atoms: C_6  and  N_8
REMARK    5  A    between atoms: C_9  and  C_11
REMARK    6  A    between atoms: C_16  and  C_18
REMARK    7  A    between atoms: C_16  and  N_23
REMARK                            x       y       z     vdW  Elec       q    Type
REMARK                         _______ _______ _______ _____ _____    ______ ____
ROOT
ATOM      1  C   UNL     1      -1.412  -0.526   0.013  0.00  0.00    -0.008 A 
ATOM      2  C   UNL     1      -2.219  -0.820  -1.034  0.00  0.00    +0.019 A 
ATOM      3  C   UNL     1      -3.495  -1.292  -0.787  0.00  0.00    +0.006 A 
ATOM      4  C   UNL     1      -3.900  -1.445   0.505  0.00  0.00    +0.078 A 
ATOM      5  S   UNL     1      -2.451  -0.922   1.409  0.00  0.00    -0.078 S 
ENDROOT
BRANCH   4   6
ATOM      6  N   UNL     1      -5.126  -1.899   0.995  0.00  0.00    -0.273 N 
ATOM      7  C   UNL     1      -5.332  -1.980   2.324  0.00  0.00    +0.284 C 
ATOM      8  O   UNL     1      -4.450  -1.657   3.098  0.00  0.00    -0.266 OA
ATOM      9  H   UNL     1      -5.829  -2.156   0.378  0.00  0.00    +0.156 HD
BRANCH   7  10
ATOM     10  C   UNL     1      -6.620  -2.456   2.839  0.00  0.00    +0.189 A 
ATOM     11  C   UNL     1      -6.962  -2.581   4.155  0.00  0.00    +0.054 A 
ATOM     12  C   UNL     1      -8.278  -3.068   4.186  0.00  0.00    +0.042 A 
ATOM     13  C   UNL     1      -8.677  -3.218   2.903  0.00  0.00    +0.196 A 
ATOM     14  O   UNL     1      -7.677  -2.843   2.095  0.00  0.00    -0.458 OA
ENDBRANCH   7  10
ENDBRANCH   4   6
BRANCH   1  16
ATOM     15  C   UNL     1      -0.019   1.526   0.010  0.00  0.00    +0.009 C 
ATOM     16  C   UNL     1       0.002  -0.004   0.002  0.00  0.00    +0.039 C 
ENDBRANCH   1  16
BRANCH   3  17
ATOM     17  C   UNL     1      -4.422  -1.629  -1.927  0.00  0.00    +0.141 C 
BRANCH  17  18
ATOM     18  N   UNL     1      -3.634  -1.957  -3.117  0.00  0.00    -0.319 N 
ATOM     19  C   UNL     1      -4.172  -2.775  -4.104  0.00  0.00    +0.097 A 
ATOM     20  C   UNL     1      -5.463  -3.274  -3.957  0.00  0.00    +0.041 A 
ATOM     21  C   UNL     1      -5.986  -4.087  -4.947  0.00  0.00    +0.005 A 
ATOM     22  C   UNL     1      -5.198  -4.373  -6.054  0.00  0.00    +0.018 A 
ATOM     23  C   UNL     1      -3.926  -3.844  -6.135  0.00  0.00    +0.084 A 
ATOM     24  N   UNL     1      -3.454  -3.067  -5.177  0.00  0.00    -0.350 N 
ATOM     25  H   UNL     1      -2.736  -1.603  -3.217  0.00  0.00    +0.148 HD
ATOM     26  H   UNL     1      -2.558  -2.704  -5.261  0.00  0.00    +0.166 HD
ENDBRANCH  17  18
BRANCH  17  27
ATOM     27  C   UNL     1      -5.308  -0.447  -2.221  0.00  0.00    +0.014 A 
ATOM     28  C   UNL     1      -6.590  -0.225  -1.841  0.00  0.00    +0.013 A 
ATOM     29  C   UNL     1      -7.212   0.946  -2.231  0.00  0.00    +0.008 A 
ATOM     30  C   UNL     1      -6.522   1.839  -2.982  0.00  0.00    +0.045 A 
ATOM     31  S   UNL     1      -4.939   1.030  -3.154  0.00  0.00    -0.099 S 
ENDBRANCH  17  27
ENDBRANCH   3  17
TORSDOF 6
