REMARK  Name = ZINC00682672
REMARK  7 active torsions:
REMARK  status: ('A' for Active; 'I' for Inactive)
REMARK    1  A    between atoms: C_1  and  C_2
REMARK    2  A    between atoms: C_2  and  C_34
REMARK    3  A    between atoms: C_6  and  C_22
REMARK    4  A    between atoms: C_16  and  C_18
REMARK    5  A    between atoms: C_25  and  N_28
REMARK    6  A    between atoms: N_28  and  C_29
REMARK    7  A    between atoms: N_28  and  C_30
REMARK                            x       y       z     vdW  Elec       q    Type
REMARK                         _______ _______ _______ _____ _____    ______ ____
ROOT
ATOM      1  C   UNL     1       5.009   2.760  -3.797  0.00  0.00    +0.011 C 
ATOM      2  C   UNL     1       5.721   3.759  -2.883  0.00  0.00    -0.023 C 
ATOM      3  C   UNL     1       5.593   3.313  -1.427  0.00  0.00    +0.058 C 
ATOM      4  C   UNL     1       4.126   3.234  -1.038  0.00  0.00    +0.017 C 
ATOM      5  C   UNL     1       3.231   4.079  -1.579  0.00  0.00    +0.037 C 
ATOM      6  C   UNL     1       1.753   4.118  -1.273  0.00  0.00    +0.147 C 
ATOM      7  N   UNL     1       1.354   3.330  -0.126  0.00  0.00    -0.251 N 
ATOM      8  C   UNL     1       1.483   1.940  -0.130  0.00  0.00    +0.059 A 
ATOM      9  C   UNL     1       0.374   1.110  -0.121  0.00  0.00    +0.025 A 
ATOM     10  C   UNL     1       0.549  -0.258  -0.232  0.00  0.00    +0.002 A 
ATOM     11  C   UNL     1       1.819  -0.794  -0.347  0.00  0.00    +0.002 A 
ATOM     12  C   UNL     1       2.930   0.031  -0.329  0.00  0.00    +0.025 A 
ATOM     13  C   UNL     1       2.757   1.399  -0.206  0.00  0.00    +0.053 A 
ATOM     14  N   UNL     1       3.829   2.279  -0.121  0.00  0.00    -0.316 N 
ATOM     15  C   UNL     1       0.850   3.947   0.961  0.00  0.00    +0.325 C 
ATOM     16  O   UNL     1       0.734   5.155   0.973  0.00  0.00    -0.265 OA
ATOM     17  C   UNL     1       3.644   5.035  -2.536  0.00  0.00    +0.163 C 
ATOM     18  O   UNL     1       2.818   5.801  -2.993  0.00  0.00    -0.292 OA
ATOM     19  C   UNL     1       5.063   5.138  -3.008  0.00  0.00    +0.086 C 
ATOM     20  C   UNL     1       7.199   3.853  -3.269  0.00  0.00    +0.011 C 
ATOM     21  H   UNL     1       4.408   2.206   0.654  0.00  0.00    +0.152 HD
ENDROOT
BRANCH   6  22
ATOM     22  C   UNL     1       1.003   3.614  -2.479  0.00  0.00    -0.022 A 
ATOM     23  C   UNL     1       0.135   4.454  -3.152  0.00  0.00    +0.007 A 
ATOM     24  C   UNL     1      -0.549   3.997  -4.261  0.00  0.00    +0.023 A 
ATOM     25  C   UNL     1      -0.374   2.688  -4.693  0.00  0.00    +0.029 A 
ATOM     26  C   UNL     1       0.494   1.846  -4.011  0.00  0.00    +0.023 A 
ATOM     27  C   UNL     1       1.180   2.311  -2.906  0.00  0.00    +0.007 A 
BRANCH  25  28
ATOM     28  N   UNL     1      -1.070   2.221  -5.810  0.00  0.00    -0.336 N 
ATOM     29  C   UNL     1      -0.884   0.841  -6.264  0.00  0.00    +0.129 C 
ATOM     30  C   UNL     1      -1.985   3.112  -6.529  0.00  0.00    +0.129 C 
ENDBRANCH  25  28
ENDBRANCH   6  22
BRANCH  15  31
ATOM     31  C   UNL     1       0.430   3.138   2.161  0.00  0.00    +0.470 C 
ATOM     32  F   UNL     1      -0.057   3.994   3.154  0.00  0.00    -0.162 F 
ATOM     33  F   UNL     1      -0.573   2.237   1.788  0.00  0.00    -0.162 F 
ATOM     34  F   UNL     1       1.532   2.431   2.654  0.00  0.00    -0.162 F 
ENDBRANCH  15  31
TORSDOF 3
