REMARK  Name = ZINC63491241
REMARK  10 active torsions:
REMARK  status: ('A' for Active; 'I' for Inactive)
REMARK    1  A    between atoms: C_1  and  C_2
REMARK    2  A    between atoms: C_7  and  O_32
REMARK    3  A    between atoms: C_13  and  C_15
REMARK    4  A    between atoms: C_15  and  C_16
REMARK    5  A    between atoms: N_18  and  C_19
REMARK    6  A    between atoms: C_19  and  C_21
REMARK    7  A    between atoms: C_19  and  C_22
REMARK    8  A    between atoms: C_22  and  C_23
REMARK    9  A    between atoms: O_32  and  C_33
REMARK   10  A    between atoms: C_33  and  C_35
REMARK                            x       y       z     vdW  Elec       q    Type
REMARK                         _______ _______ _______ _____ _____    ______ ____
ROOT
ATOM      1  C   UNL     1       1.992   0.409   1.414  0.00  0.00    +0.111 C 
ENDROOT
BRANCH   1  13
ATOM      2  C   UNL     1      -0.087   1.550  -0.044  0.00  0.00    +0.013 C 
ATOM      3  C   UNL     1      -0.024   0.021  -0.022  0.00  0.00    +0.034 C 
ATOM      4  C   UNL     1       0.686  -0.469  -1.258  0.00  0.00    +0.000 A 
ATOM      5  C   UNL     1       0.432   0.170  -2.462  0.00  0.00    +0.031 A 
ATOM      6  C   UNL     1       1.054  -0.248  -3.621  0.00  0.00    +0.084 A 
ATOM      7  C   UNL     1       1.940  -1.318  -3.586  0.00  0.00    +0.153 A 
ATOM      8  C   UNL     1       2.198  -1.956  -2.385  0.00  0.00    +0.094 A 
ATOM      9  C   UNL     1       1.573  -1.530  -1.218  0.00  0.00    +0.139 A 
ATOM     10  O   UNL     1       1.870  -2.174  -0.056  0.00  0.00    -0.425 OA
ATOM     11  C   UNL     1       1.115  -1.891   1.024  0.00  0.00    +0.316 C 
ATOM     12  O   UNL     1       0.760  -2.754   1.792  0.00  0.00    -0.250 OA
ATOM     13  C   UNL     1       0.733  -0.439   1.228  0.00  0.00    +0.114 C 
ATOM     14 CL   UNL     1       0.728   0.560  -5.123  0.00  0.00    -0.080 Cl
BRANCH   7  15
ATOM     15  O   UNL     1       2.550  -1.736  -4.726  0.00  0.00    -0.424 OA
BRANCH  15  16
ATOM     16  C   UNL     1       3.639  -1.067  -5.139  0.00  0.00    +0.309 C 
ATOM     17  O   UNL     1       4.105  -0.189  -4.453  0.00  0.00    -0.251 OA
ATOM     18  C   UNL     1       4.278  -1.411  -6.460  0.00  0.00    +0.136 C 
ENDBRANCH  15  16
ENDBRANCH   7  15
ENDBRANCH   1  13
BRANCH   1  19
ATOM     19  C   UNL     1       2.664   0.033   2.709  0.00  0.00    +0.214 C 
ATOM     20  O   UNL     1       2.183  -0.828   3.414  0.00  0.00    -0.276 OA
ATOM     21  N   UNL     1       3.800   0.654   3.084  0.00  0.00    -0.312 N 
ATOM     22  H   UNL     1       4.185   1.344   2.521  0.00  0.00    +0.149 HD
BRANCH  21  23
ATOM     23  C   UNL     1       4.454   0.289   4.344  0.00  0.00    +0.074 C 
ATOM     24  C   UNL     1       5.364  -0.919   4.114  0.00  0.00    +0.028 C 
BRANCH  23  25
ATOM     25  C   UNL     1       5.289   1.468   4.846  0.00  0.00    +0.055 C 
BRANCH  25  26
ATOM     26  C   UNL     1       4.378   2.619   5.189  0.00  0.00    -0.040 C 
ATOM     27  C   UNL     1       3.880   2.926   6.408  0.00  0.00    -0.001 A 
ATOM     28  C   UNL     1       4.029   2.304   7.729  0.00  0.00    +0.010 A 
ATOM     29  C   UNL     1       3.392   2.852   8.789  0.00  0.00    +0.001 A 
ATOM     30  C   UNL     1       2.593   3.997   8.657  0.00  0.00    +0.002 A 
ATOM     31  C   UNL     1       2.408   4.624   7.476  0.00  0.00    +0.026 A 
ATOM     32  C   UNL     1       3.031   4.134   6.296  0.00  0.00    +0.043 A 
ATOM     33  N   UNL     1       3.006   4.557   5.055  0.00  0.00    -0.380 N 
ATOM     34  C   UNL     1       3.842   3.668   4.240  0.00  0.00    +0.144 C 
ATOM     35  H   UNL     1       2.519   5.331   4.731  0.00  0.00    +0.160 HD
ENDBRANCH  25  26
ENDBRANCH  23  25
ENDBRANCH  21  23
ENDBRANCH   1  19
TORSDOF 7
