REMARK  Name = ZINC33960890
REMARK  11 active torsions:
REMARK  status: ('A' for Active; 'I' for Inactive)
REMARK    1  A    between atoms: C_1  and  C_2
REMARK    2  A    between atoms: C_6  and  O_9
REMARK    3  A    between atoms: C_7  and  C_8
REMARK    4  A    between atoms: O_9  and  C_10
REMARK    5  A    between atoms: C_10  and  C_11
REMARK    6  A    between atoms: C_13  and  C_19
REMARK    7  A    between atoms: C_16  and  O_17
REMARK    8  A    between atoms: O_17  and  C_18
REMARK    9  A    between atoms: N_20  and  N_21
REMARK   10  A    between atoms: C_27  and  C_43
REMARK   11  A    between atoms: C_40  and  O_42
REMARK                            x       y       z     vdW  Elec       q    Type
REMARK                         _______ _______ _______ _____ _____    ______ ____
ROOT
ATOM      1  N   UNL     1       0.073  -3.285   9.544  0.00  0.00    -0.158 NA
ATOM      2  C   UNL     1       0.085  -3.792  10.736  0.00  0.00    +0.047 C 
ATOM      3  C   UNL     1       0.118  -5.272  11.105  0.00  0.00    +0.053 C 
ATOM      4  C   UNL     1       0.225  -5.342  12.653  0.00  0.00    +0.010 C 
ATOM      5  C   UNL     1       0.841  -3.982  13.006  0.00  0.00    +0.005 C 
ATOM      6  C   UNL     1       0.076  -3.045  12.035  0.00  0.00    +0.011 C 
ATOM      7  C   UNL     1       0.750  -1.690  12.060  0.00  0.00    +0.013 C 
ATOM      8  C   UNL     1       0.605  -1.122  13.485  0.00  0.00    +0.009 C 
ATOM      9  C   UNL     1       1.197  -2.080  14.508  0.00  0.00    +0.023 C 
ATOM     10  C   UNL     1       0.571  -3.480  14.410  0.00  0.00    +0.001 C 
ATOM     11  C   UNL     1       1.232  -4.365  15.466  0.00  0.00    +0.009 C 
ATOM     12  C   UNL     1       0.752  -3.906  16.843  0.00  0.00    +0.036 C 
ATOM     13  C   UNL     1       0.864  -2.411  16.991  0.00  0.00    -0.040 A 
ATOM     14  C   UNL     1       1.041  -1.565  15.910  0.00  0.00    -0.041 A 
ATOM     15  C   UNL     1       1.116  -0.195  16.118  0.00  0.00    +0.008 A 
ATOM     16  C   UNL     1       0.986   0.331  17.386  0.00  0.00    +0.046 A 
ATOM     17  C   UNL     1       0.780  -0.518  18.464  0.00  0.00    +0.117 A 
ATOM     18  C   UNL     1       0.759  -1.881  18.270  0.00  0.00    +0.049 A 
ATOM     19  C   UNL     1      -1.367  -2.890  12.520  0.00  0.00    +0.018 C 
ENDROOT
BRANCH   1  21
ATOM     20  C   UNL     1       0.072  -3.617   7.223  0.00  0.00    +0.142 C 
ATOM     21  N   UNL     1       0.084  -4.128   8.425  0.00  0.00    -0.157 NA
BRANCH  20  24
ATOM     22  C   UNL     1       0.083  -4.787   3.662  0.00  0.00    +0.032 A 
ATOM     23  C   UNL     1       0.071  -3.955   4.759  0.00  0.00    +0.020 A 
ATOM     24  C   UNL     1       0.084  -4.500   6.048  0.00  0.00    -0.005 A 
ATOM     25  C   UNL     1       0.109  -5.890   6.215  0.00  0.00    +0.013 A 
ATOM     26  C   UNL     1       0.121  -6.713   5.112  0.00  0.00    +0.046 A 
ATOM     27  C   UNL     1       0.102  -6.167   3.833  0.00  0.00    +0.127 A 
BRANCH  27  28
ATOM     28  O   UNL     1       0.108  -6.983   2.749  0.00  0.00    -0.495 OA
ATOM     29  C   UNL     1       0.128  -8.390   2.996  0.00  0.00    +0.277 C 
ENDBRANCH  27  28
BRANCH  22  30
ATOM     30  C   UNL     1       0.069  -4.202   2.274  0.00  0.00    +0.268 C 
BRANCH  30  31
ATOM     31  O   UNL     1       0.050  -2.776   2.358  0.00  0.00    -0.487 OA
BRANCH  31  37
ATOM     32  C   UNL     1      -0.018   1.503   0.010  0.00  0.00    +0.044 C 
ATOM     33  C   UNL     1       0.002  -0.004   0.002  0.00  0.00    -0.044 A 
ATOM     34  C   UNL     1       0.006  -0.688  -1.200  0.00  0.00    +0.004 A 
ATOM     35  C   UNL     1       0.024  -2.071  -1.211  0.00  0.00    +0.004 A 
ATOM     36  C   UNL     1       0.039  -2.772  -0.020  0.00  0.00    +0.046 A 
ATOM     37  C   UNL     1       0.035  -2.088   1.186  0.00  0.00    +0.124 A 
ATOM     38  C   UNL     1       0.023  -0.700   1.195  0.00  0.00    -0.006 A 
ATOM     39  C   UNL     1       0.026   0.046   2.504  0.00  0.00    +0.048 C 
ENDBRANCH  31  37
ENDBRANCH  30  31
ENDBRANCH  22  30
ENDBRANCH  20  24
ENDBRANCH   1  21
BRANCH  17  40
ATOM     40  O   UNL     1       0.656  -0.011  19.718  0.00  0.00    -0.507 OA
ATOM     41  H   UNL     1      -0.254   0.203  19.968  0.00  0.00    +0.292 HD
ENDBRANCH  17  40
TORSDOF 7
