REMARK  Name = ZINC32124399
REMARK  6 active torsions:
REMARK  status: ('A' for Active; 'I' for Inactive)
REMARK    1  A    between atoms: C_1  and  C_2
REMARK    2  A    between atoms: C_6  and  C_22
REMARK    3  A    between atoms: C_7  and  O_9
REMARK    4  A    between atoms: C_13  and  C_14
REMARK    5  A    between atoms: C_17  and  O_21
REMARK    6  A    between atoms: C_18  and  O_20
REMARK                            x       y       z     vdW  Elec       q    Type
REMARK                         _______ _______ _______ _____ _____    ______ ____
ROOT
ATOM      1  C   UNL     1       3.255   7.705  -0.004  0.00  0.00    +0.013 C 
ATOM      2  C   UNL     1       3.502   6.195  -0.005  0.00  0.00    -0.007 C 
ATOM      3  C   UNL     1       4.316   5.780   1.227  0.00  0.00    -0.066 C 
ATOM      4  N   UNL     1       4.561   4.331   1.172  0.00  0.00    +0.394 N 
ATOM      5  C   UNL     1       3.279   3.584   1.242  0.00  0.00    -0.061 C 
ATOM      6  C   UNL     1       2.451   3.937   0.001  0.00  0.00    +0.020 C 
ATOM      7  C   UNL     1       2.165   5.444   0.011  0.00  0.00    +0.130 C 
ATOM      8  C   UNL     1       3.257   3.598  -1.259  0.00  0.00    +0.095 C 
ATOM      9  N   UNL     1       4.525   4.342  -1.228  0.00  0.00    -0.310 NA
ATOM     10  C   UNL     1       4.279   5.791  -1.264  0.00  0.00    +0.090 C 
ATOM     11  C   UNL     1       5.313   3.979  -0.041  0.00  0.00    +0.033 C 
ATOM     12  H   UNL     1       5.178   4.053   2.039  0.00  0.00    -0.079 HD
ENDROOT
BRANCH  11  13
ATOM     13  C   UNL     1       6.620   4.728  -0.057  0.00  0.00    -0.044 A 
ATOM     14  C   UNL     1       7.204   5.072  -1.262  0.00  0.00    +0.007 A 
ATOM     15  C   UNL     1       8.400   5.764  -1.282  0.00  0.00    +0.049 A 
ATOM     16  C   UNL     1       9.023   6.106  -0.093  0.00  0.00    +0.158 A 
ATOM     17  C   UNL     1       8.438   5.755   1.121  0.00  0.00    +0.158 A 
ATOM     18  C   UNL     1       7.236   5.066   1.133  0.00  0.00    +0.052 A 
BRANCH  17  19
ATOM     19  O   UNL     1       9.045   6.089   2.291  0.00  0.00    -0.503 OA
ATOM     20  H   UNL     1       8.582   5.811   3.249  0.00  0.00    +0.292 HD
ENDBRANCH  17  19
BRANCH  16  21
ATOM     21  O   UNL     1      10.202   6.783  -0.111  0.00  0.00    -0.503 OA
ATOM     22  H   UNL     1      10.695   7.053   0.835  0.00  0.00    +0.292 HD
ENDBRANCH  16  21
ENDBRANCH  11  13
BRANCH   6  23
ATOM     23  C   UNL     1       1.156   3.165   0.008  0.00  0.00    -0.039 A 
ATOM     24  C   UNL     1       1.175   1.783   0.000  0.00  0.00    +0.004 A 
ATOM     25  C   UNL     1      -0.013   1.076   0.008  0.00  0.00    +0.000 A 
ATOM     26  C   UNL     1      -1.219   1.751   0.017  0.00  0.00    +0.000 A 
ATOM     27  C   UNL     1      -1.238   3.133   0.029  0.00  0.00    +0.000 A 
ATOM     28  C   UNL     1      -0.050   3.840   0.023  0.00  0.00    +0.004 A 
ENDBRANCH   6  23
BRANCH   7  29
ATOM     29  O   UNL     1       1.399   5.795  -1.143  0.00  0.00    -0.390 OA
ATOM     30  H   UNL     1       0.405   5.350  -1.299  0.00  0.00    +0.210 HD
ENDBRANCH   7  29
TORSDOF 5
