REMARK  Name = ZINC39325396
REMARK  8 active torsions:
REMARK  status: ('A' for Active; 'I' for Inactive)
REMARK    1  A    between atoms: C_1  and  C_2
REMARK    2  A    between atoms: C_4  and  C_36
REMARK    3  A    between atoms: C_7  and  C_14
REMARK    4  A    between atoms: C_14  and  N_15
REMARK    5  A    between atoms: N_15  and  C_16
REMARK    6  A    between atoms: N_15  and  S_24
REMARK    7  A    between atoms: C_16  and  C_17
REMARK    8  A    between atoms: S_24  and  C_27
REMARK                            x       y       z     vdW  Elec       q    Type
REMARK                         _______ _______ _______ _____ _____    ______ ____
ROOT
ATOM      1  N   UNL     1      -1.151  -6.502   2.760  0.00  0.00    -0.171 NA
ENDROOT
BRANCH   1   2
ATOM      2  S   UNL     1      -0.370  -7.961   2.810  0.00  0.00    +0.063 S 
ATOM      3  O   UNL     1      -0.905  -8.671   3.919  0.00  0.00    -0.153 OA
ATOM      4  O   UNL     1      -0.397  -8.481   1.488  0.00  0.00    -0.153 OA
BRANCH   2   5
ATOM      5  C   UNL     1       1.320  -7.635   3.189  0.00  0.00    +0.134 A 
ATOM      6  C   UNL     1       1.845  -8.066   4.359  0.00  0.00    +0.031 A 
ATOM      7  C   UNL     1       3.179  -7.826   4.692  0.00  0.00    +0.004 A 
ATOM      8  C   UNL     1       4.005  -7.151   3.859  0.00  0.00    +0.031 A 
ATOM      9  C   UNL     1       3.522  -6.668   2.612  0.00  0.00    +0.102 A 
ATOM     10  C   UNL     1       2.130  -6.924   2.262  0.00  0.00    +0.126 A 
ATOM     11  N   UNL     1       1.790  -6.431   1.070  0.00  0.00    -0.189 NA
ATOM     12  S   UNL     1       3.121  -5.736   0.492  0.00  0.00    +0.117 S 
ATOM     13  N   UNL     1       4.183  -5.990   1.673  0.00  0.00    -0.191 NA
ENDBRANCH   2   5
ENDBRANCH   1   2
BRANCH   1  14
ATOM     14  C   UNL     1      -1.371  -5.831   1.476  0.00  0.00    +0.126 C 
BRANCH  14  21
ATOM     15  C   UNL     1      -4.522  -8.252  -4.881  0.00  0.00    +0.044 C 
ATOM     16  C   UNL     1      -4.120  -7.483  -3.649  0.00  0.00    -0.048 A 
ATOM     17  C   UNL     1      -3.966  -6.100  -3.744  0.00  0.00    +0.007 A 
ATOM     18  C   UNL     1      -3.607  -5.353  -2.668  0.00  0.00    -0.042 A 
ATOM     19  C   UNL     1      -3.379  -6.024  -1.388  0.00  0.00    -0.004 A 
ATOM     20  C   UNL     1      -3.017  -5.315  -0.281  0.00  0.00    -0.003 C 
ATOM     21  C   UNL     1      -2.802  -6.093   1.003  0.00  0.00    +0.114 C 
ATOM     22  C   UNL     1      -3.007  -7.590   0.952  0.00  0.00    +0.225 C 
ATOM     23  O   UNL     1      -2.849  -8.262   1.953  0.00  0.00    -0.275 OA
ATOM     24  N   UNL     1      -3.360  -8.165  -0.186  0.00  0.00    -0.284 N 
ATOM     25  C   UNL     1      -3.549  -7.486  -1.317  0.00  0.00    +0.041 A 
ATOM     26  C   UNL     1      -3.929  -8.164  -2.489  0.00  0.00    +0.027 A 
ATOM     27  C   UNL     1      -3.444  -3.860  -2.791  0.00  0.00    +0.044 C 
ATOM     28  H   UNL     1      -3.486  -9.127  -0.198  0.00  0.00    +0.155 HD
ENDBRANCH  14  21
ENDBRANCH   1  14
BRANCH   1  29
ATOM     29  C   UNL     1      -1.623  -5.881   4.001  0.00  0.00    +0.144 C 
BRANCH  29  30
ATOM     30  C   UNL     1      -3.058  -6.270   4.243  0.00  0.00    -0.031 A 
ATOM     31  C   UNL     1      -4.080  -5.493   3.731  0.00  0.00    +0.008 A 
ATOM     32  C   UNL     1      -5.397  -5.849   3.953  0.00  0.00    +0.038 A 
ATOM     33  C   UNL     1      -5.692  -6.985   4.688  0.00  0.00    +0.123 A 
ATOM     34  C   UNL     1      -4.668  -7.762   5.200  0.00  0.00    +0.038 A 
ATOM     35  C   UNL     1      -3.352  -7.407   4.973  0.00  0.00    +0.008 A 
ATOM     36  F   UNL     1      -6.979  -7.333   4.905  0.00  0.00    -0.205 F 
ENDBRANCH  29  30
ENDBRANCH   1  29
TORSDOF 6
