REMARK  Name = ZINC34698891
REMARK  13 active torsions:
REMARK  status: ('A' for Active; 'I' for Inactive)
REMARK    1  A    between atoms: C_1  and  C_2
REMARK    2  A    between atoms: C_6  and  C_7
REMARK    3  A    between atoms: C_7  and  N_8
REMARK    4  A    between atoms: C_10  and  C_23
REMARK    5  A    between atoms: C_12  and  C_15
REMARK    6  A    between atoms: C_20  and  O_21
REMARK    7  A    between atoms: O_21  and  C_22
REMARK    8  A    between atoms: C_23  and  N_24
REMARK    9  A    between atoms: N_24  and  C_25
REMARK   10  A    between atoms: C_25  and  C_26
REMARK   11  A    between atoms: C_26  and  C_27
REMARK   12  A    between atoms: C_26  and  C_28
REMARK   13  A    between atoms: C_29  and  C_31
REMARK                            x       y       z     vdW  Elec       q    Type
REMARK                         _______ _______ _______ _____ _____    ______ ____
ROOT
ATOM      1  N   UNL     1      -1.413   2.130   3.245  0.00  0.00    +0.383 N 
ATOM      2  C   UNL     1      -1.661   2.010   4.705  0.00  0.00    -0.073 C 
ATOM      3  C   UNL     1      -3.202   1.875   4.793  0.00  0.00    -0.004 C 
ATOM      4  C   UNL     1      -3.697   2.829   3.683  0.00  0.00    +0.009 C 
ATOM      5  C   UNL     1      -2.505   2.978   2.719  0.00  0.00    -0.070 C 
ATOM      6  H   UNL     1      -1.440   1.220   2.811  0.00  0.00    -0.081 HD
ENDROOT
BRANCH   4   7
ATOM      7  C   UNL     1      -4.879   2.228   2.966  0.00  0.00    -0.004 A 
ATOM      8  C   UNL     1      -4.752   1.014   2.319  0.00  0.00    +0.007 A 
ATOM      9  C   UNL     1      -5.835   0.463   1.661  0.00  0.00    +0.001 A 
ATOM     10  C   UNL     1      -7.049   1.125   1.649  0.00  0.00    +0.004 A 
ATOM     11  C   UNL     1      -7.182   2.339   2.294  0.00  0.00    +0.046 A 
ATOM     12  C   UNL     1      -6.097   2.892   2.960  0.00  0.00    +0.123 A 
BRANCH  12  13
ATOM     13  O   UNL     1      -6.227   4.083   3.600  0.00  0.00    -0.495 OA
ATOM     14  C   UNL     1      -7.511   4.709   3.553  0.00  0.00    +0.277 C 
ENDBRANCH  12  13
ENDBRANCH   4   7
BRANCH   1  15
ATOM     15  C   UNL     1      -0.113   2.769   3.002  0.00  0.00    -0.035 C 
BRANCH  15  21
ATOM     16  C   UNL     1       1.098   0.551   1.256  0.00  0.00    +0.044 C 
ATOM     17  C   UNL     1       0.676   1.888   0.704  0.00  0.00    -0.042 A 
ATOM     18  C   UNL     1       0.817   2.167  -0.642  0.00  0.00    +0.011 A 
ATOM     19  C   UNL     1       0.427   3.379  -1.107  0.00  0.00    +0.045 A 
ATOM     20  S   UNL     1      -0.162   4.172   0.380  0.00  0.00    -0.103 S 
ATOM     21  C   UNL     1       0.146   2.833   1.519  0.00  0.00    -0.024 A 
ENDBRANCH  15  21
ENDBRANCH   1  15
BRANCH   3  22
ATOM     22  C   UNL     1      -3.707   2.326   6.165  0.00  0.00    +0.110 C 
BRANCH  22  23
ATOM     23  N   UNL     1      -3.222   1.401   7.193  0.00  0.00    -0.297 N 
ATOM     24  C   UNL     1      -4.036   0.442   7.675  0.00  0.00    +0.247 C 
ATOM     25  O   UNL     1      -3.639  -0.314   8.541  0.00  0.00    -0.270 OA
BRANCH  24  26
ATOM     26  C   UNL     1      -5.411   0.308   7.151  0.00  0.00    +0.037 A 
ATOM     27  C   UNL     1      -5.730   0.803   5.885  0.00  0.00    +0.016 A 
ATOM     28  C   UNL     1      -7.014   0.675   5.401  0.00  0.00    +0.039 A 
ATOM     29  C   UNL     1      -7.989   0.057   6.169  0.00  0.00    +0.123 A 
ATOM     30  C   UNL     1      -7.677  -0.436   7.427  0.00  0.00    +0.039 A 
ATOM     31  C   UNL     1      -6.395  -0.320   7.918  0.00  0.00    +0.016 A 
ATOM     32  F   UNL     1      -9.246  -0.065   5.691  0.00  0.00    -0.205 F 
ENDBRANCH  24  26
BRANCH  23  33
ATOM     33  C   UNL     1      -1.851   1.520   7.696  0.00  0.00    +0.111 C 
BRANCH  33  34
ATOM     34  C   UNL     1      -1.804   2.574   8.804  0.00  0.00    +0.000 C 
ATOM     35  C   UNL     1      -2.621   2.090  10.003  0.00  0.00    +0.009 C 
ATOM     36  C   UNL     1      -0.352   2.799   9.232  0.00  0.00    +0.009 C 
ENDBRANCH  33  34
ENDBRANCH  23  33
ENDBRANCH  22  23
ENDBRANCH   3  22
TORSDOF 9
