REMARK  Name = ZINC06300683
REMARK  7 active torsions:
REMARK  status: ('A' for Active; 'I' for Inactive)
REMARK    1  A    between atoms: C_1  and  C_2
REMARK    2  A    between atoms: C_4  and  C_39
REMARK    3  A    between atoms: C_9  and  C_14
REMARK    4  A    between atoms: C_14  and  C_16
REMARK    5  A    between atoms: C_14  and  N_71
REMARK    6  A    between atoms: N_20  and  C_21
REMARK    7  A    between atoms: C_29  and  C_32
REMARK                            x       y       z     vdW  Elec       q    Type
REMARK                         _______ _______ _______ _____ _____    ______ ____
ROOT
ATOM      1  C   UNL     1      -1.237   2.190   0.020  0.00  0.00    +0.039 C 
ENDROOT
BRANCH   1  10
ATOM      2  C   UNL     1      -3.167   5.570   6.381  0.00  0.00    +0.044 C 
ATOM      3  C   UNL     1      -3.108   4.340   5.512  0.00  0.00    -0.050 A 
ATOM      4  C   UNL     1      -3.632   3.142   5.978  0.00  0.00    +0.008 A 
ATOM      5  C   UNL     1      -3.590   2.006   5.199  0.00  0.00    -0.026 A 
ATOM      6  C   UNL     1      -3.014   2.057   3.934  0.00  0.00    +0.052 A 
ATOM      7  C   UNL     1      -2.483   3.273   3.466  0.00  0.00    -0.001 A 
ATOM      8  C   UNL     1      -2.538   4.414   4.273  0.00  0.00    +0.013 A 
ATOM      9  C   UNL     1      -1.873   3.316   2.135  0.00  0.00    +0.017 A 
ATOM     10  C   UNL     1      -1.852   2.179   1.396  0.00  0.00    +0.011 A 
ATOM     11  C   UNL     1      -2.399   0.985   1.912  0.00  0.00    +0.251 A 
ATOM     12  O   UNL     1      -2.365  -0.026   1.233  0.00  0.00    -0.268 OA
ATOM     13  N   UNL     1      -2.956   0.935   3.135  0.00  0.00    -0.322 N 
ATOM     14  H   UNL     1      -3.322   0.098   3.459  0.00  0.00    +0.169 HD
ATOM     15  C   UNL     1      -4.164   0.712   5.717  0.00  0.00    +0.046 C 
ENDBRANCH   1  10
BRANCH   1  21
ATOM     16  C   UNL     1      -1.653   1.705  -2.318  0.00  0.00    -0.072 C 
ATOM     17  C   UNL     1      -2.571   0.890  -3.232  0.00  0.00    +0.017 C 
ATOM     18  C   UNL     1      -3.996   1.327  -3.039  0.00  0.00    -0.048 C 
ATOM     19  C   UNL     1      -4.389   2.029  -1.999  0.00  0.00    -0.041 C 
ATOM     20  C   UNL     1      -3.455   2.469  -0.908  0.00  0.00    -0.049 C 
ATOM     21  N   UNL     1      -2.220   1.665  -0.955  0.00  0.00    +0.392 N 
ATOM     22  H   UNL     1      -2.443   0.693  -0.713  0.00  0.00    -0.080 HD
BRANCH  18  23
ATOM     23  C   UNL     1      -4.997   0.952  -4.059  0.00  0.00    -0.022 A 
ATOM     24  C   UNL     1      -5.315  -0.390  -4.269  0.00  0.00    +0.011 A 
ATOM     25  C   UNL     1      -6.255  -0.734  -5.218  0.00  0.00    +0.039 A 
ATOM     26  C   UNL     1      -6.874   0.250  -5.972  0.00  0.00    +0.123 A 
ATOM     27  C   UNL     1      -6.557   1.585  -5.772  0.00  0.00    +0.039 A 
ATOM     28  C   UNL     1      -5.624   1.940  -4.821  0.00  0.00    +0.011 A 
ATOM     29  F   UNL     1      -7.790  -0.092  -6.905  0.00  0.00    -0.205 F 
ENDBRANCH  18  23
ENDBRANCH   1  21
BRANCH   1  30
ATOM     30  C   UNL     1      -0.016   1.306   0.009  0.00  0.00    +0.143 A 
ATOM     31  N   UNL     1       0.002  -0.004   0.002  0.00  0.00    -0.115 NA
ATOM     32  N   UNL     1       1.233  -0.385  -0.012  0.00  0.00    -0.023 NA
ATOM     33  N   UNL     1       2.000   0.648  -0.014  0.00  0.00    -0.044 NA
ATOM     34  N   UNL     1       1.268   1.710  -0.001  0.00  0.00    -0.227 N 
BRANCH  34  35
ATOM     35  C   UNL     1       1.745   3.096   0.002  0.00  0.00    +0.111 C 
ATOM     36  C   UNL     1       2.581   3.350  -1.254  0.00  0.00    +0.027 C 
ATOM     37  C   UNL     1       3.079   4.796  -1.252  0.00  0.00    +0.002 C 
ATOM     38  C   UNL     1       3.938   5.038  -0.009  0.00  0.00    +0.000 C 
ATOM     39  C   UNL     1       3.102   4.784   1.247  0.00  0.00    +0.002 C 
ATOM     40  C   UNL     1       2.604   3.337   1.244  0.00  0.00    +0.027 C 
ENDBRANCH  34  35
ENDBRANCH   1  30
TORSDOF 5
