REMARK  Name = ZINC20916668
REMARK  12 active torsions:
REMARK  status: ('A' for Active; 'I' for Inactive)
REMARK    1  A    between atoms: C_1  and  C_2
REMARK    2  A    between atoms: C_2  and  O_3
REMARK    3  A    between atoms: O_3  and  C_4
REMARK    4  A    between atoms: C_7  and  N_10
REMARK    5  A    between atoms: C_11  and  C_13
REMARK    6  A    between atoms: C_13  and  C_14
REMARK    7  A    between atoms: C_14  and  S_15
REMARK    8  A    between atoms: S_15  and  C_16
REMARK    9  A    between atoms: N_20  and  N_21
REMARK   10  A    between atoms: N_22  and  N_23
REMARK   11  A    between atoms: C_24  and  C_25
REMARK   12  A    between atoms: C_34  and  O_35
REMARK                            x       y       z     vdW  Elec       q    Type
REMARK                         _______ _______ _______ _____ _____    ______ ____
ROOT
ATOM      1  C   UNL     1       5.588  -6.943  -0.647  0.00  0.00    +0.210 A 
ATOM      2  N   UNL     1       6.584  -6.089  -0.639  0.00  0.00    -0.119 NA
ATOM      3  N   UNL     1       7.777  -6.814  -0.757  0.00  0.00    -0.109 NA
ATOM      4  C   UNL     1       7.471  -8.086  -0.842  0.00  0.00    +0.254 A 
ATOM      5  N   UNL     1       6.109  -8.199  -0.776  0.00  0.00    -0.211 N 
ATOM      6  N   UNL     1       8.370  -9.134  -0.976  0.00  0.00    -0.204 N 
ATOM      7  H   UNL     1       8.002 -10.169  -1.039  0.00  0.00    +0.177 HD
ENDROOT
BRANCH   5   8
ATOM      8  N   UNL     1       5.396  -9.362  -0.830  0.00  0.00    -0.294 N 
ATOM      9  H   UNL     1       5.920 -10.324  -0.936  0.00  0.00    +0.163 HD
ATOM     10  H   UNL     1       4.298  -9.338  -0.768  0.00  0.00    +0.163 HD
ENDBRANCH   5   8
BRANCH   6  11
ATOM     11  N   UNL     1       9.745  -8.874  -1.030  0.00  0.00    -0.187 NA
ATOM     12  C   UNL     1      10.588  -9.856  -1.155  0.00  0.00    +0.142 C 
BRANCH  12  13
ATOM     13  C   UNL     1      12.031  -9.584  -1.212  0.00  0.00    +0.044 A 
ATOM     14  C   UNL     1      12.993 -10.676  -1.347  0.00  0.00    -0.006 A 
ATOM     15  C   UNL     1      12.576 -12.011  -1.425  0.00  0.00    +0.009 A 
ATOM     16  C   UNL     1      13.505 -13.000  -1.550  0.00  0.00    +0.001 A 
ATOM     17  C   UNL     1      14.865 -12.703  -1.600  0.00  0.00    +0.001 A 
ATOM     18  C   UNL     1      15.304 -11.415  -1.537  0.00  0.00    +0.008 A 
ATOM     19  C   UNL     1      14.374 -10.370  -1.403  0.00  0.00    -0.017 A 
ATOM     20  C   UNL     1      14.790  -9.030  -1.318  0.00  0.00    +0.012 A 
ATOM     21  C   UNL     1      13.883  -8.026  -1.188  0.00  0.00    +0.046 A 
ATOM     22  C   UNL     1      12.513  -8.277  -1.134  0.00  0.00    +0.126 A 
BRANCH  22  23
ATOM     23  O   UNL     1      11.642  -7.244  -1.003  0.00  0.00    -0.506 OA
ATOM     24  H   UNL     1      12.018  -6.212  -0.941  0.00  0.00    +0.292 HD
ENDBRANCH  22  23
ENDBRANCH  12  13
ENDBRANCH   6  11
BRANCH   1  25
ATOM     25  S   UNL     1       3.877  -6.540  -0.522  0.00  0.00    -0.084 S 
BRANCH  25  26
ATOM     26  C   UNL     1       3.862  -4.731  -0.376  0.00  0.00    +0.086 C 
BRANCH  26  27
ATOM     27  C   UNL     1       2.417  -4.241  -0.258  0.00  0.00    +0.107 C 
BRANCH  27  29
ATOM     28  N   UNL     1       1.234  -2.083  -0.020  0.00  0.00    -0.285 N 
ATOM     29  C   UNL     1       2.405  -2.739  -0.137  0.00  0.00    +0.218 C 
ATOM     30  O   UNL     1       3.449  -2.122  -0.144  0.00  0.00    -0.275 OA
ATOM     31  H   UNL     1       0.294  -2.646   0.073  0.00  0.00    +0.155 HD
BRANCH  28  35
ATOM     32  C   UNL     1       1.173   2.087  -0.017  0.00  0.00    +0.121 A 
ATOM     33  C   UNL     1       2.117   1.408  -0.773  0.00  0.00    +0.047 A 
ATOM     34  C   UNL     1       2.138   0.027  -0.775  0.00  0.00    +0.027 A 
ATOM     35  C   UNL     1       1.213  -0.681  -0.019  0.00  0.00    +0.034 A 
ATOM     36  C   UNL     1       0.269  -0.001   0.738  0.00  0.00    +0.027 A 
ATOM     37  C   UNL     1       0.249   1.379   0.739  0.00  0.00    +0.047 A 
BRANCH  32  38
ATOM     38  O   UNL     1       1.153   3.446  -0.015  0.00  0.00    -0.492 OA
BRANCH  38  40
ATOM     39  C   UNL     1       0.288   5.599   0.662  0.00  0.00    +0.048 C 
ATOM     40  C   UNL     1       0.154   4.080   0.786  0.00  0.00    +0.225 C 
ENDBRANCH  38  40
ENDBRANCH  32  38
ENDBRANCH  28  35
ENDBRANCH  27  29
ENDBRANCH  26  27
ENDBRANCH  25  26
ENDBRANCH   1  25
TORSDOF 11
