REMARK  Name = ZINC07777217
REMARK  10 active torsions:
REMARK  status: ('A' for Active; 'I' for Inactive)
REMARK    1  A    between atoms: C_1  and  C_2
REMARK    2  A    between atoms: C_2  and  N_58
REMARK    3  A    between atoms: C_6  and  C_8
REMARK    4  A    between atoms: C_8  and  N_9
REMARK    5  A    between atoms: C_10  and  C_12
REMARK    6  A    between atoms: C_15  and  N_18
REMARK    7  A    between atoms: N_18  and  C_19
REMARK    8  A    between atoms: N_18  and  S_20
REMARK    9  A    between atoms: S_20  and  C_23
REMARK   10  A    between atoms: C_26  and  C_29
REMARK                            x       y       z     vdW  Elec       q    Type
REMARK                         _______ _______ _______ _____ _____    ______ ____
ROOT
ATOM      1  C   UNL     1      -2.468   5.313   3.383  0.00  0.00    +0.037 A 
ATOM      2  C   UNL     1      -1.333   5.050   4.156  0.00  0.00    +0.015 A 
ATOM      3  C   UNL     1      -0.107   4.904   3.548  0.00  0.00    +0.025 A 
ATOM      4  C   UNL     1       0.004   5.019   2.165  0.00  0.00    +0.051 A 
ATOM      5  C   UNL     1      -1.123   5.287   1.393  0.00  0.00    +0.025 A 
ATOM      6  C   UNL     1      -2.353   5.428   1.995  0.00  0.00    +0.015 A 
ENDROOT
BRANCH   1   8
ATOM      7  N   UNL     1      -4.877   5.724   3.285  0.00  0.00    -0.313 N 
ATOM      8  C   UNL     1      -3.783   5.470   4.032  0.00  0.00    +0.244 C 
ATOM      9  O   UNL     1      -3.882   5.370   5.240  0.00  0.00    -0.270 OA
ATOM     10  H   UNL     1      -4.798   5.804   2.322  0.00  0.00    +0.149 HD
BRANCH   7  11
ATOM     11  C   UNL     1      -6.183   5.879   3.929  0.00  0.00    +0.089 C 
BRANCH  11  15
ATOM     12  C   UNL     1      -9.206   7.408   3.180  0.00  0.00    -0.078 C 
ATOM     13  C   UNL     1      -8.510   7.869   1.875  0.00  0.00    -0.020 C 
ATOM     14  C   UNL     1      -7.056   7.365   2.097  0.00  0.00    -0.016 C 
ATOM     15  C   UNL     1      -7.264   6.039   2.858  0.00  0.00    -0.051 C 
ATOM     16  N   UNL     1      -8.599   6.094   3.474  0.00  0.00    +0.382 N 
ATOM     17  H   UNL     1      -9.188   5.352   3.078  0.00  0.00    -0.081 HD
BRANCH  16  19
ATOM     18  C   UNL     1      -9.877   6.064   5.578  0.00  0.00    -0.017 C 
ATOM     19  C   UNL     1      -8.494   5.897   4.944  0.00  0.00    -0.082 C 
ENDBRANCH  16  19
ENDBRANCH  11  15
ENDBRANCH   7  11
ENDBRANCH   1   8
BRANCH   4  20
ATOM     20  N   UNL     1       1.244   4.871   1.554  0.00  0.00    -0.206 N 
ATOM     21  C   UNL     1       2.343   5.776   1.898  0.00  0.00    +0.157 C 
BRANCH  20  22
ATOM     22  S   UNL     1       1.479   3.671   0.437  0.00  0.00    +0.074 S 
ATOM     23  O   UNL     1       2.464   4.147  -0.469  0.00  0.00    -0.150 OA
ATOM     24  O   UNL     1       0.189   3.255   0.011  0.00  0.00    -0.150 OA
BRANCH  22  25
ATOM     25  C   UNL     1       2.194   2.302   1.286  0.00  0.00    +0.109 A 
ATOM     26  C   UNL     1       1.381   1.337   1.849  0.00  0.00    +0.029 A 
ATOM     27  C   UNL     1       1.942   0.263   2.514  0.00  0.00    +0.005 A 
ATOM     28  C   UNL     1       3.317   0.154   2.615  0.00  0.00    -0.050 A 
ATOM     29  C   UNL     1       4.130   1.119   2.052  0.00  0.00    +0.005 A 
ATOM     30  C   UNL     1       3.569   2.193   1.387  0.00  0.00    +0.029 A 
ATOM     31  C   UNL     1       3.929  -1.017   3.341  0.00  0.00    +0.044 C 
ENDBRANCH  22  25
ENDBRANCH  20  22
ENDBRANCH   4  20
TORSDOF 7
