REMARK  Name = ZINC35861567
REMARK  10 active torsions:
REMARK  status: ('A' for Active; 'I' for Inactive)
REMARK    1  A    between atoms: C_1  and  C_2
REMARK    2  A    between atoms: C_2  and  C_3
REMARK    3  A    between atoms: C_2  and  C_4
REMARK    4  A    between atoms: C_12  and  O_24
REMARK    5  A    between atoms: C_15  and  C_17
REMARK    6  A    between atoms: O_24  and  C_25
REMARK    7  A    between atoms: C_25  and  C_26
REMARK    8  A    between atoms: C_29  and  C_31
REMARK    9  A    between atoms: N_33  and  C_34
REMARK   10  A    between atoms: C_34  and  C_35
REMARK                            x       y       z     vdW  Elec       q    Type
REMARK                         _______ _______ _______ _____ _____    ______ ____
ROOT
ATOM      1  C   UNL     1      -1.575  -0.525  -0.809  0.00  0.00    +0.219 C 
ATOM      2  O   UNL     1      -2.549   0.197  -0.793  0.00  0.00    -0.275 OA
ATOM      3  N   UNL     1      -1.673  -1.800  -0.383  0.00  0.00    -0.290 N 
ATOM      4  C   UNL     1      -0.488  -2.667  -0.283  0.00  0.00    +0.113 C 
ATOM      5  C   UNL     1      -0.287  -3.019   1.190  0.00  0.00    +0.054 C 
ATOM      6  C   UNL     1      -1.582  -3.461   1.818  0.00  0.00    -0.040 A 
ATOM      7  C   UNL     1      -1.508  -4.207   2.989  0.00  0.00    +0.007 A 
ATOM      8  C   UNL     1      -2.654  -4.636   3.623  0.00  0.00    +0.046 A 
ATOM      9  C   UNL     1      -3.895  -4.322   3.089  0.00  0.00    +0.121 A 
ATOM     10  C   UNL     1      -3.970  -3.583   1.921  0.00  0.00    +0.051 A 
ATOM     11  C   UNL     1      -2.814  -3.157   1.283  0.00  0.00    -0.016 A 
ATOM     12  C   UNL     1      -2.965  -2.376   0.006  0.00  0.00    +0.137 C 
ENDROOT
BRANCH  12  13
ATOM     13  C   UNL     1      -3.967  -1.269   0.212  0.00  0.00    -0.022 A 
ATOM     14  C   UNL     1      -3.784  -0.353   1.231  0.00  0.00    +0.008 A 
ATOM     15  C   UNL     1      -4.702   0.663   1.420  0.00  0.00    +0.038 A 
ATOM     16  C   UNL     1      -5.804   0.763   0.589  0.00  0.00    +0.123 A 
ATOM     17  C   UNL     1      -5.986  -0.155  -0.432  0.00  0.00    +0.038 A 
ATOM     18  C   UNL     1      -5.064  -1.167  -0.623  0.00  0.00    +0.008 A 
ATOM     19  F   UNL     1      -6.702   1.755   0.773  0.00  0.00    -0.205 F 
ENDBRANCH  12  13
BRANCH   1  21
ATOM     20  C   UNL     1      -0.463   1.375  -1.952  0.00  0.00    +0.017 C 
ATOM     21  C   UNL     1      -0.254   0.003  -1.307  0.00  0.00    +0.069 C 
ATOM     22  C   UNL     1       0.718   0.135  -0.132  0.00  0.00    +0.017 C 
ENDBRANCH   1  21
BRANCH   9  23
ATOM     23  O   UNL     1      -5.031  -4.737   3.709  0.00  0.00    -0.484 OA
BRANCH  23  24
ATOM     24  C   UNL     1      -4.874  -5.495   4.910  0.00  0.00    +0.303 C 
BRANCH  24  25
ATOM     25  C   UNL     1      -6.231  -5.865   5.452  0.00  0.00    +0.143 A 
ATOM     26  C   UNL     1      -6.920  -6.988   5.150  0.00  0.00    +0.049 A 
ATOM     27  C   UNL     1      -8.126  -6.938   5.866  0.00  0.00    +0.055 A 
ATOM     28  C   UNL     1      -8.113  -5.772   6.577  0.00  0.00    +0.190 A 
ATOM     29  O   UNL     1      -6.951  -5.137   6.315  0.00  0.00    -0.452 OA
BRANCH  28  30
ATOM     30  C   UNL     1      -9.173  -5.295   7.471  0.00  0.00    +0.279 C 
ATOM     31  O   UNL     1     -10.179  -5.961   7.631  0.00  0.00    -0.267 OA
ATOM     32  N   UNL     1      -9.033  -4.120   8.116  0.00  0.00    -0.306 N 
ATOM     33  H   UNL     1      -8.231  -3.590   7.989  0.00  0.00    +0.149 HD
BRANCH  32  34
ATOM     34  C   UNL     1     -10.092  -3.644   9.009  0.00  0.00    +0.136 C 
BRANCH  34  35
ATOM     35  C   UNL     1      -9.685  -2.297   9.610  0.00  0.00    +0.135 C 
ATOM     36  C   UNL     1     -10.739  -1.845  10.644  0.00  0.00    +0.035 C 
ATOM     37  C   UNL     1     -10.825  -0.317  10.380  0.00  0.00    +0.031 C 
ATOM     38  C   UNL     1     -10.597  -0.270   8.848  0.00  0.00    +0.160 C 
ATOM     39  O   UNL     1      -9.633  -1.302   8.580  0.00  0.00    -0.375 OA
ENDBRANCH  34  35
ENDBRANCH  32  34
ENDBRANCH  28  30
ENDBRANCH  24  25
ENDBRANCH  23  24
ENDBRANCH   9  23
TORSDOF 8
