REMARK  Name = ZINC06077196
REMARK  6 active torsions:
REMARK  status: ('A' for Active; 'I' for Inactive)
REMARK    1  A    between atoms: C_1  and  C_2
REMARK    2  A    between atoms: C_2  and  C_38
REMARK    3  A    between atoms: C_6  and  C_19
REMARK    4  A    between atoms: C_22  and  O_25
REMARK    5  A    between atoms: O_25  and  C_26
REMARK    6  A    between atoms: C_26  and  C_27
REMARK                            x       y       z     vdW  Elec       q    Type
REMARK                         _______ _______ _______ _____ _____    ______ ____
ROOT
ATOM      1  C   UNL     1      -9.330  11.015  -2.142  0.00  0.00    +0.011 C 
ATOM      2  C   UNL     1      -7.863  11.140  -1.731  0.00  0.00    -0.024 C 
ATOM      3  C   UNL     1      -7.618  10.393  -0.419  0.00  0.00    +0.043 C 
ATOM      4  C   UNL     1      -7.871   8.917  -0.593  0.00  0.00    -0.029 C 
ATOM      5  C   UNL     1      -7.641   8.320  -1.794  0.00  0.00    +0.023 C 
ATOM      6  C   UNL     1      -7.865   6.839  -1.978  0.00  0.00    +0.135 C 
ATOM      7  N   UNL     1      -8.841   6.334  -1.015  0.00  0.00    -0.332 N 
ATOM      8  C   UNL     1      -8.946   6.904   0.243  0.00  0.00    +0.036 A 
ATOM      9  C   UNL     1      -8.374   8.160   0.492  0.00  0.00    +0.007 A 
ATOM     10  C   UNL     1      -8.291   8.614   1.880  0.00  0.00    -0.009 A 
ATOM     11  C   UNL     1      -7.524   9.712   2.277  0.00  0.00    +0.009 A 
ATOM     12  C   UNL     1      -7.530  10.121   3.580  0.00  0.00    +0.001 A 
ATOM     13  C   UNL     1      -8.284   9.450   4.537  0.00  0.00    +0.001 A 
ATOM     14  C   UNL     1      -9.011   8.350   4.197  0.00  0.00    +0.008 A 
ATOM     15  C   UNL     1      -8.984   7.877   2.875  0.00  0.00    -0.017 A 
ATOM     16  C   UNL     1      -9.638   6.679   2.532  0.00  0.00    +0.010 A 
ATOM     17  C   UNL     1      -9.579   6.194   1.266  0.00  0.00    +0.024 A 
ATOM     18  C   UNL     1      -7.206   9.062  -2.903  0.00  0.00    +0.162 C 
ATOM     19  O   UNL     1      -7.026   8.497  -3.965  0.00  0.00    -0.292 OA
ATOM     20  C   UNL     1      -6.960  10.542  -2.812  0.00  0.00    +0.086 C 
ATOM     21  C   UNL     1      -7.514  12.621  -1.542  0.00  0.00    +0.011 C 
ATOM     22  H   UNL     1      -9.424   5.588  -1.257  0.00  0.00    +0.147 HD
ENDROOT
BRANCH   6  23
ATOM     23  C   UNL     1      -6.557   6.107  -1.796  0.00  0.00    -0.023 A 
ATOM     24  C   UNL     1      -5.833   5.702  -2.902  0.00  0.00    +0.009 A 
ATOM     25  C   UNL     1      -4.636   5.032  -2.737  0.00  0.00    +0.046 A 
ATOM     26  C   UNL     1      -4.160   4.767  -1.462  0.00  0.00    +0.121 A 
ATOM     27  C   UNL     1      -4.891   5.170  -0.353  0.00  0.00    +0.046 A 
ATOM     28  C   UNL     1      -6.085   5.844  -0.523  0.00  0.00    +0.009 A 
BRANCH  26  29
ATOM     29  O   UNL     1      -2.983   4.108  -1.297  0.00  0.00    -0.487 OA
BRANCH  29  30
ATOM     30  C   UNL     1      -2.555   3.869   0.045  0.00  0.00    +0.268 C 
BRANCH  30  31
ATOM     31  C   UNL     1      -1.240   3.134   0.029  0.00  0.00    +0.043 A 
ATOM     32  C   UNL     1      -0.050   3.842   0.022  0.00  0.00    +0.131 A 
ATOM     33  C   UNL     1       1.158   3.165   0.007  0.00  0.00    +0.039 A 
ATOM     34  C   UNL     1       1.175   1.783   0.000  0.00  0.00    +0.004 A 
ATOM     35  C   UNL     1      -0.013   1.076   0.008  0.00  0.00    +0.020 A 
ATOM     36  C   UNL     1      -1.220   1.751   0.017  0.00  0.00    +0.050 A 
ATOM     37 CL   UNL     1      -2.712   0.862   0.020  0.00  0.00    -0.083 Cl
ATOM     38  F   UNL     1      -0.067   5.193   0.029  0.00  0.00    -0.205 F 
ENDBRANCH  30  31
ENDBRANCH  29  30
ENDBRANCH  26  29
ENDBRANCH   6  23
TORSDOF 4
