REMARK  Name = ZINC38576849
REMARK  6 active torsions:
REMARK  status: ('A' for Active; 'I' for Inactive)
REMARK    1  A    between atoms: C_1  and  C_2
REMARK    2  A    between atoms: C_6  and  S_8
REMARK    3  A    between atoms: S_8  and  C_11
REMARK    4  A    between atoms: N_23  and  N_27
REMARK    5  A    between atoms: C_24  and  N_26
REMARK    6  A    between atoms: C_28  and  C_29
REMARK                            x       y       z     vdW  Elec       q    Type
REMARK                         _______ _______ _______ _____ _____    ______ ____
ROOT
ATOM      1  C   UNL     1       1.387  -3.845   2.862  0.00  0.00    +0.224 C 
ATOM      2  C   UNL     1       2.299  -4.679   1.989  0.00  0.00    +0.111 A 
ATOM      3  C   UNL     1       2.990  -5.581   2.813  0.00  0.00    +0.166 A 
ATOM      4  N   UNL     1       3.859  -6.428   2.273  0.00  0.00    -0.227 NA
ATOM      5  C   UNL     1       4.073  -6.420   0.955  0.00  0.00    +0.091 A 
ATOM      6  C   UNL     1       4.988  -7.309   0.364  0.00  0.00    +0.030 A 
ATOM      7  C   UNL     1       5.185  -7.279  -0.983  0.00  0.00    +0.002 A 
ATOM      8  C   UNL     1       4.492  -6.378  -1.789  0.00  0.00    +0.002 A 
ATOM      9  C   UNL     1       3.599  -5.503  -1.251  0.00  0.00    +0.030 A 
ATOM     10  C   UNL     1       3.369  -5.504   0.134  0.00  0.00    +0.090 A 
ATOM     11  N   UNL     1       2.496  -4.657   0.692  0.00  0.00    -0.245 NA
ATOM     12  N   UNL     1       2.630  -5.432   4.144  0.00  0.00    -0.186 N 
ATOM     13  C   UNL     1       1.631  -4.367   4.287  0.00  0.00    +0.195 C 
ENDROOT
BRANCH   1  14
ATOM     14  S   UNL     1      -0.346  -4.092   2.385  0.00  0.00    +0.008 S 
ATOM     15  O   UNL     1      -1.176  -3.150   3.050  0.00  0.00    -0.169 OA
ATOM     16  O   UNL     1      -0.665  -5.477   2.401  0.00  0.00    -0.169 OA
BRANCH  14  22
ATOM     17  C   UNL     1      -1.052  -0.540  -1.384  0.00  0.00    +0.044 C 
ATOM     18  C   UNL     1      -0.751  -1.966  -1.000  0.00  0.00    -0.049 A 
ATOM     19  C   UNL     1      -0.531  -2.914  -1.982  0.00  0.00    +0.003 A 
ATOM     20  C   UNL     1      -0.255  -4.222  -1.630  0.00  0.00    +0.002 A 
ATOM     21  C   UNL     1      -0.198  -4.582  -0.296  0.00  0.00    +0.027 A 
ATOM     22  C   UNL     1      -0.417  -3.633   0.685  0.00  0.00    +0.089 A 
ATOM     23  C   UNL     1      -0.690  -2.324   0.333  0.00  0.00    +0.030 A 
ENDBRANCH  14  22
ENDBRANCH   1  14
BRANCH  13  24
ATOM     24  N   UNL     1       0.387  -4.910   4.849  0.00  0.00    -0.309 NA
ATOM     25  H   UNL     1       0.556  -5.358   5.737  0.00  0.00    +0.120 HD
ATOM     26  H   UNL     1      -0.315  -4.190   4.937  0.00  0.00    +0.120 HD
ENDBRANCH  13  24
BRANCH  12  27
ATOM     27  N   UNL     1       3.108  -6.129   5.119  0.00  0.00    -0.185 NA
ATOM     28  C   UNL     1       2.782  -5.837   6.356  0.00  0.00    +0.136 C 
BRANCH  28  29
ATOM     29  C   UNL     1       3.203  -6.662   7.403  0.00  0.00    +0.000 C 
ATOM     30  C   UNL     1       2.940  -6.498   8.764  0.00  0.00    +0.004 A 
ATOM     31  C   UNL     1       2.218  -5.523   9.485  0.00  0.00    +0.010 A 
ATOM     32  C   UNL     1       2.125  -5.617  10.836  0.00  0.00    +0.001 A 
ATOM     33  C   UNL     1       2.729  -6.661  11.541  0.00  0.00    +0.002 A 
ATOM     34  C   UNL     1       3.437  -7.631  10.913  0.00  0.00    +0.026 A 
ATOM     35  C   UNL     1       3.578  -7.601   9.501  0.00  0.00    +0.043 A 
ATOM     36  N   UNL     1       4.204  -8.410   8.669  0.00  0.00    -0.380 N 
ATOM     37  C   UNL     1       4.033  -7.922   7.298  0.00  0.00    +0.150 C 
ATOM     38  H   UNL     1       4.696  -9.206   8.925  0.00  0.00    +0.160 HD
ENDBRANCH  28  29
ENDBRANCH  12  27
TORSDOF 5
