REMARK  Name = ZINC01337578
REMARK  9 active torsions:
REMARK  status: ('A' for Active; 'I' for Inactive)
REMARK    1  A    between atoms: C_1  and  C_2
REMARK    2  A    between atoms: C_5  and  C_7
REMARK    3  A    between atoms: C_7  and  C_9
REMARK    4  A    between atoms: C_7  and  N_15
REMARK    5  A    between atoms: N_11  and  C_12
REMARK    6  A    between atoms: N_15  and  C_16
REMARK    7  A    between atoms: C_26  and  C_28
REMARK    8  A    between atoms: C_28  and  N_29
REMARK    9  A    between atoms: C_31  and  C_34
REMARK                            x       y       z     vdW  Elec       q    Type
REMARK                         _______ _______ _______ _____ _____    ______ ____
ROOT
ATOM      1  N   UNL     1      -1.706  -3.127   0.187  0.00  0.00    -0.249 N 
ATOM      2  C   UNL     1      -2.551  -2.114   0.462  0.00  0.00    +0.244 C 
ATOM      3  O   UNL     1      -2.120  -0.991   0.620  0.00  0.00    -0.273 OA
ENDROOT
BRANCH   1   4
ATOM      4  C   UNL     1      -0.324  -2.909   0.198  0.00  0.00    +0.056 A 
ATOM      5  C   UNL     1       0.176  -1.631   0.361  0.00  0.00    +0.035 A 
ATOM      6  C   UNL     1       1.573  -1.463   0.364  0.00  0.00    +0.002 A 
ATOM      7  C   UNL     1       2.155  -0.194   0.523  0.00  0.00    +0.010 A 
ATOM      8  C   UNL     1       3.510  -0.071   0.520  0.00  0.00    +0.001 A 
ATOM      9  C   UNL     1       4.329  -1.188   0.361  0.00  0.00    +0.002 A 
ATOM     10  C   UNL     1       3.799  -2.431   0.205  0.00  0.00    +0.028 A 
ATOM     11  C   UNL     1       2.403  -2.600   0.202  0.00  0.00    +0.071 A 
ATOM     12  N   UNL     1       1.858  -3.811   0.049  0.00  0.00    -0.253 NA
ATOM     13  C   UNL     1       0.560  -3.983   0.044  0.00  0.00    +0.135 A 
ENDBRANCH   1   4
BRANCH   1  14
ATOM     14  C   UNL     1      -2.235  -4.458  -0.123  0.00  0.00    +0.233 C 
BRANCH  14  19
ATOM     15  C   UNL     1       0.307  -6.546   3.701  0.00  0.00    +0.086 C 
ATOM     16  C   UNL     1      -0.725  -6.332   2.623  0.00  0.00    +0.102 A 
ATOM     17  C   UNL     1      -1.746  -7.160   2.336  0.00  0.00    +0.045 A 
ATOM     18  C   UNL     1      -2.461  -6.571   1.268  0.00  0.00    +0.047 A 
ATOM     19  C   UNL     1      -1.830  -5.424   0.961  0.00  0.00    +0.135 A 
ATOM     20  O   UNL     1      -0.780  -5.283   1.787  0.00  0.00    -0.462 OA
ENDBRANCH  14  19
BRANCH  14  21
ATOM     21  C   UNL     1      -1.680  -4.924  -1.444  0.00  0.00    +0.242 C 
ATOM     22  O   UNL     1      -0.849  -4.256  -2.022  0.00  0.00    -0.273 OA
ATOM     23  N   UNL     1      -2.107  -6.082  -1.984  0.00  0.00    -0.311 N 
ATOM     24  H   UNL     1      -2.772  -6.617  -1.521  0.00  0.00    +0.149 HD
BRANCH  23  25
ATOM     25  C   UNL     1      -1.568  -6.535  -3.268  0.00  0.00    +0.073 C 
ATOM     26  C   UNL     1      -2.558  -7.093  -4.293  0.00  0.00    +0.024 C 
ATOM     27  C   UNL     1      -1.602  -8.037  -3.559  0.00  0.00    +0.024 C 
ENDBRANCH  23  25
ENDBRANCH  14  21
ENDBRANCH   1  14
BRANCH   2  28
ATOM     28  C   UNL     1      -4.031  -2.375   0.572  0.00  0.00    +0.264 C 
BRANCH  28  29
ATOM     29  N   UNL     1      -4.713  -1.150   0.996  0.00  0.00    -0.154 N 
ATOM     30  N   UNL     1      -5.184  -0.248   0.205  0.00  0.00    -0.129 NA
ATOM     31  C   UNL     1      -5.724   0.699   0.949  0.00  0.00    +0.211 A 
ATOM     32  N   UNL     1      -5.555   0.325   2.227  0.00  0.00    -0.107 NA
ATOM     33  N   UNL     1      -4.940  -0.808   2.216  0.00  0.00    -0.045 NA
BRANCH  31  34
ATOM     34  C   UNL     1      -6.385   1.932   0.468  0.00  0.00    +0.060 A 
ATOM     35  C   UNL     1      -6.963   2.939   1.192  0.00  0.00    +0.019 A 
ATOM     36  C   UNL     1      -7.520   4.004   0.519  0.00  0.00    +0.008 A 
ATOM     37  C   UNL     1      -7.489   4.018  -0.838  0.00  0.00    +0.046 A 
ATOM     38  S   UNL     1      -6.643   2.490  -1.208  0.00  0.00    -0.093 S 
ENDBRANCH  31  34
ENDBRANCH  28  29
ENDBRANCH   2  28
TORSDOF 8
