REMARK  Name = ZINC22371355
REMARK  10 active torsions:
REMARK  status: ('A' for Active; 'I' for Inactive)
REMARK    1  A    between atoms: C_1  and  C_2
REMARK    2  A    between atoms: C_6  and  N_8
REMARK    3  A    between atoms: N_8  and  C_9
REMARK    4  A    between atoms: N_8  and  S_27
REMARK    5  A    between atoms: C_9  and  C_10
REMARK    6  A    between atoms: N_12  and  C_13
REMARK    7  A    between atoms: C_16  and  C_25
REMARK    8  A    between atoms: C_16  and  C_26
REMARK    9  A    between atoms: C_22  and  C_24
REMARK   10  A    between atoms: S_27  and  C_30
REMARK                            x       y       z     vdW  Elec       q    Type
REMARK                         _______ _______ _______ _____ _____    ______ ____
ROOT
ATOM      1  N   UNL     1       1.471   4.445   2.280  0.00  0.00    -0.194 N 
ENDROOT
BRANCH   1   7
ATOM      2  C   UNL     1       2.687   4.216   7.036  0.00  0.00    +0.044 C 
ATOM      3  C   UNL     1       3.019   4.573   5.610  0.00  0.00    -0.049 A 
ATOM      4  C   UNL     1       4.249   5.128   5.305  0.00  0.00    +0.003 A 
ATOM      5  C   UNL     1       4.558   5.457   3.998  0.00  0.00    +0.002 A 
ATOM      6  C   UNL     1       3.638   5.232   2.992  0.00  0.00    +0.025 A 
ATOM      7  C   UNL     1       2.403   4.674   3.294  0.00  0.00    +0.052 A 
ATOM      8  C   UNL     1       2.094   4.349   4.609  0.00  0.00    +0.028 A 
ENDBRANCH   1   7
BRANCH   1   9
ATOM      9  S   UNL     1       1.983   4.216   0.722  0.00  0.00    +0.075 S 
ATOM     10  O   UNL     1       0.972   3.459   0.069  0.00  0.00    -0.150 OA
ATOM     11  O   UNL     1       3.332   3.778   0.798  0.00  0.00    -0.150 OA
BRANCH   9  12
ATOM     12  C   UNL     1       2.009   5.796  -0.057  0.00  0.00    +0.109 A 
ATOM     13  C   UNL     1       3.184   6.524  -0.103  0.00  0.00    +0.030 A 
ATOM     14  C   UNL     1       3.206   7.764  -0.713  0.00  0.00    +0.022 A 
ATOM     15  C   UNL     1       2.051   8.277  -1.278  0.00  0.00    +0.041 A 
ATOM     16  C   UNL     1       0.876   7.548  -1.232  0.00  0.00    +0.022 A 
ATOM     17  C   UNL     1       0.856   6.308  -0.621  0.00  0.00    +0.030 A 
ATOM     18 CL   UNL     1       2.078   9.834  -2.045  0.00  0.00    -0.084 Cl
ENDBRANCH   9  12
ENDBRANCH   1   9
BRANCH   1  19
ATOM     19  C   UNL     1       0.040   4.409   2.594  0.00  0.00    +0.227 C 
BRANCH  19  20
ATOM     20  C   UNL     1      -0.344   3.017   3.026  0.00  0.00    +0.233 C 
ATOM     21  O   UNL     1       0.508   2.162   3.142  0.00  0.00    -0.274 OA
ATOM     22  N   UNL     1      -1.633   2.723   3.284  0.00  0.00    -0.307 N 
ATOM     23  H   UNL     1      -2.415   3.477   3.108  0.00  0.00    +0.149 HD
BRANCH  22  24
ATOM     24  C   UNL     1      -1.994   1.400   3.799  0.00  0.00    +0.110 C 
ATOM     25  C   UNL     1      -3.152   1.538   4.791  0.00  0.00    +0.074 C 
ATOM     26  C   UNL     1      -3.703   0.137   5.086  0.00  0.00    +0.107 C 
ATOM     27  O   UNL     1      -4.258  -0.392   3.882  0.00  0.00    -0.486 OA
ATOM     28  C   UNL     1      -3.504  -0.331   2.754  0.00  0.00    +0.126 A 
ATOM     29  C   UNL     1      -2.410   0.512   2.653  0.00  0.00    +0.015 A 
ATOM     30  C   UNL     1      -1.675   0.549   1.480  0.00  0.00    +0.009 A 
ATOM     31  C   UNL     1      -2.026  -0.253   0.412  0.00  0.00    +0.004 A 
ATOM     32  C   UNL     1      -3.115  -1.098   0.511  0.00  0.00    -0.047 A 
ATOM     33  C   UNL     1      -3.853  -1.138   1.677  0.00  0.00    +0.049 A 
ATOM     34  C   UNL     1      -3.498  -1.974  -0.654  0.00  0.00    +0.044 C 
ATOM     35  C   UNL     1      -4.789   0.226   6.160  0.00  0.00    +0.055 C 
ATOM     36  C   UNL     1      -2.571  -0.771   5.573  0.00  0.00    +0.055 C 
ENDBRANCH  22  24
ENDBRANCH  19  20
ENDBRANCH   1  19
TORSDOF 6
