REMARK  Name = ZINC10212624
REMARK  7 active torsions:
REMARK  status: ('A' for Active; 'I' for Inactive)
REMARK    1  A    between atoms: C_1  and  C_2
REMARK    2  A    between atoms: C_2  and  C_4
REMARK    3  A    between atoms: C_2  and  S_17
REMARK    4  A    between atoms: N_6  and  C_7
REMARK    5  A    between atoms: S_17  and  C_18
REMARK    6  A    between atoms: C_21  and  C_30
REMARK    7  A    between atoms: N_22  and  C_23
REMARK                            x       y       z     vdW  Elec       q    Type
REMARK                         _______ _______ _______ _____ _____    ______ ____
ROOT
ATOM      1  C   UNL     1       6.416  -4.987  -0.320  0.00  0.00    +0.197 A 
ATOM      2  N   UNL     1       7.488  -4.262  -0.088  0.00  0.00    -0.122 NA
ATOM      3  N   UNL     1       8.543  -4.988  -0.192  0.00  0.00    -0.128 NA
ATOM      4  C   UNL     1       8.212  -6.220  -0.504  0.00  0.00    +0.169 A 
ATOM      5  N   UNL     1       6.838  -6.258  -0.597  0.00  0.00    -0.270 N 
ENDROOT
BRANCH   5   6
ATOM      6  C   UNL     1       6.040  -7.368  -0.908  0.00  0.00    +0.051 A 
ATOM      7  C   UNL     1       5.933  -8.421  -0.011  0.00  0.00    +0.029 A 
ATOM      8  C   UNL     1       5.142  -9.511  -0.317  0.00  0.00    +0.040 A 
ATOM      9  C   UNL     1       4.464  -9.559  -1.524  0.00  0.00    +0.124 A 
ATOM     10  C   UNL     1       4.574  -8.511  -2.423  0.00  0.00    +0.040 A 
ATOM     11  C   UNL     1       5.360  -7.417  -2.118  0.00  0.00    +0.029 A 
ATOM     12  F   UNL     1       3.695 -10.627  -1.824  0.00  0.00    -0.205 F 
ENDBRANCH   5   6
BRANCH   4  13
ATOM     13  C   UNL     1       9.139  -7.351  -0.718  0.00  0.00    +0.020 A 
ATOM     14  C   UNL     1      10.452  -7.280  -0.250  0.00  0.00    +0.011 A 
ATOM     15  C   UNL     1      11.311  -8.341  -0.448  0.00  0.00    +0.001 A 
ATOM     16  C   UNL     1      10.876  -9.470  -1.119  0.00  0.00    +0.000 A 
ATOM     17  C   UNL     1       9.577  -9.545  -1.591  0.00  0.00    +0.001 A 
ATOM     18  C   UNL     1       8.707  -8.493  -1.395  0.00  0.00    +0.011 A 
ENDBRANCH   4  13
BRANCH   1  19
ATOM     19  S   UNL     1       4.746  -4.424  -0.287  0.00  0.00    -0.073 S 
BRANCH  19  21
ATOM     20  C   UNL     1       5.608  -2.592   1.547  0.00  0.00    +0.029 C 
ATOM     21  C   UNL     1       5.009  -2.685   0.142  0.00  0.00    +0.137 C 
BRANCH  21  22
ATOM     22  C   UNL     1       3.691  -1.955   0.108  0.00  0.00    +0.230 C 
ATOM     23  O   UNL     1       2.656  -2.564   0.276  0.00  0.00    -0.274 OA
ATOM     24  N   UNL     1       3.664  -0.625  -0.108  0.00  0.00    -0.284 N 
ATOM     25  H   UNL     1       4.484  -0.150  -0.314  0.00  0.00    +0.155 HD
BRANCH  24  26
ATOM     26  C   UNL     1       2.450   0.071  -0.037  0.00  0.00    +0.037 A 
ATOM     27  C   UNL     1       2.420   1.366   0.464  0.00  0.00    +0.027 A 
ATOM     28  C   UNL     1       1.223   2.052   0.535  0.00  0.00    +0.051 A 
ATOM     29  C   UNL     1       0.049   1.452   0.106  0.00  0.00    +0.162 A 
ATOM     30  C   UNL     1       0.076   0.157  -0.398  0.00  0.00    +0.164 A 
ATOM     31  C   UNL     1       1.277  -0.532  -0.468  0.00  0.00    +0.072 A 
ATOM     32  O   UNL     1      -1.065  -0.446  -0.831  0.00  0.00    -0.485 OA
ATOM     33  C   UNL     1      -2.302   0.132  -0.401  0.00  0.00    +0.270 C 
ATOM     34  C   UNL     1      -2.215   1.652  -0.595  0.00  0.00    +0.270 C 
ATOM     35  O   UNL     1      -1.123   2.141   0.192  0.00  0.00    -0.485 OA
ENDBRANCH  24  26
ENDBRANCH  21  22
ENDBRANCH  19  21
ENDBRANCH   1  19
TORSDOF 6
