REMARK  Name = ZINC23245952
REMARK  3 active torsions:
REMARK  status: ('A' for Active; 'I' for Inactive)
REMARK    1  A    between atoms: C_15  and  C_17
REMARK    2  A    between atoms: N_22  and  S_23
REMARK    3  A    between atoms: S_23  and  C_26
REMARK                            x       y       z     vdW  Elec       q    Type
REMARK                         _______ _______ _______ _____ _____    ______ ____
ROOT
ATOM      1  C   UNL     1      -3.970   1.480   2.429  0.00  0.00    +0.166 C 
ATOM      2  C   UNL     1      -3.942   0.325   3.452  0.00  0.00    +0.031 C 
ATOM      3  C   UNL     1      -2.549  -0.315   3.217  0.00  0.00    +0.019 C 
ATOM      4  C   UNL     1      -2.391  -0.155   1.682  0.00  0.00    +0.110 C 
ATOM      5  N   UNL     1      -2.995   1.154   1.377  0.00  0.00    -0.165 NA
ENDROOT
BRANCH   1  20
ATOM      6  C   UNL     1     -11.391   4.727   0.374  0.00  0.00    +0.001 A 
ATOM      7  C   UNL     1     -11.375   6.058   0.760  0.00  0.00    +0.002 A 
ATOM      8  C   UNL     1     -10.357   6.590   1.533  0.00  0.00    +0.026 A 
ATOM      9  C   UNL     1      -9.335   5.724   1.914  0.00  0.00    +0.047 A 
ATOM     10  C   UNL     1      -9.356   4.362   1.516  0.00  0.00    +0.005 A 
ATOM     11  C   UNL     1     -10.397   3.851   0.735  0.00  0.00    +0.010 A 
ATOM     12  C   UNL     1      -8.163   3.765   2.075  0.00  0.00    -0.002 A 
ATOM     13  C   UNL     1      -7.507   4.735   2.748  0.00  0.00    +0.023 A 
ATOM     14  N   UNL     1      -8.205   5.912   2.658  0.00  0.00    -0.358 N 
ATOM     15  H   UNL     1      -7.982   6.903   3.078  0.00  0.00    +0.166 HD
ATOM     16  C   UNL     1      -6.202   4.525   3.479  0.00  0.00    +0.072 C 
ATOM     17  C   UNL     1      -6.000   3.025   3.720  0.00  0.00    +0.114 C 
ATOM     18  N   UNL     1      -6.305   2.293   2.481  0.00  0.00    -0.295 N 
ATOM     19  C   UNL     1      -7.685   2.342   1.967  0.00  0.00    +0.145 C 
ATOM     20  C   UNL     1      -5.347   1.602   1.831  0.00  0.00    +0.235 C 
ATOM     21  O   UNL     1      -5.595   1.079   0.765  0.00  0.00    -0.274 OA
ENDBRANCH   1  20
BRANCH   5  22
ATOM     22  S   UNL     1      -2.640   2.099   0.065  0.00  0.00    +0.062 S 
ATOM     23  O   UNL     1      -3.774   2.927  -0.158  0.00  0.00    -0.153 OA
ATOM     24  O   UNL     1      -2.125   1.230  -0.934  0.00  0.00    -0.153 OA
BRANCH  22  25
ATOM     25  C   UNL     1      -1.320   3.167   0.533  0.00  0.00    +0.109 A 
ATOM     26  C   UNL     1      -1.596   4.400   1.095  0.00  0.00    +0.032 A 
ATOM     27  C   UNL     1      -0.563   5.244   1.457  0.00  0.00    +0.051 A 
ATOM     28  C   UNL     1       0.754   4.853   1.263  0.00  0.00    +0.162 A 
ATOM     29  C   UNL     1       1.031   3.610   0.706  0.00  0.00    +0.164 A 
ATOM     30  C   UNL     1      -0.010   2.769   0.343  0.00  0.00    +0.078 A 
ATOM     31  O   UNL     1       2.316   3.204   0.515  0.00  0.00    -0.485 OA
ATOM     32  C   UNL     1       3.324   4.220   0.545  0.00  0.00    +0.270 C 
ATOM     33  C   UNL     1       3.064   5.120   1.760  0.00  0.00    +0.270 C 
ATOM     34  O   UNL     1       1.761   5.697   1.620  0.00  0.00    -0.485 OA
ENDBRANCH  22  25
ENDBRANCH   5  22
TORSDOF 3
