REMARK  Name = ZINC36590839
REMARK  19 active torsions:
REMARK  status: ('A' for Active; 'I' for Inactive)
REMARK    1  A    between atoms: C_1  and  C_2
REMARK    2  A    between atoms: C_2  and  C_3
REMARK    3  A    between atoms: C_3  and  C_4
REMARK    4  A    between atoms: C_4  and  C_5
REMARK    5  A    between atoms: C_5  and  C_6
REMARK    6  A    between atoms: N_8  and  C_9
REMARK    7  A    between atoms: N_8  and  C_34
REMARK    8  A    between atoms: C_9  and  C_11
REMARK    9  A    between atoms: C_9  and  C_20
REMARK   10  A    between atoms: C_12  and  O_19
REMARK   11  A    between atoms: C_14  and  O_18
REMARK   12  A    between atoms: C_16  and  O_17
REMARK   13  A    between atoms: N_22  and  C_23
REMARK   14  A    between atoms: C_23  and  S_24
REMARK   15  A    between atoms: S_24  and  C_27
REMARK   16  A    between atoms: C_30  and  C_33
REMARK   17  A    between atoms: C_34  and  C_35
REMARK   18  A    between atoms: C_34  and  C_36
REMARK   19  A    between atoms: C_34  and  C_37
REMARK                            x       y       z     vdW  Elec       q    Type
REMARK                         _______ _______ _______ _____ _____    ______ ____
ROOT
ATOM      1  C   UNL     1       1.558  -6.868   3.652  0.00  0.00    +0.200 C 
ENDROOT
BRANCH   1   2
ATOM      2  C   UNL     1       2.908  -7.157   4.255  0.00  0.00    +0.065 A 
ATOM      3  C   UNL     1       3.198  -6.731   5.543  0.00  0.00    +0.129 A 
ATOM      4  C   UNL     1       4.441  -6.997   6.098  0.00  0.00    +0.091 A 
ATOM      5  C   UNL     1       5.394  -7.689   5.365  0.00  0.00    +0.124 A 
ATOM      6  C   UNL     1       5.104  -8.115   4.077  0.00  0.00    +0.091 A 
ATOM      7  C   UNL     1       3.859  -7.853   3.524  0.00  0.00    +0.129 A 
BRANCH   7   8
ATOM      8  O   UNL     1       3.573  -8.275   2.265  0.00  0.00    -0.506 OA
ATOM      9  H   UNL     1       3.798  -7.635   1.575  0.00  0.00    +0.292 HD
ENDBRANCH   7   8
BRANCH   5  10
ATOM     10  O   UNL     1       6.612  -7.949   5.908  0.00  0.00    -0.507 OA
ATOM     11  H   UNL     1       6.659  -8.787   6.387  0.00  0.00    +0.292 HD
ENDBRANCH   5  10
BRANCH   3  12
ATOM     12  O   UNL     1       2.265  -6.054   6.261  0.00  0.00    -0.506 OA
ATOM     13  H   UNL     1       1.740  -6.612   6.850  0.00  0.00    +0.292 HD
ENDBRANCH   3  12
ENDBRANCH   1   2
BRANCH   1  14
ATOM     14  C   UNL     1       0.477  -7.336   4.593  0.00  0.00    +0.240 C 
ATOM     15  O   UNL     1      -0.117  -6.534   5.281  0.00  0.00    -0.273 OA
ATOM     16  N   UNL     1       0.172  -8.647   4.670  0.00  0.00    -0.294 N 
ATOM     17  H   UNL     1       0.647  -9.288   4.119  0.00  0.00    +0.150 HD
BRANCH  16  18
ATOM     18  C   UNL     1      -0.878  -9.102   5.584  0.00  0.00    +0.278 C 
BRANCH  18  19
ATOM     19  S   UNL     1      -2.448  -9.232   4.685  0.00  0.00    +0.013 S 
ATOM     20  O   UNL     1      -3.464  -9.733   5.543  0.00  0.00    -0.168 OA
ATOM     21  O   UNL     1      -2.667  -8.061   3.910  0.00  0.00    -0.168 OA
BRANCH  19  22
ATOM     22  C   UNL     1      -2.188 -10.512   3.502  0.00  0.00    +0.090 A 
ATOM     23  C   UNL     1      -1.694 -10.204   2.248  0.00  0.00    +0.027 A 
ATOM     24  C   UNL     1      -1.490 -11.207   1.320  0.00  0.00    +0.005 A 
ATOM     25  C   UNL     1      -1.778 -12.519   1.645  0.00  0.00    -0.050 A 
ATOM     26  C   UNL     1      -2.272 -12.828   2.900  0.00  0.00    +0.005 A 
ATOM     27  C   UNL     1      -2.472 -11.824   3.829  0.00  0.00    +0.027 A 
ATOM     28  C   UNL     1      -1.557 -13.614   0.633  0.00  0.00    +0.044 C 
ENDBRANCH  19  22
ENDBRANCH  18  19
ENDBRANCH  16  18
ENDBRANCH   1  14
BRANCH   1  31
ATOM     29  C   UNL     1       2.405  -4.589   3.813  0.00  0.00    +0.217 C 
ATOM     30  O   UNL     1       3.458  -5.035   4.217  0.00  0.00    -0.276 OA
ATOM     31  N   UNL     1       1.420  -5.426   3.430  0.00  0.00    -0.281 N 
BRANCH  31  32
ATOM     32  C   UNL     1       0.213  -4.896   2.792  0.00  0.00    +0.030 C 
ATOM     33  C   UNL     1       0.566  -4.355   1.405  0.00  0.00    +0.031 C 
ATOM     34  C   UNL     1      -0.825  -6.011   2.656  0.00  0.00    +0.031 C 
ATOM     35  C   UNL     1      -0.362  -3.766   3.649  0.00  0.00    +0.031 C 
ENDBRANCH  31  32
BRANCH  29  36
ATOM     36  C   UNL     1       2.196  -3.098   3.738  0.00  0.00    +0.096 C 
BRANCH  36  37
ATOM     37  C   UNL     1       3.526  -2.384   3.990  0.00  0.00    +0.009 C 
BRANCH  37  38
ATOM     38  C   UNL     1       3.315  -0.871   3.914  0.00  0.00    +0.000 C 
BRANCH  38  40
ATOM     39  C   UNL     1       4.434   1.356   4.090  0.00  0.00    +0.004 C 
ATOM     40  C   UNL     1       4.645  -0.157   4.166  0.00  0.00    -0.003 C 
ENDBRANCH  38  40
ENDBRANCH  37  38
ENDBRANCH  36  37
ENDBRANCH  29  36
ENDBRANCH   1  31
TORSDOF 14
