REMARK  Name = ZINC16136551
REMARK  4 active torsions:
REMARK  status: ('A' for Active; 'I' for Inactive)
REMARK    1  A    between atoms: C_1  and  C_2
REMARK    2  A    between atoms: C_2  and  C_5
REMARK    3  A    between atoms: N_3  and  N_4
REMARK    4  A    between atoms: N_13  and  C_16
REMARK                            x       y       z     vdW  Elec       q    Type
REMARK                         _______ _______ _______ _____ _____    ______ ____
ROOT
ATOM      1  C   UNL     1       0.026  -0.669  -1.311  0.00  0.00    +0.109 A 
ATOM      2  C   UNL     1      -0.007  -2.084  -1.409  0.00  0.00    +0.202 A 
ATOM      3  C   UNL     1       0.018  -2.684  -2.754  0.00  0.00    +0.046 A 
ATOM      4  C   UNL     1      -0.013  -4.068  -2.928  0.00  0.00    +0.014 A 
ATOM      5  C   UNL     1       0.010  -4.594  -4.189  0.00  0.00    +0.001 A 
ATOM      6  C   UNL     1       0.064  -3.762  -5.298  0.00  0.00    +0.002 A 
ATOM      7  C   UNL     1       0.096  -2.393  -5.149  0.00  0.00    +0.026 A 
ATOM      8  C   UNL     1       0.072  -1.836  -3.873  0.00  0.00    +0.055 A 
ATOM      9  N   UNL     1       0.102  -0.468  -3.700  0.00  0.00    -0.310 N 
ATOM     10  C   UNL     1       0.074   0.097  -2.468  0.00  0.00    +0.264 A 
ATOM     11  O   UNL     1       0.100   1.442  -2.362  0.00  0.00    -0.267 OA
ATOM     12  C   UNL     1       0.159   0.399  -4.880  0.00  0.00    +0.152 C 
ATOM     13  O   UNL     1      -0.053  -2.783  -0.409  0.00  0.00    -0.286 OA
ENDROOT
BRANCH   1  15
ATOM     14  C   UNL     1       1.295   0.385   0.674  0.00  0.00    +0.068 C 
ATOM     15  C   UNL     1       0.003  -0.017   0.009  0.00  0.00    +0.072 C 
ATOM     16  N   UNL     1      -1.129   0.212   0.601  0.00  0.00    -0.194 NA
BRANCH  16  17
ATOM     17  N   UNL     1      -2.323  -0.249   0.031  0.00  0.00    -0.282 N 
ATOM     18  H   UNL     1      -3.159  -0.152   0.512  0.00  0.00    +0.164 HD
ATOM     19  H   UNL     1      -2.313  -0.667  -0.845  0.00  0.00    +0.164 HD
ENDBRANCH  16  17
ENDBRANCH   1  15
TORSDOF 2
