REMARK  Name = ZINC37425502
REMARK  13 active torsions:
REMARK  status: ('A' for Active; 'I' for Inactive)
REMARK    1  A    between atoms: C_1  and  C_2
REMARK    2  A    between atoms: C_2  and  C_3
REMARK    3  A    between atoms: C_3  and  N_4
REMARK    4  A    between atoms: C_5  and  C_7
REMARK    5  A    between atoms: C_7  and  N_8
REMARK    6  A    between atoms: C_11  and  C_22
REMARK    7  A    between atoms: N_13  and  C_14
REMARK    8  A    between atoms: C_18  and  C_21
REMARK    9  A    between atoms: C_19  and  C_20
REMARK   10  A    between atoms: C_22  and  C_23
REMARK   11  A    between atoms: C_22  and  C_24
REMARK   12  A    between atoms: C_22  and  C_25
REMARK   13  A    between atoms: C_26  and  C_32
REMARK                            x       y       z     vdW  Elec       q    Type
REMARK                         _______ _______ _______ _____ _____    ______ ____
ROOT
ATOM      1  N   UNL     1       2.152 -10.198  -3.632  0.00  0.00    -0.246 N 
ATOM      2  C   UNL     1       1.831  -9.071  -4.402  0.00  0.00    +0.136 A 
ATOM      3  C   UNL     1       1.616  -9.107  -5.737  0.00  0.00    +0.034 A 
ATOM      4  C   UNL     1       1.330  -7.809  -6.161  0.00  0.00    +0.075 A 
ATOM      5  N   UNL     1       1.369  -7.018  -5.116  0.00  0.00    -0.169 NA
ATOM      6  N   UNL     1       1.682  -7.791  -3.986  0.00  0.00    -0.217 N 
ATOM      7  C   UNL     1       1.677 -10.352  -6.585  0.00  0.00    +0.112 C 
ATOM      8  S   UNL     1       3.429 -10.839  -6.781  0.00  0.00    -0.138 S 
ATOM      9  C   UNL     1       4.091 -10.540  -5.108  0.00  0.00    +0.166 C 
ATOM     10  C   UNL     1       3.128 -11.006  -4.060  0.00  0.00    +0.231 C 
ATOM     11  O   UNL     1       3.232 -12.123  -3.600  0.00  0.00    -0.274 OA
ENDROOT
BRANCH   6  12
ATOM     12  C   UNL     1       1.815  -7.324  -2.671  0.00  0.00    +0.071 A 
ATOM     13  C   UNL     1       3.077  -7.136  -2.124  0.00  0.00    +0.028 A 
ATOM     14  C   UNL     1       3.205  -6.676  -0.829  0.00  0.00    +0.002 A 
ATOM     15  C   UNL     1       2.078  -6.403  -0.076  0.00  0.00    +0.004 A 
ATOM     16  C   UNL     1       0.819  -6.589  -0.618  0.00  0.00    -0.046 A 
ATOM     17  C   UNL     1       0.685  -7.043  -1.915  0.00  0.00    -0.022 A 
ATOM     18  C   UNL     1      -0.687  -7.240  -2.507  0.00  0.00    +0.046 C 
ATOM     19  C   UNL     1      -0.407  -6.291   0.206  0.00  0.00    +0.044 C 
ENDBRANCH   6  12
BRANCH   7  20
ATOM     20  C   UNL     1       1.071 -10.073  -7.937  0.00  0.00    -0.023 A 
ATOM     21  C   UNL     1      -0.300 -10.084  -8.107  0.00  0.00    +0.012 A 
ATOM     22  C   UNL     1      -0.812  -9.829  -9.336  0.00  0.00    +0.045 A 
ATOM     23  S   UNL     1       0.664  -9.563 -10.303  0.00  0.00    -0.105 S 
ATOM     24  C   UNL     1       1.864  -9.803  -9.003  0.00  0.00    +0.050 A 
ENDBRANCH   7  20
BRANCH   4  25
ATOM     25  C   UNL     1       1.029  -7.387  -7.577  0.00  0.00    +0.007 C 
ATOM     26  C   UNL     1      -0.406  -7.782  -7.932  0.00  0.00    +0.017 C 
ATOM     27  C   UNL     1       1.187  -5.871  -7.702  0.00  0.00    +0.017 C 
ATOM     28  C   UNL     1       2.001  -8.082  -8.533  0.00  0.00    +0.017 C 
ENDBRANCH   4  25
BRANCH   1  29
ATOM     29  C   UNL     1       1.439 -10.481  -2.384  0.00  0.00    +0.210 C 
BRANCH  29  31
ATOM     30  N   UNL     1      -0.581 -11.729  -1.690  0.00  0.00    -0.314 N 
ATOM     31  C   UNL     1       0.320 -11.454  -2.654  0.00  0.00    +0.231 C 
ATOM     32  O   UNL     1       0.230 -11.988  -3.739  0.00  0.00    -0.274 OA
ATOM     33  H   UNL     1      -0.577 -11.222  -0.863  0.00  0.00    +0.149 HD
BRANCH  30  34
ATOM     34  C   UNL     1      -1.565 -12.795  -1.890  0.00  0.00    +0.104 C 
BRANCH  34  36
ATOM     35  C   UNL     1      -3.417 -14.090  -0.823  0.00  0.00    +0.005 C 
ATOM     36  C   UNL     1      -2.388 -12.977  -0.613  0.00  0.00    +0.015 C 
ENDBRANCH  34  36
ENDBRANCH  30  34
ENDBRANCH  29  31
ENDBRANCH   1  29
TORSDOF 7
