REMARK  Name = ZINC14130728
REMARK  6 active torsions:
REMARK  status: ('A' for Active; 'I' for Inactive)
REMARK    1  A    between atoms: C_1  and  O_2
REMARK    2  A    between atoms: O_2  and  C_3
REMARK    3  A    between atoms: C_4  and  N_11
REMARK    4  A    between atoms: C_12  and  C_14
REMARK    5  A    between atoms: N_17  and  C_20
REMARK    6  A    between atoms: C_25  and  N_26
REMARK                            x       y       z     vdW  Elec       q    Type
REMARK                         _______ _______ _______ _____ _____    ______ ____
ROOT
ATOM      1  C   UNL     1       3.743  -0.967   0.176  0.00  0.00    +0.078 C 
ATOM      2  C   UNL     1       4.581  -0.675  -1.072  0.00  0.00    +0.031 C 
ATOM      3  C   UNL     1       5.891  -1.463  -0.996  0.00  0.00    +0.106 C 
ATOM      4  N   UNL     1       5.596  -2.899  -0.906  0.00  0.00    -0.328 N 
ATOM      5  C   UNL     1       4.833  -3.209   0.309  0.00  0.00    +0.106 C 
ATOM      6  C   UNL     1       3.491  -2.474   0.272  0.00  0.00    +0.031 C 
ENDROOT
BRANCH   4   7
ATOM      7  C   UNL     1       6.769  -3.655  -0.968  0.00  0.00    +0.060 A 
ATOM      8  C   UNL     1       7.725  -3.540   0.033  0.00  0.00    +0.025 A 
ATOM      9  C   UNL     1       8.880  -4.294  -0.028  0.00  0.00    +0.002 A 
ATOM     10  C   UNL     1       9.091  -5.154  -1.090  0.00  0.00    +0.002 A 
ATOM     11  C   UNL     1       8.144  -5.267  -2.091  0.00  0.00    +0.034 A 
ATOM     12  C   UNL     1       6.984  -4.521  -2.033  0.00  0.00    +0.147 A 
BRANCH  12  13
ATOM     13  N   UNL     1       5.970  -4.642  -3.105  0.00  0.00    +0.058 N 
ATOM     14  O   UNL     1       6.160  -5.400  -4.039  0.00  0.00    -0.126 OA
ATOM     15  O   UNL     1       4.947  -3.982  -3.054  0.00  0.00    -0.126 OA
ENDBRANCH  12  13
ENDBRANCH   4   7
BRANCH   1  17
ATOM     16  N   UNL     1       2.403   1.103  -0.015  0.00  0.00    -0.282 N 
ATOM     17  C   UNL     1       2.426  -0.241   0.079  0.00  0.00    +0.220 C 
ATOM     18  O   UNL     1       1.387  -0.866   0.086  0.00  0.00    -0.275 OA
ATOM     19  H   UNL     1       3.233   1.598  -0.101  0.00  0.00    +0.155 HD
BRANCH  16  21
ATOM     20  C   UNL     1       1.069   3.043  -0.580  0.00  0.00    +0.155 A 
ATOM     21  C   UNL     1       1.180   1.786   0.011  0.00  0.00    +0.078 A 
ATOM     22  C   UNL     1       0.076   1.213   0.626  0.00  0.00    +0.047 A 
ATOM     23  C   UNL     1      -1.132   1.886   0.646  0.00  0.00    +0.044 A 
ATOM     24  C   UNL     1      -1.240   3.137   0.064  0.00  0.00    +0.039 A 
ATOM     25  C   UNL     1      -0.143   3.714  -0.551  0.00  0.00    +0.063 A 
ATOM     26 BR   UNL     1      -0.298   5.420  -1.352  0.00  0.00    -0.046 Br
ATOM     27 CL   UNL     1      -2.513   1.164   1.410  0.00  0.00    -0.083 Cl
BRANCH  20  29
ATOM     28  C   UNL     1       2.334   3.333  -2.572  0.00  0.00    +0.277 C 
ATOM     29  O   UNL     1       2.148   3.610  -1.183  0.00  0.00    -0.492 OA
ENDBRANCH  20  29
ENDBRANCH  16  21
ENDBRANCH   1  17
TORSDOF 5
