REMARK  Name = ZINC03345852
REMARK  14 active torsions:
REMARK  status: ('A' for Active; 'I' for Inactive)
REMARK    1  A    between atoms: C_1  and  C_2
REMARK    2  A    between atoms: C_2  and  O_3
REMARK    3  A    between atoms: O_3  and  C_4
REMARK    4  A    between atoms: C_4  and  C_6
REMARK    5  A    between atoms: C_10  and  N_11
REMARK    6  A    between atoms: C_12  and  C_14
REMARK    7  A    between atoms: C_14  and  C_16
REMARK    8  A    between atoms: C_14  and  O_17
REMARK    9  A    between atoms: O_17  and  C_18
REMARK   10  A    between atoms: C_18  and  C_20
REMARK   11  A    between atoms: C_20  and  O_21
REMARK   12  A    between atoms: O_21  and  C_22
REMARK   13  A    between atoms: C_26  and  C_28
REMARK   14  A    between atoms: C_31  and  C_35
REMARK                            x       y       z     vdW  Elec       q    Type
REMARK                         _______ _______ _______ _____ _____    ______ ____
ROOT
ATOM      1  N   UNL     1      -2.307  -5.916   0.763  0.00  0.00    -0.276 N 
ATOM      2  C   UNL     1      -3.571  -6.203   0.396  0.00  0.00    +0.258 C 
ATOM      3  O   UNL     1      -4.299  -5.323  -0.012  0.00  0.00    -0.271 OA
ATOM      4  H   UNL     1      -1.725  -6.620   1.090  0.00  0.00    +0.155 HD
ENDROOT
BRANCH   1   9
ATOM      5  C   UNL     1      -0.579  -4.127   0.999  0.00  0.00    +0.091 A 
ATOM      6  C   UNL     1      -0.341  -2.706   0.809  0.00  0.00    -0.021 A 
ATOM      7  C   UNL     1      -1.390  -2.006   0.327  0.00  0.00    -0.004 A 
ATOM      8  S   UNL     1      -2.678  -3.203   0.124  0.00  0.00    -0.077 S 
ATOM      9  C   UNL     1      -1.837  -4.615   0.672  0.00  0.00    +0.086 A 
ATOM     10  C   UNL     1      -1.437  -0.538   0.031  0.00  0.00    +0.046 C 
ATOM     11  C   UNL     1       0.002  -0.004   0.002  0.00  0.00    -0.009 C 
ATOM     12  C   UNL     1       0.742  -0.514   1.242  0.00  0.00    +0.008 C 
ATOM     13  C   UNL     1       0.984  -2.020   1.121  0.00  0.00    +0.037 C 
ATOM     14  C   UNL     1      -0.019   1.526   0.010  0.00  0.00    +0.008 C 
BRANCH   5  15
ATOM     15  C   UNL     1       0.468  -5.011   1.515  0.00  0.00    +0.342 C 
ATOM     16  O   UNL     1       0.576  -5.191   2.713  0.00  0.00    -0.245 OA
BRANCH  15  17
ATOM     17  O   UNL     1       1.314  -5.624   0.662  0.00  0.00    -0.461 OA
BRANCH  17  19
ATOM     18  C   UNL     1       3.185  -7.089   0.130  0.00  0.00    +0.048 C 
ATOM     19  C   UNL     1       2.327  -6.486   1.244  0.00  0.00    +0.229 C 
ENDBRANCH  17  19
ENDBRANCH  15  17
ENDBRANCH   5  15
ENDBRANCH   1   9
BRANCH   2  20
ATOM     20  C   UNL     1      -4.082  -7.618   0.495  0.00  0.00    +0.259 C 
ATOM     21  C   UNL     1      -3.306  -8.508  -0.479  0.00  0.00    +0.062 C 
BRANCH  20  22
ATOM     22  O   UNL     1      -5.494  -7.648   0.158  0.00  0.00    -0.450 OA
BRANCH  22  23
ATOM     23  C   UNL     1      -6.241  -8.594   0.748  0.00  0.00    +0.346 C 
ATOM     24  O   UNL     1      -5.732  -9.372   1.520  0.00  0.00    -0.247 OA
BRANCH  23  25
ATOM     25  C   UNL     1      -7.715  -8.686   0.447  0.00  0.00    +0.349 C 
BRANCH  25  26
ATOM     26  O   UNL     1      -8.286  -9.765   1.191  0.00  0.00    -0.481 OA
BRANCH  26  27
ATOM     27  C   UNL     1      -9.618  -9.986   1.033  0.00  0.00    +0.122 A 
ATOM     28  C   UNL     1     -10.360  -9.178   0.184  0.00  0.00    +0.047 A 
ATOM     29  C   UNL     1     -11.712  -9.407   0.022  0.00  0.00    +0.024 A 
ATOM     30  C   UNL     1     -12.329 -10.436   0.713  0.00  0.00    +0.044 A 
ATOM     31  C   UNL     1     -11.591 -11.239   1.564  0.00  0.00    -0.029 A 
ATOM     32  C   UNL     1     -10.237 -11.016   1.725  0.00  0.00    +0.050 A 
ATOM     33  C   UNL     1     -12.265 -12.359   2.315  0.00  0.00    +0.045 C 
ATOM     34 CL   UNL     1     -14.030 -10.718   0.511  0.00  0.00    -0.083 Cl
ENDBRANCH  26  27
ENDBRANCH  25  26
ENDBRANCH  23  25
ENDBRANCH  22  23
ENDBRANCH  20  22
ENDBRANCH   2  20
TORSDOF 10
