REMARK  Name = ZINC39960893
REMARK  6 active torsions:
REMARK  status: ('A' for Active; 'I' for Inactive)
REMARK    1  A    between atoms: C_1  and  C_2
REMARK    2  A    between atoms: C_2  and  C_3
REMARK    3  A    between atoms: C_3  and  C_5
REMARK    4  A    between atoms: C_3  and  S_19
REMARK    5  A    between atoms: C_10  and  C_13
REMARK    6  A    between atoms: S_19  and  C_20
REMARK                            x       y       z     vdW  Elec       q    Type
REMARK                         _______ _______ _______ _____ _____    ______ ____
ROOT
ATOM      1  C   UNL     1      -1.421  -0.547   0.146  0.00  0.00    +0.140 C 
ENDROOT
BRANCH   1   2
ATOM      2  C   UNL     1      -1.229  -2.040   0.225  0.00  0.00    +0.232 C 
ATOM      3  O   UNL     1      -1.193  -2.591   1.305  0.00  0.00    -0.274 OA
ATOM      4  N   UNL     1      -1.095  -2.763  -0.905  0.00  0.00    -0.264 N 
ATOM      5  C   UNL     1      -0.918  -4.139  -0.832  0.00  0.00    +0.165 A 
ATOM      6  N   UNL     1      -0.765  -5.014  -1.808  0.00  0.00    -0.225 NA
ATOM      7  C   UNL     1      -0.605  -6.305  -1.556  0.00  0.00    +0.080 A 
ATOM      8  C   UNL     1      -0.598  -6.739  -0.260  0.00  0.00    +0.076 A 
ATOM      9  S   UNL     1      -0.829  -5.193   0.609  0.00  0.00    -0.060 S 
ATOM     10  H   UNL     1      -1.124  -2.322  -1.768  0.00  0.00    +0.157 HD
BRANCH   7  11
ATOM     11  C   UNL     1      -0.435  -7.269  -2.670  0.00  0.00    +0.001 A 
ATOM     12  C   UNL     1      -0.273  -8.627  -2.401  0.00  0.00    +0.010 A 
ATOM     13  C   UNL     1      -0.116  -9.520  -3.441  0.00  0.00    +0.001 A 
ATOM     14  C   UNL     1      -0.117  -9.070  -4.749  0.00  0.00    +0.000 A 
ATOM     15  C   UNL     1      -0.277  -7.723  -5.022  0.00  0.00    +0.001 A 
ATOM     16  C   UNL     1      -0.442  -6.822  -3.990  0.00  0.00    +0.010 A 
ENDBRANCH   7  11
ENDBRANCH   1   2
BRANCH   1  18
ATOM     17  C   UNL     1      -0.279   1.629  -0.302  0.00  0.00    +0.005 C 
ATOM     18  C   UNL     1      -0.068   0.130  -0.083  0.00  0.00    +0.020 C 
ENDBRANCH   1  18
BRANCH   1  19
ATOM     19  S   UNL     1      -2.143   0.052   1.699  0.00  0.00    -0.072 S 
BRANCH  19  20
ATOM     20  C   UNL     1      -3.766  -0.634   1.707  0.00  0.00    +0.208 C 
ATOM     21  N   UNL     1      -4.164  -1.293   0.645  0.00  0.00    -0.227 NA
ATOM     22  C   UNL     1      -5.537  -1.790   0.629  0.00  0.00    +0.252 C 
ATOM     23  C   UNL     1      -5.922  -2.032   2.082  0.00  0.00    +0.117 C 
ATOM     24  C   UNL     1      -6.458  -3.283   2.115  0.00  0.00    +0.025 A 
ATOM     25  C   UNL     1      -7.089  -4.021   3.147  0.00  0.00    +0.012 A 
ATOM     26  C   UNL     1      -7.507  -5.281   2.849  0.00  0.00    +0.001 A 
ATOM     27  C   UNL     1      -7.353  -5.885   1.598  0.00  0.00    +0.002 A 
ATOM     28  C   UNL     1      -6.770  -5.270   0.535  0.00  0.00    +0.026 A 
ATOM     29  C   UNL     1      -6.291  -3.896   0.761  0.00  0.00    +0.046 A 
ATOM     30  N   UNL     1      -5.721  -3.063  -0.054  0.00  0.00    -0.358 N 
ATOM     31  N   UNL     1      -5.595  -1.158   3.040  0.00  0.00    -0.147 NA
ATOM     32  N   UNL     1      -4.529  -0.455   2.813  0.00  0.00    -0.122 NA
ATOM     33  H   UNL     1      -5.460  -3.256  -0.968  0.00  0.00    +0.162 HD
ENDBRANCH  19  20
ENDBRANCH   1  19
TORSDOF 5
