REMARK  Name = ZINC06205177
REMARK  6 active torsions:
REMARK  status: ('A' for Active; 'I' for Inactive)
REMARK    1  A    between atoms: C_1  and  C_2
REMARK    2  A    between atoms: C_5  and  C_8
REMARK    3  A    between atoms: C_11  and  C_29
REMARK    4  A    between atoms: C_15  and  C_18
REMARK    5  A    between atoms: C_18  and  O_20
REMARK    6  A    between atoms: O_20  and  N_21
REMARK                            x       y       z     vdW  Elec       q    Type
REMARK                         _______ _______ _______ _____ _____    ______ ____
ROOT
ATOM      1  C   UNL     1       0.059  -4.275  -0.021  0.00  0.00    +0.104 C 
ATOM      2  C   UNL     1      -1.352  -4.810   0.244  0.00  0.00    +0.059 C 
ATOM      3  C   UNL     1      -1.872  -4.263   1.579  0.00  0.00    +0.177 C 
ATOM      4  N   UNL     1      -0.851  -4.479   2.609  0.00  0.00    -0.241 N 
ATOM      5  C   UNL     1       0.455  -4.712   2.334  0.00  0.00    +0.132 A 
ATOM      6  C   UNL     1       1.114  -4.868   3.540  0.00  0.00    +0.120 A 
ATOM      7  C   UNL     1       0.140  -4.715   4.560  0.00  0.00    +0.151 A 
ATOM      8  N   UNL     1      -1.013  -4.486   3.993  0.00  0.00    -0.177 NA
ATOM      9  N   UNL     1       0.958  -4.766   1.042  0.00  0.00    -0.322 N 
ATOM     10  H   UNL     1       1.845  -5.107   0.847  0.00  0.00    +0.148 HD
ENDROOT
BRANCH   1  15
ATOM     11  C   UNL     1      -0.018   1.503   0.010  0.00  0.00    +0.044 C 
ATOM     12  C   UNL     1       0.002  -0.004   0.002  0.00  0.00    -0.050 A 
ATOM     13  C   UNL     1       0.006  -0.689  -1.199  0.00  0.00    +0.004 A 
ATOM     14  C   UNL     1       0.025  -2.071  -1.206  0.00  0.00    +0.006 A 
ATOM     15  C   UNL     1       0.040  -2.768  -0.013  0.00  0.00    -0.027 A 
ATOM     16  C   UNL     1       0.037  -2.084   1.188  0.00  0.00    +0.006 A 
ATOM     17  C   UNL     1       0.023  -0.702   1.195  0.00  0.00    +0.004 A 
ENDBRANCH   1  15
BRANCH   3  18
ATOM     18  C   UNL     1      -3.158  -4.996   1.967  0.00  0.00    +0.365 C 
ATOM     19  F   UNL     1      -3.630  -4.496   3.185  0.00  0.00    -0.207 F 
ATOM     20  F   UNL     1      -4.125  -4.799   0.976  0.00  0.00    -0.207 F 
ENDBRANCH   3  18
BRANCH   6  21
ATOM     21  C   UNL     1       2.542  -5.139   3.728  0.00  0.00    +0.371 C 
ATOM     22  O   UNL     1       3.273  -5.248   2.761  0.00  0.00    -0.242 OA
BRANCH  21  23
ATOM     23  O   UNL     1       3.047  -5.267   4.971  0.00  0.00    -0.312 OA
BRANCH  23  24
ATOM     24  N   UNL     1       4.438  -5.527   5.005  0.00  0.00    -0.083 NA
ATOM     25  C   UNL     1       5.036  -5.669   6.127  0.00  0.00    +0.058 C 
ATOM     26  C   UNL     1       4.274  -5.569   7.430  0.00  0.00    +0.054 C 
ATOM     27  C   UNL     1       4.592  -6.806   8.276  0.00  0.00    +0.006 C 
ATOM     28  C   UNL     1       6.107  -6.933   8.441  0.00  0.00    +0.001 C 
ATOM     29  C   UNL     1       6.759  -7.165   7.077  0.00  0.00    +0.006 C 
ATOM     30  C   UNL     1       6.522  -5.947   6.185  0.00  0.00    +0.054 C 
ENDBRANCH  23  24
ENDBRANCH  21  23
ENDBRANCH   6  21
TORSDOF 5
