REMARK  Name = ZINC09232876
REMARK  4 active torsions:
REMARK  status: ('A' for Active; 'I' for Inactive)
REMARK    1  A    between atoms: C_1  and  C_2
REMARK    2  A    between atoms: N_27  and  C_30
REMARK    3  A    between atoms: C_30  and  C_31
REMARK    4  A    between atoms: C_31  and  C_32
REMARK                            x       y       z     vdW  Elec       q    Type
REMARK                         _______ _______ _______ _____ _____    ______ ____
ROOT
ATOM      1  C   UNL     1      -0.018   1.503   0.010  0.00  0.00    +0.047 C 
ATOM      2  C   UNL     1       0.002  -0.004   0.002  0.00  0.00    -0.009 A 
ATOM      3  C   UNL     1       0.006  -0.684  -1.178  0.00  0.00    +0.008 A 
ATOM      4  C   UNL     1       0.028  -2.087  -1.168  0.00  0.00    +0.019 A 
ATOM      5  C   UNL     1       0.045  -2.757   0.005  0.00  0.00    +0.096 A 
ATOM      6  N   UNL     1       0.038  -2.087   1.192  0.00  0.00    -0.269 N 
ATOM      7  C   UNL     1       0.023  -0.720   1.214  0.00  0.00    +0.122 A 
ATOM      8  N   UNL     1       0.021  -0.055   2.366  0.00  0.00    -0.329 N 
ATOM      9  C   UNL     1       0.033  -0.695   3.533  0.00  0.00    +0.109 A 
ATOM     10  C   UNL     1       0.053  -2.087   3.558  0.00  0.00    +0.057 A 
ATOM     11  C   UNL     1       0.051  -2.781   2.350  0.00  0.00    +0.263 A 
ATOM     12  O   UNL     1       0.075  -4.003   2.339  0.00  0.00    -0.267 OA
ATOM     13  C   UNL     1       0.059  -2.843   4.858  0.00  0.00    +0.071 C 
ATOM     14  C   UNL     1       0.591  -1.966   5.994  0.00  0.00    +0.146 C 
ATOM     15  C   UNL     1      -0.173  -0.631   5.993  0.00  0.00    +0.099 C 
ATOM     16  N   UNL     1       0.022   0.007   4.714  0.00  0.00    -0.312 N 
ATOM     17  C   UNL     1       0.220   1.498   4.706  0.00  0.00    +0.107 C 
ATOM     18  C   UNL     1      -1.045   2.035   5.243  0.00  0.00    +0.019 C 
ATOM     19  C   UNL     1      -1.442   1.521   6.614  0.00  0.00    +0.002 C 
ATOM     20  C   UNL     1      -2.384   0.426   6.214  0.00  0.00    +0.002 C 
ATOM     21  C   UNL     1      -1.664  -0.961   6.375  0.00  0.00    +0.024 C 
ATOM     22  C   UNL     1       0.375  -2.657   7.310  0.00  0.00    +0.238 C 
ATOM     23  O   UNL     1      -0.752  -2.963   7.635  0.00  0.00    -0.274 OA
ATOM     24  N   UNL     1       1.391  -2.945   8.135  0.00  0.00    -0.239 N 
ATOM     25  C   UNL     1       2.662  -2.639   7.830  0.00  0.00    +0.315 C 
ATOM     26  N   UNL     1       2.982  -2.031   6.678  0.00  0.00    -0.224 N 
ATOM     27  C   UNL     1       2.053  -1.692   5.774  0.00  0.00    +0.240 C 
ATOM     28  O   UNL     1       2.401  -1.147   4.748  0.00  0.00    -0.274 OA
ATOM     29  O   UNL     1       3.544  -2.919   8.618  0.00  0.00    -0.252 OA
ATOM     30  H   UNL     1       1.203  -3.389   8.976  0.00  0.00    +0.159 HD
ATOM     31  H   UNL     1       0.012   0.915   2.356  0.00  0.00    +0.168 HD
ENDROOT
BRANCH  26  32
ATOM     32  C   UNL     1       4.388  -1.729   6.400  0.00  0.00    +0.122 C 
BRANCH  32  33
ATOM     33  C   UNL     1       5.028  -2.909   5.667  0.00  0.00    +0.054 C 
BRANCH  33  34
ATOM     34  C   UNL     1       6.474  -2.599   5.381  0.00  0.00    -0.046 A 
ATOM     35  C   UNL     1       6.826  -1.968   4.202  0.00  0.00    +0.004 A 
ATOM     36  C   UNL     1       8.153  -1.683   3.940  0.00  0.00    +0.000 A 
ATOM     37  C   UNL     1       9.128  -2.028   4.856  0.00  0.00    +0.000 A 
ATOM     38  C   UNL     1       8.777  -2.659   6.036  0.00  0.00    +0.000 A 
ATOM     39  C   UNL     1       7.449  -2.940   6.300  0.00  0.00    +0.004 A 
ENDBRANCH  33  34
ENDBRANCH  32  33
ENDBRANCH  26  32
TORSDOF 3
