REMARK  Name = ZINC37129992
REMARK  2 active torsions:
REMARK  status: ('A' for Active; 'I' for Inactive)
REMARK    1  A    between atoms: C_6  and  N_7
REMARK    2  A    between atoms: N_7  and  C_8
REMARK                            x       y       z     vdW  Elec       q    Type
REMARK                         _______ _______ _______ _____ _____    ______ ____
ROOT
ATOM      1  N   UNL     1      -1.200  -0.720   0.010  0.00  0.00    -0.341 N 
ATOM      2  H   UNL     1      -0.918  -1.227   0.787  0.00  0.00    +0.146 HD
ENDROOT
BRANCH   1   8
ATOM      3  C   UNL     1      -0.790   0.056  -2.240  0.00  0.00    +0.026 A 
ATOM      4  C   UNL     1       0.010   0.108  -3.364  0.00  0.00    +0.050 A 
ATOM      5  C   UNL     1       1.220  -0.567  -3.386  0.00  0.00    +0.157 A 
ATOM      6  C   UNL     1       1.628  -1.297  -2.269  0.00  0.00    +0.089 A 
ATOM      7  C   UNL     1       0.826  -1.348  -1.141  0.00  0.00    +0.052 A 
ATOM      8  C   UNL     1      -0.386  -0.671  -1.126  0.00  0.00    +0.030 A 
ATOM      9  N   UNL     1       2.866  -1.854  -2.588  0.00  0.00    -0.288 N 
ATOM     10  H   UNL     1       3.407  -2.418  -2.013  0.00  0.00    +0.172 HD
ATOM     11  C   UNL     1       3.174  -1.467  -3.841  0.00  0.00    +0.419 A 
ATOM     12  O   UNL     1       4.188  -1.771  -4.441  0.00  0.00    -0.223 OA
ATOM     13  O   UNL     1       2.190  -0.694  -4.326  0.00  0.00    -0.408 OA
ENDBRANCH   1   8
BRANCH   1  14
ATOM     14  C   UNL     1      -2.478  -0.004   0.027  0.00  0.00    +0.074 C 
ATOM     15  C   UNL     1      -2.953   0.202   1.490  0.00  0.00    +0.026 C 
ATOM     16  C   UNL     1      -4.159  -0.821   1.598  0.00  0.00    -0.006 C 
ATOM     17  C   UNL     1      -4.822  -0.450   0.203  0.00  0.00    +0.009 C 
ATOM     18  C   UNL     1      -3.563  -0.845  -0.677  0.00  0.00    +0.013 C 
ATOM     19  C   UNL     1      -3.509  -2.308  -0.264  0.00  0.00    -0.003 C 
ATOM     20  C   UNL     1      -3.424  -2.096   1.319  0.00  0.00    -0.004 C 
ATOM     21  C   UNL     1      -3.267  -3.431   1.907  0.00  0.00    +0.004 C 
ATOM     22  C   UNL     1      -2.377  -4.172   0.851  0.00  0.00    +0.001 C 
ATOM     23  C   UNL     1      -2.258  -3.162  -0.433  0.00  0.00    +0.004 C 
ENDBRANCH   1  14
TORSDOF 2
