REMARK  Name = ZINC52012301
REMARK  7 active torsions:
REMARK  status: ('A' for Active; 'I' for Inactive)
REMARK    1  A    between atoms: C_1  and  C_2
REMARK    2  A    between atoms: C_2  and  C_4
REMARK    3  A    between atoms: C_2  and  C_19
REMARK    4  A    between atoms: C_4  and  N_5
REMARK    5  A    between atoms: N_5  and  C_6
REMARK    6  A    between atoms: N_9  and  C_10
REMARK    7  A    between atoms: C_16  and  O_18
REMARK                            x       y       z     vdW  Elec       q    Type
REMARK                         _______ _______ _______ _____ _____    ______ ____
ROOT
ATOM      1  N   UNL     1       2.125  -0.091  -1.209  0.00  0.00    -0.288 N 
ATOM      2  C   UNL     1       3.121  -0.971  -0.594  0.00  0.00    +0.133 C 
ATOM      3  C   UNL     1       2.502   1.093  -1.732  0.00  0.00    +0.302 C 
ATOM      4  O   UNL     1       1.675   1.823  -2.242  0.00  0.00    -0.253 OA
ATOM      5  N   UNL     1       3.796   1.467  -1.688  0.00  0.00    -0.294 N 
ATOM      6  H   UNL     1       4.456   0.884  -1.281  0.00  0.00    +0.151 HD
ENDROOT
BRANCH   5   7
ATOM      7  C   UNL     1       4.207   2.753  -2.256  0.00  0.00    +0.103 C 
ATOM      8  C   UNL     1       4.456   2.592  -3.757  0.00  0.00    +0.025 C 
ATOM      9  C   UNL     1       5.562   1.559  -3.982  0.00  0.00    +0.002 C 
ATOM     10  C   UNL     1       6.847   2.031  -3.299  0.00  0.00    +0.003 C 
ATOM     11  C   UNL     1       6.598   2.193  -1.798  0.00  0.00    +0.033 C 
ATOM     12  C   UNL     1       5.492   3.225  -1.573  0.00  0.00    +0.135 C 
BRANCH  12  13
ATOM     13  O   UNL     1       5.259   3.376  -0.171  0.00  0.00    -0.390 OA
ATOM     14  H   UNL     1       6.033   3.674   0.326  0.00  0.00    +0.210 HD
ENDBRANCH  12  13
ENDBRANCH   5   7
BRANCH   1  15
ATOM     15  C   UNL     1       0.718  -0.497  -1.257  0.00  0.00    +0.123 C 
BRANCH  15  17
ATOM     16  C   UNL     1      -0.019   1.526   0.010  0.00  0.00    +0.021 C 
ATOM     17  C   UNL     1       0.002  -0.004   0.002  0.00  0.00    +0.116 C 
BRANCH  17  18
ATOM     18  C   UNL     1      -1.412  -0.526   0.013  0.00  0.00    +0.360 C 
ATOM     19  O   UNL     1      -1.810  -1.227  -0.902  0.00  0.00    -0.246 OA
ATOM     20  O   UNL     1      -2.158  -0.246   0.936  0.00  0.00    -0.246 OA
ENDBRANCH  17  18
ENDBRANCH  15  17
ENDBRANCH   1  15
TORSDOF 5
