REMARK  Name = ZINC20704209
REMARK  4 active torsions:
REMARK  status: ('A' for Active; 'I' for Inactive)
REMARK    1  A    between atoms: C_4  and  N_32
REMARK    2  A    between atoms: C_6  and  C_7
REMARK    3  A    between atoms: C_18  and  S_23
REMARK    4  A    between atoms: S_23  and  N_26
REMARK                            x       y       z     vdW  Elec       q    Type
REMARK                         _______ _______ _______ _____ _____    ______ ____
ROOT
ATOM      1  C   UNL     1      -8.219   1.072   1.305  0.00  0.00    +0.105 C 
ATOM      2  C   UNL     1      -7.348   0.558   2.437  0.00  0.00    +0.029 C 
ATOM      3  C   UNL     1      -8.061   0.088   3.712  0.00  0.00    +0.033 C 
ATOM      4  C   UNL     1      -7.003   0.376   4.780  0.00  0.00    -0.030 C 
ATOM      5  C   UNL     1      -6.202   1.353   4.373  0.00  0.00    -0.023 C 
ATOM      6  C   UNL     1      -6.662   1.820   3.040  0.00  0.00    +0.049 C 
ATOM      7  C   UNL     1      -5.720   2.350   2.030  0.00  0.00    -0.018 A 
ATOM      8  C   UNL     1      -4.525   2.944   2.373  0.00  0.00    +0.034 A 
ATOM      9  C   UNL     1      -3.686   3.440   1.392  0.00  0.00    +0.106 A 
ATOM     10  C   UNL     1      -4.049   3.349   0.061  0.00  0.00    +0.030 A 
ATOM     11  C   UNL     1      -5.241   2.750  -0.293  0.00  0.00    +0.025 A 
ATOM     12  C   UNL     1      -6.088   2.241   0.684  0.00  0.00    +0.031 A 
ATOM     13  N   UNL     1      -7.283   1.621   0.300  0.00  0.00    -0.336 N 
ATOM     14  H   UNL     1      -7.520   1.545  -0.771  0.00  0.00    +0.147 HD
ENDROOT
BRANCH   1  20
ATOM     15  C   UNL     1      -8.741   3.479   1.751  0.00  0.00    +0.007 A 
ATOM     16  C   UNL     1      -9.583   4.474   2.211  0.00  0.00    +0.022 A 
ATOM     17  C   UNL     1     -10.824   4.146   2.727  0.00  0.00    +0.071 A 
ATOM     18  C   UNL     1     -11.221   2.821   2.783  0.00  0.00    +0.145 A 
ATOM     19  C   UNL     1     -10.380   1.828   2.318  0.00  0.00    +0.039 A 
ATOM     20  C   UNL     1      -9.138   2.156   1.807  0.00  0.00    -0.025 A 
ATOM     21 CL   UNL     1     -11.882   5.394   3.305  0.00  0.00    -0.081 Cl
BRANCH  18  22
ATOM     22  N   UNL     1     -12.548   2.469   3.335  0.00  0.00    +0.058 N 
ATOM     23  O   UNL     1     -12.897   1.303   3.384  0.00  0.00    -0.126 OA
ATOM     24  O   UNL     1     -13.291   3.345   3.740  0.00  0.00    -0.126 OA
ENDBRANCH  18  22
ENDBRANCH   1  20
BRANCH   9  25
ATOM     25  S   UNL     1      -2.157   4.194   1.838  0.00  0.00    +0.061 S 
ATOM     26  O   UNL     1      -2.304   4.649   3.176  0.00  0.00    -0.153 OA
ATOM     27  O   UNL     1      -1.807   5.064   0.771  0.00  0.00    -0.153 OA
BRANCH  25  28
ATOM     28  N   UNL     1      -1.012   2.998   1.869  0.00  0.00    -0.177 NA
ATOM     29  C   UNL     1      -0.242   2.668   0.662  0.00  0.00    +0.109 C 
ATOM     30  C   UNL     1      -0.369   1.166   0.390  0.00  0.00    +0.017 C 
ATOM     31  C   UNL     1       0.054   0.388   1.638  0.00  0.00    +0.003 C 
ATOM     32  C   UNL     1      -0.869   0.749   2.804  0.00  0.00    +0.017 C 
ATOM     33  C   UNL     1      -0.747   2.246   3.103  0.00  0.00    +0.109 C 
ENDBRANCH  25  28
ENDBRANCH   9  25
TORSDOF 4
