REMARK  Name = ZINC60156556
REMARK  9 active torsions:
REMARK  status: ('A' for Active; 'I' for Inactive)
REMARK    1  A    between atoms: C_1  and  C_2
REMARK    2  A    between atoms: N_5  and  C_8
REMARK    3  A    between atoms: C_8  and  C_10
REMARK    4  A    between atoms: C_8  and  C_11
REMARK    5  A    between atoms: C_11  and  N_12
REMARK    6  A    between atoms: C_13  and  C_15
REMARK    7  A    between atoms: C_18  and  C_21
REMARK    8  A    between atoms: C_21  and  N_22
REMARK    9  A    between atoms: C_23  and  C_25
REMARK                            x       y       z     vdW  Elec       q    Type
REMARK                         _______ _______ _______ _____ _____    ______ ____
ROOT
ATOM      1  C   UNL     1      -5.132  -3.744  -0.724  0.00  0.00    +0.037 A 
ATOM      2  C   UNL     1      -4.513  -3.128  -1.812  0.00  0.00    +0.013 A 
ATOM      3  C   UNL     1      -5.269  -2.724  -2.894  0.00  0.00    +0.006 A 
ATOM      4  C   UNL     1      -6.638  -2.929  -2.900  0.00  0.00    -0.030 A 
ATOM      5  C   UNL     1      -7.257  -3.539  -1.824  0.00  0.00    +0.006 A 
ATOM      6  C   UNL     1      -6.512  -3.953  -0.739  0.00  0.00    +0.013 A 
ENDROOT
BRANCH   1   8
ATOM      7  N   UNL     1      -2.996  -3.977   0.450  0.00  0.00    -0.313 N 
ATOM      8  C   UNL     1      -4.328  -4.179   0.438  0.00  0.00    +0.244 C 
ATOM      9  O   UNL     1      -4.869  -4.721   1.383  0.00  0.00    -0.270 OA
ATOM     10  H   UNL     1      -2.564  -3.545  -0.304  0.00  0.00    +0.149 HD
BRANCH   7  11
ATOM     11  C   UNL     1      -2.199  -4.408   1.601  0.00  0.00    +0.089 C 
BRANCH  11  12
ATOM     12  C   UNL     1      -0.753  -3.942   1.424  0.00  0.00    -0.054 C 
ATOM     13  C   UNL     1       0.052  -4.288   2.679  0.00  0.00    -0.012 C 
BRANCH  12  18
ATOM     14  C   UNL     1       0.082   1.699   1.509  0.00  0.00    +0.007 C 
ATOM     15  C   UNL     1       0.143   0.204   1.830  0.00  0.00    -0.018 C 
ATOM     16  C   UNL     1       0.659  -0.561   0.609  0.00  0.00    -0.016 C 
ATOM     17  C   UNL     1       0.642  -2.062   0.909  0.00  0.00    -0.078 C 
ATOM     18  N   UNL     1      -0.729  -2.488   1.213  0.00  0.00    +0.382 N 
ATOM     19  C   UNL     1      -1.204  -1.811   2.425  0.00  0.00    -0.078 C 
ATOM     20  C   UNL     1      -1.259  -0.301   2.183  0.00  0.00    -0.016 C 
ATOM     21  H   UNL     1      -1.333  -2.253   0.439  0.00  0.00    -0.081 HD
ENDBRANCH  12  18
ENDBRANCH  11  12
ENDBRANCH   7  11
ENDBRANCH   1   8
BRANCH   4  22
ATOM     22  C   UNL     1      -7.457  -2.485  -4.085  0.00  0.00    +0.139 C 
BRANCH  22  23
ATOM     23  N   UNL     1      -7.535  -3.575  -5.060  0.00  0.00    -0.311 N 
ATOM     24  C   UNL     1      -8.222  -3.405  -6.207  0.00  0.00    +0.219 C 
ATOM     25  O   UNL     1      -8.776  -2.350  -6.431  0.00  0.00    -0.275 OA
ATOM     26  H   UNL     1      -7.093  -4.420  -4.881  0.00  0.00    +0.149 HD
BRANCH  24  27
ATOM     27  C   UNL     1      -8.303  -4.527  -7.211  0.00  0.00    +0.048 C 
ATOM     28  C   UNL     1      -6.893  -4.897  -7.676  0.00  0.00    +0.019 C 
ATOM     29  C   UNL     1      -6.975  -6.035  -8.695  0.00  0.00    -0.009 C 
ATOM     30  C   UNL     1      -7.807  -5.585  -9.897  0.00  0.00    +0.007 C 
ATOM     31  C   UNL     1      -9.216  -5.215  -9.432  0.00  0.00    -0.009 C 
ATOM     32  C   UNL     1      -9.135  -4.076  -8.413  0.00  0.00    +0.019 C 
ATOM     33  C   UNL     1      -9.876  -6.433  -8.784  0.00  0.00    +0.007 C 
ATOM     34  C   UNL     1      -9.044  -6.884  -7.581  0.00  0.00    -0.009 C 
ATOM     35  C   UNL     1      -7.634  -7.254  -8.046  0.00  0.00    +0.007 C 
ATOM     36  C   UNL     1      -8.962  -5.745  -6.562  0.00  0.00    +0.019 C 
ENDBRANCH  24  27
ENDBRANCH  22  23
ENDBRANCH   4  22
TORSDOF 7
