REMARK  Name = ZINC63850296
REMARK  6 active torsions:
REMARK  status: ('A' for Active; 'I' for Inactive)
REMARK    1  A    between atoms: C_7  and  C_10
REMARK    2  A    between atoms: C_10  and  C_12
REMARK    3  A    between atoms: C_10  and  C_29
REMARK    4  A    between atoms: C_12  and  N_13
REMARK    5  A    between atoms: C_14  and  C_16
REMARK    6  A    between atoms: C_19  and  N_23
REMARK                            x       y       z     vdW  Elec       q    Type
REMARK                         _______ _______ _______ _____ _____    ______ ____
ROOT
ATOM      1  C   UNL     1       0.460  -2.949   0.236  0.00  0.00    +0.066 C 
ENDROOT
BRANCH   1   8
ATOM      2  C   UNL     1      -0.896   1.434   0.127  0.00  0.00    +0.001 A 
ATOM      3  C   UNL     1       0.151   2.350   0.298  0.00  0.00    +0.002 A 
ATOM      4  C   UNL     1       1.433   1.968   0.478  0.00  0.00    +0.026 A 
ATOM      5  C   UNL     1       1.775   0.588   0.500  0.00  0.00    +0.043 A 
ATOM      6  N   UNL     1       2.924  -0.025   0.655  0.00  0.00    -0.380 N 
ATOM      7  C   UNL     1       2.695  -1.472   0.592  0.00  0.00    +0.145 C 
ATOM      8  C   UNL     1       1.208  -1.648   0.372  0.00  0.00    -0.033 C 
ATOM      9  C   UNL     1       0.687  -0.401   0.322  0.00  0.00    -0.000 A 
ATOM     10  C   UNL     1      -0.680   0.099   0.132  0.00  0.00    +0.010 A 
ATOM     11  H   UNL     1       3.782   0.407   0.788  0.00  0.00    +0.160 HD
ENDBRANCH   1   8
BRANCH   1  12
ATOM     12  C   UNL     1       0.996  -3.715  -0.946  0.00  0.00    -0.020 A 
ATOM     13  C   UNL     1       2.325  -4.095  -0.978  0.00  0.00    +0.006 A 
ATOM     14  C   UNL     1       2.817  -4.798  -2.061  0.00  0.00    +0.000 A 
ATOM     15  C   UNL     1       1.980  -5.122  -3.113  0.00  0.00    +0.001 A 
ATOM     16  C   UNL     1       0.652  -4.743  -3.082  0.00  0.00    +0.020 A 
ATOM     17  C   UNL     1       0.158  -4.044  -1.995  0.00  0.00    +0.045 A 
ATOM     18 CL   UNL     1      -1.513  -3.573  -1.952  0.00  0.00    -0.083 Cl
ENDBRANCH   1  12
BRANCH   1  19
ATOM     19  C   UNL     1       0.644  -3.778   1.508  0.00  0.00    +0.117 C 
BRANCH  19  20
ATOM     20  N   UNL     1      -0.179  -4.988   1.425  0.00  0.00    -0.311 N 
ATOM     21  C   UNL     1      -0.177  -5.875   2.440  0.00  0.00    +0.238 C 
ATOM     22  O   UNL     1       0.508  -5.671   3.426  0.00  0.00    -0.271 OA
ATOM     23  H   UNL     1      -0.725  -5.150   0.640  0.00  0.00    +0.149 HD
BRANCH  21  24
ATOM     24  C   UNL     1      -0.971  -7.042   2.360  0.00  0.00    +0.086 C 
ATOM     25  C   UNL     1      -0.880  -7.987   3.319  0.00  0.00    +0.021 C 
ATOM     26  N   UNL     1       0.047  -7.914   4.297  0.00  0.00    -0.320 N 
ATOM     27  C   UNL     1      -0.247  -8.638   5.553  0.00  0.00    +0.222 C 
ATOM     28  S   UNL     1      -1.289 -10.017   4.906  0.00  0.00    -0.113 S 
ATOM     29  C   UNL     1      -1.822  -9.180   3.353  0.00  0.00    +0.123 C 
ATOM     30  H   UNL     1       0.868  -7.411   4.181  0.00  0.00    +0.148 HD
BRANCH  27  31
ATOM     31  N   UNL     1       0.979  -9.145   6.173  0.00  0.00    -0.274 N 
ATOM     32  C   UNL     1       1.070  -9.627   7.556  0.00  0.00    +0.111 C 
ATOM     33  C   UNL     1       2.381 -10.442   7.624  0.00  0.00    +0.028 C 
ATOM     34  C   UNL     1       3.207  -9.805   6.483  0.00  0.00    +0.097 C 
ATOM     35  C   UNL     1       2.165  -9.234   5.546  0.00  0.00    +0.218 C 
ATOM     36  O   UNL     1       2.371  -8.902   4.398  0.00  0.00    -0.276 OA
ENDBRANCH  27  31
ENDBRANCH  21  24
ENDBRANCH  19  20
ENDBRANCH   1  19
TORSDOF 6
