REMARK  Name = ZINC13958098
REMARK  7 active torsions:
REMARK  status: ('A' for Active; 'I' for Inactive)
REMARK    1  A    between atoms: C_1  and  C_2
REMARK    2  A    between atoms: C_5  and  C_9
REMARK    3  A    between atoms: C_7  and  C_8
REMARK    4  A    between atoms: C_12  and  C_33
REMARK    5  A    between atoms: C_18  and  C_20
REMARK    6  A    between atoms: C_23  and  C_28
REMARK    7  A    between atoms: C_25  and  C_27
REMARK                            x       y       z     vdW  Elec       q    Type
REMARK                         _______ _______ _______ _____ _____    ______ ____
ROOT
ATOM      1  C   UNL     1       0.059  -4.275  -0.021  0.00  0.00    +0.113 C 
ATOM      2  C   UNL     1      -1.359  -4.797  -0.254  0.00  0.00    +0.062 C 
ATOM      3  C   UNL     1      -1.862  -4.334  -1.631  0.00  0.00    +0.201 C 
ATOM      4  N   UNL     1      -0.848  -4.724  -2.617  0.00  0.00    -0.226 N 
ATOM      5  C   UNL     1       0.486  -4.921  -2.282  0.00  0.00    +0.114 C 
ATOM      6  N   UNL     1       0.960  -4.742  -1.083  0.00  0.00    -0.365 N 
ATOM      7  C   UNL     1       1.167  -5.337  -3.507  0.00  0.00    +0.072 C 
ATOM      8  C   UNL     1       0.240  -5.349  -4.498  0.00  0.00    +0.112 C 
ATOM      9  N   UNL     1      -0.987  -4.967  -3.978  0.00  0.00    -0.258 N 
ATOM     10  H   UNL     1      -1.810  -4.884  -4.484  0.00  0.00    +0.170 HD
ATOM     11  H   UNL     1       1.896  -4.914  -0.893  0.00  0.00    +0.161 HD
ENDROOT
BRANCH   8  12
ATOM     12  C   UNL     1       0.498  -5.710  -5.908  0.00  0.00    +0.284 C 
ATOM     13  O   UNL     1      -0.409  -5.686  -6.717  0.00  0.00    -0.267 OA
ATOM     14  N   UNL     1       1.739  -6.066  -6.296  0.00  0.00    -0.144 N 
ATOM     15  C   UNL     1       2.135  -6.442  -7.663  0.00  0.00    +0.291 C 
ATOM     16  C   UNL     1       3.641  -6.745  -7.524  0.00  0.00    +0.122 C 
ATOM     17  C   UNL     1       3.925  -6.498  -6.059  0.00  0.00    +0.039 C 
ATOM     18  N   UNL     1       2.860  -6.133  -5.471  0.00  0.00    -0.183 NA
ATOM     19  C   UNL     1       5.269  -6.656  -5.398  0.00  0.00    +0.062 C 
ATOM     20  O   UNL     1       1.425  -7.605  -8.092  0.00  0.00    -0.195 OA
BRANCH  15  21
ATOM     21  C   UNL     1       1.906  -5.279  -8.631  0.00  0.00    +0.441 C 
ATOM     22  F   UNL     1       2.641  -4.167  -8.207  0.00  0.00    -0.166 F 
ATOM     23  F   UNL     1       2.321  -5.652  -9.914  0.00  0.00    -0.166 F 
ATOM     24  F   UNL     1       0.545  -4.956  -8.657  0.00  0.00    -0.166 F 
ENDBRANCH  15  21
ENDBRANCH   8  12
BRANCH   1  29
ATOM     25  C   UNL     1      -0.018   1.503   0.010  0.00  0.00    +0.044 C 
ATOM     26  C   UNL     1       0.002  -0.004   0.002  0.00  0.00    -0.048 A 
ATOM     27  C   UNL     1       0.006  -0.689  -1.199  0.00  0.00    +0.004 A 
ATOM     28  C   UNL     1       0.025  -2.071  -1.207  0.00  0.00    +0.006 A 
ATOM     29  C   UNL     1       0.040  -2.768  -0.013  0.00  0.00    -0.025 A 
ATOM     30  C   UNL     1       0.037  -2.084   1.188  0.00  0.00    +0.009 A 
ATOM     31  C   UNL     1       0.023  -0.702   1.195  0.00  0.00    -0.047 A 
ATOM     32  C   UNL     1       0.025   0.045   2.504  0.00  0.00    +0.044 C 
ENDBRANCH   1  29
BRANCH   3  33
ATOM     33  C   UNL     1      -3.194  -5.013  -1.954  0.00  0.00    +0.410 C 
ATOM     34  F   UNL     1      -4.139  -4.674  -0.980  0.00  0.00    -0.169 F 
ATOM     35  F   UNL     1      -3.643  -4.586  -3.208  0.00  0.00    -0.169 F 
ATOM     36  F   UNL     1      -3.018  -6.401  -1.970  0.00  0.00    -0.169 F 
ENDBRANCH   3  33
TORSDOF 4
