REMARK  Name = ZINC46756970
REMARK  9 active torsions:
REMARK  status: ('A' for Active; 'I' for Inactive)
REMARK    1  A    between atoms: C_1  and  C_2
REMARK    2  A    between atoms: C_2  and  C_3
REMARK    3  A    between atoms: C_3  and  S_4
REMARK    4  A    between atoms: S_4  and  N_7
REMARK    5  A    between atoms: C_10  and  N_13
REMARK    6  A    between atoms: C_14  and  C_16
REMARK    7  A    between atoms: C_19  and  N_25
REMARK    8  A    between atoms: C_20  and  N_22
REMARK    9  A    between atoms: C_29  and  C_32
REMARK                            x       y       z     vdW  Elec       q    Type
REMARK                         _______ _______ _______ _____ _____    ______ ____
ROOT
ATOM      1  N   UNL     1       2.640  -6.006  -5.188  0.00  0.00    -0.308 N 
ATOM      2  C   UNL     1       3.822  -5.998  -5.835  0.00  0.00    +0.244 C 
ATOM      3  O   UNL     1       4.467  -4.970  -5.909  0.00  0.00    -0.270 OA
ATOM      4  H   UNL     1       2.125  -6.826  -5.129  0.00  0.00    +0.149 HD
ENDROOT
BRANCH   1   8
ATOM      5  N   UNL     1       0.758  -3.317  -2.578  0.00  0.00    -0.181 NA
ATOM      6  C   UNL     1       0.078  -3.549  -3.860  0.00  0.00    +0.111 C 
ATOM      7  C   UNL     1       0.607  -4.850  -4.471  0.00  0.00    +0.039 C 
ATOM      8  C   UNL     1       2.133  -4.777  -4.574  0.00  0.00    +0.076 C 
ATOM      9  C   UNL     1       2.733  -4.621  -3.174  0.00  0.00    +0.039 C 
ATOM     10  C   UNL     1       2.228  -3.312  -2.550  0.00  0.00    +0.111 C 
BRANCH   5  11
ATOM     11  S   UNL     1      -0.113  -3.059  -1.194  0.00  0.00    +0.032 S 
ATOM     12  O   UNL     1       0.745  -3.477  -0.142  0.00  0.00    -0.158 OA
ATOM     13  O   UNL     1      -1.354  -3.715  -1.420  0.00  0.00    -0.158 OA
BRANCH  11  14
ATOM     14  C   UNL     1      -0.359  -1.263  -1.125  0.00  0.00    +0.185 C 
BRANCH  14  16
ATOM     15  C   UNL     1      -1.368   0.609   0.185  0.00  0.00    +0.005 C 
ATOM     16  C   UNL     1      -1.162  -0.906   0.127  0.00  0.00    +0.021 C 
ENDBRANCH  14  16
ENDBRANCH  11  14
ENDBRANCH   5  11
ENDBRANCH   1   8
BRANCH   2  17
ATOM     17  C   UNL     1       4.333  -7.236  -6.454  0.00  0.00    +0.039 A 
ATOM     18  C   UNL     1       3.589  -8.417  -6.375  0.00  0.00    +0.015 A 
ATOM     19  C   UNL     1       4.068  -9.570  -6.954  0.00  0.00    +0.026 A 
ATOM     20  C   UNL     1       5.292  -9.561  -7.617  0.00  0.00    +0.060 A 
ATOM     21  C   UNL     1       6.035  -8.387  -7.697  0.00  0.00    +0.148 A 
ATOM     22  C   UNL     1       5.559  -7.229  -7.126  0.00  0.00    +0.047 A 
BRANCH  20  23
ATOM     23  N   UNL     1       5.774 -10.728  -8.200  0.00  0.00    -0.328 N 
ATOM     24  C   UNL     1       5.376 -11.102  -9.564  0.00  0.00    +0.105 C 
ATOM     25  C   UNL     1       4.815 -12.528  -9.541  0.00  0.00    +0.019 C 
ATOM     26  C   UNL     1       5.844 -13.466  -8.906  0.00  0.00    +0.006 C 
ATOM     27  C   UNL     1       6.114 -13.030  -7.465  0.00  0.00    +0.003 C 
ATOM     28  C   UNL     1       6.694 -11.607  -7.467  0.00  0.00    +0.108 C 
ATOM     29  C   UNL     1       7.118 -13.988  -6.820  0.00  0.00    +0.009 C 
ENDBRANCH  20  23
BRANCH  21  30
ATOM     30  N   UNL     1       7.336  -8.382  -8.403  0.00  0.00    +0.058 N 
ATOM     31  O   UNL     1       8.029  -7.391  -8.386  0.00  0.00    -0.126 OA
ATOM     32  O   UNL     1       7.706  -9.369  -8.996  0.00  0.00    -0.126 OA
ENDBRANCH  21  30
ENDBRANCH   2  17
TORSDOF 7
