REMARK  Name = ZINC63373283
REMARK  6 active torsions:
REMARK  status: ('A' for Active; 'I' for Inactive)
REMARK    1  A    between atoms: C_1  and  C_2
REMARK    2  A    between atoms: C_2  and  C_3
REMARK    3  A    between atoms: C_6  and  C_9
REMARK    4  A    between atoms: N_15  and  C_30
REMARK    5  A    between atoms: C_18  and  C_29
REMARK    6  A    between atoms: C_30  and  C_31
REMARK                            x       y       z     vdW  Elec       q    Type
REMARK                         _______ _______ _______ _____ _____    ______ ____
ROOT
ATOM      1  C   UNL     1      -5.419  -2.005   0.043  0.00  0.00    +0.065 C 
ATOM      2  C   UNL     1      -6.348  -1.022  -0.697  0.00  0.00    +0.123 C 
ATOM      3  N   UNL     1      -7.582  -1.731  -1.050  0.00  0.00    -0.268 N 
ATOM      4  C   UNL     1      -8.844  -1.396  -0.754  0.00  0.00    +0.312 C 
ATOM      5  O   UNL     1      -9.160  -0.348  -0.226  0.00  0.00    -0.252 OA
ATOM      6  N   UNL     1      -9.718  -2.347  -1.108  0.00  0.00    -0.220 N 
ATOM      7  C   UNL     1      -9.108  -3.378  -1.729  0.00  0.00    +0.249 C 
ATOM      8  O   UNL     1      -9.626  -4.394  -2.141  0.00  0.00    -0.273 OA
ATOM      9  C   UNL     1      -7.644  -3.003  -1.805  0.00  0.00    +0.136 C 
ATOM     10  C   UNL     1      -6.799  -4.020  -1.030  0.00  0.00    +0.139 C 
ATOM     11  C   UNL     1      -5.486  -3.321  -0.692  0.00  0.00    -0.027 C 
ATOM     12  C   UNL     1      -4.519  -4.090  -1.181  0.00  0.00    -0.000 A 
ATOM     13  C   UNL     1      -3.053  -3.985  -1.100  0.00  0.00    +0.010 A 
ATOM     14  C   UNL     1      -2.347  -4.953  -1.744  0.00  0.00    +0.001 A 
ATOM     15  C   UNL     1      -2.946  -6.000  -2.450  0.00  0.00    +0.002 A 
ATOM     16  C   UNL     1      -4.286  -6.178  -2.570  0.00  0.00    +0.026 A 
ATOM     17  C   UNL     1      -5.133  -5.228  -1.929  0.00  0.00    +0.043 A 
ATOM     18  N   UNL     1      -6.443  -5.171  -1.862  0.00  0.00    -0.375 N 
ATOM     19  C   UNL     1      -7.171  -2.837  -3.251  0.00  0.00    +0.044 C 
ATOM     20  H   UNL     1      -7.069  -5.780  -2.285  0.00  0.00    +0.160 HD
ENDROOT
BRANCH   1  24
ATOM     21  C   UNL     1      -1.412  -0.526   0.013  0.00  0.00    -0.048 A 
ATOM     22  C   UNL     1      -2.051  -0.766   1.215  0.00  0.00    +0.004 A 
ATOM     23  C   UNL     1      -3.348  -1.244   1.225  0.00  0.00    +0.004 A 
ATOM     24  C   UNL     1      -4.006  -1.482   0.032  0.00  0.00    -0.039 A 
ATOM     25  C   UNL     1      -3.367  -1.241  -1.170  0.00  0.00    +0.004 A 
ATOM     26  C   UNL     1      -2.072  -0.758  -1.179  0.00  0.00    +0.004 A 
BRANCH  21  28
ATOM     27  C   UNL     1      -0.019   1.526   0.010  0.00  0.00    +0.009 C 
ATOM     28  C   UNL     1       0.002  -0.004   0.002  0.00  0.00    +0.032 C 
ENDBRANCH  21  28
ENDBRANCH   1  24
BRANCH   6  29
ATOM     29  C   UNL     1     -11.159  -2.278  -0.852  0.00  0.00    +0.153 C 
BRANCH  29  30
ATOM     30  C   UNL     1     -11.845  -1.612  -2.017  0.00  0.00    -0.030 A 
ATOM     31  C   UNL     1     -12.010  -0.240  -2.030  0.00  0.00    +0.005 A 
ATOM     32  C   UNL     1     -12.639   0.371  -3.098  0.00  0.00    +0.000 A 
ATOM     33  C   UNL     1     -13.103  -0.391  -4.154  0.00  0.00    +0.000 A 
ATOM     34  C   UNL     1     -12.938  -1.764  -4.141  0.00  0.00    +0.000 A 
ATOM     35  C   UNL     1     -12.305  -2.374  -3.075  0.00  0.00    +0.005 A 
ENDBRANCH  29  30
ENDBRANCH   6  29
TORSDOF 4
