REMARK  Name = ZINC08661710
REMARK  6 active torsions:
REMARK  status: ('A' for Active; 'I' for Inactive)
REMARK    1  A    between atoms: C_1  and  C_2
REMARK    2  A    between atoms: C_2  and  C_31
REMARK    3  A    between atoms: C_9  and  C_21
REMARK    4  A    between atoms: C_17  and  C_19
REMARK    5  A    between atoms: C_17  and  C_20
REMARK    6  A    between atoms: N_23  and  C_24
REMARK                            x       y       z     vdW  Elec       q    Type
REMARK                         _______ _______ _______ _____ _____    ______ ____
ROOT
ATOM      1  C   UNL     1      -5.235  -1.424   3.294  0.00  0.00    +0.074 C 
ATOM      2  C   UNL     1      -6.046  -0.166   2.977  0.00  0.00    +0.166 C 
ATOM      3  O   UNL     1      -5.546   0.936   3.746  0.00  0.00    -0.341 OA
ATOM      4  C   UNL     1      -5.128   1.958   2.807  0.00  0.00    +0.187 C 
ATOM      5  C   UNL     1      -4.867   1.129   1.525  0.00  0.00    +0.191 C 
ATOM      6  O   UNL     1      -5.921   0.149   1.577  0.00  0.00    -0.340 OA
ATOM      7  C   UNL     1      -4.902   1.938   0.251  0.00  0.00    +0.238 C 
ATOM      8  O   UNL     1      -5.999   2.862   0.191  0.00  0.00    -0.333 OA
ATOM      9  C   UNL     1      -5.986   3.731   1.306  0.00  0.00    +0.286 C 
ATOM     10  C   UNL     1      -6.326   2.856   2.543  0.00  0.00    +0.209 C 
ATOM     11  O   UNL     1      -6.589   3.857   3.531  0.00  0.00    -0.338 OA
ATOM     12  C   UNL     1      -7.322   4.867   2.795  0.00  0.00    +0.168 C 
ATOM     13  O   UNL     1      -6.976   4.757   1.396  0.00  0.00    -0.318 OA
ATOM     14  C   UNL     1      -8.825   4.646   2.973  0.00  0.00    +0.074 C 
ATOM     15  C   UNL     1      -6.942   6.257   3.310  0.00  0.00    +0.074 C 
ATOM     16  C   UNL     1      -7.518  -0.405   3.317  0.00  0.00    +0.074 C 
ENDROOT
BRANCH   7  17
ATOM     17  C   UNL     1      -3.614   2.712   0.136  0.00  0.00    +0.249 C 
ATOM     18  O   UNL     1      -3.632   3.925   0.142  0.00  0.00    -0.273 OA
ATOM     19  N   UNL     1      -2.442   2.056   0.025  0.00  0.00    -0.282 N 
ATOM     20  H   UNL     1      -2.433   1.090  -0.061  0.00  0.00    +0.155 HD
BRANCH  19  21
ATOM     21  C   UNL     1      -1.238   2.769   0.034  0.00  0.00    +0.047 A 
ATOM     22  C   UNL     1      -1.169   4.012   0.649  0.00  0.00    +0.024 A 
ATOM     23  C   UNL     1       0.019   4.716   0.651  0.00  0.00    +0.002 A 
ATOM     24  C   UNL     1       1.142   4.181   0.046  0.00  0.00    +0.001 A 
ATOM     25  C   UNL     1       1.079   2.941  -0.562  0.00  0.00    +0.016 A 
ATOM     26  C   UNL     1      -0.107   2.232  -0.568  0.00  0.00    +0.035 A 
ATOM     27  I   UNL     1      -0.201   0.354  -1.491  0.00  0.00    -0.042 I 
ENDBRANCH  19  21
ENDBRANCH   7  17
TORSDOF 2
