REMARK  Name = ZINC12244345
REMARK  9 active torsions:
REMARK  status: ('A' for Active; 'I' for Inactive)
REMARK    1  A    between atoms: C_1  and  O_2
REMARK    2  A    between atoms: O_2  and  C_3
REMARK    3  A    between atoms: C_8  and  C_9
REMARK    4  A    between atoms: C_10  and  C_11
REMARK    5  A    between atoms: C_11  and  N_67
REMARK    6  A    between atoms: C_23  and  N_29
REMARK    7  A    between atoms: C_25  and  O_27
REMARK    8  A    between atoms: O_27  and  C_28
REMARK    9  A    between atoms: C_30  and  C_32
REMARK                            x       y       z     vdW  Elec       q    Type
REMARK                         _______ _______ _______ _____ _____    ______ ____
ROOT
ATOM      1  C   UNL     1       3.182   3.442   1.230  0.00  0.00    -0.077 C 
ATOM      2  C   UNL     1       3.916   3.871   2.503  0.00  0.00    -0.005 C 
ATOM      3  C   UNL     1       4.132   5.382   2.477  0.00  0.00    +0.021 C 
ATOM      4  C   UNL     1       2.798   6.106   2.315  0.00  0.00    -0.005 C 
ATOM      5  C   UNL     1       2.100   5.605   1.048  0.00  0.00    -0.077 C 
ATOM      6  C   UNL     1       4.828   5.836   3.738  0.00  0.00    -0.034 A 
ATOM      7  C   UNL     1       4.335   6.041   5.016  0.00  0.00    +0.004 A 
ATOM      8  C   UNL     1       5.176   6.466   6.026  0.00  0.00    +0.000 A 
ATOM      9  C   UNL     1       6.514   6.688   5.762  0.00  0.00    +0.000 A 
ATOM     10  C   UNL     1       7.008   6.483   4.489  0.00  0.00    +0.006 A 
ATOM     11  C   UNL     1       6.167   6.057   3.474  0.00  0.00    -0.021 A 
ATOM     12  C   UNL     1       6.458   5.764   2.018  0.00  0.00    +0.133 C 
ATOM     13  C   UNL     1       5.079   5.758   1.323  0.00  0.00    +0.153 C 
ATOM     14  N   UNL     1       1.883   4.147   1.166  0.00  0.00    +0.382 N 
ATOM     15  H   UNL     1       1.359   3.957   2.028  0.00  0.00    -0.081 HD
ENDROOT
BRANCH  12  16
ATOM     16  N   UNL     1       7.101   4.455   1.882  0.00  0.00    -0.302 N 
ATOM     17  C   UNL     1       8.444   4.354   1.942  0.00  0.00    +0.245 C 
ATOM     18  O   UNL     1       9.121   5.350   2.110  0.00  0.00    -0.270 OA
ATOM     19  H   UNL     1       6.561   3.660   1.748  0.00  0.00    +0.150 HD
BRANCH  17  20
ATOM     20  C   UNL     1       9.090   3.038   1.806  0.00  0.00    +0.044 A 
ATOM     21  C   UNL     1      10.523   2.894   1.865  0.00  0.00    +0.020 A 
ATOM     22  C   UNL     1      11.020   1.649   1.730  0.00  0.00    +0.046 A 
ATOM     23  S   UNL     1       9.559   0.652   1.520  0.00  0.00    -0.104 S 
ATOM     24  C   UNL     1       8.351   1.889   1.620  0.00  0.00    +0.058 A 
ENDBRANCH  17  20
ENDBRANCH  12  16
BRANCH  13  25
ATOM     25  O   UNL     1       4.760   7.051   0.805  0.00  0.00    -0.377 OA
ATOM     26  C   UNL     1       5.059   7.211  -0.584  0.00  0.00    +0.194 C 
ENDBRANCH  13  25
BRANCH  14  27
ATOM     27  C   UNL     1       1.101   3.659   0.011  0.00  0.00    -0.051 C 
BRANCH  27  29
ATOM     28  C   UNL     1      -0.018   1.473   0.010  0.00  0.00    +0.005 C 
ATOM     29  C   UNL     1       1.121   2.152   0.003  0.00  0.00    -0.045 C 
BRANCH  28  35
ATOM     30  C   UNL     1      -1.198  -0.724   0.010  0.00  0.00    +0.127 A 
ATOM     31  C   UNL     1      -1.169  -2.109   0.001  0.00  0.00    +0.046 A 
ATOM     32  C   UNL     1       0.041  -2.776  -0.014  0.00  0.00    +0.004 A 
ATOM     33  C   UNL     1       1.230  -2.068  -0.022  0.00  0.00    +0.001 A 
ATOM     34  C   UNL     1       1.217  -0.689  -0.019  0.00  0.00    +0.011 A 
ATOM     35  C   UNL     1       0.002  -0.004   0.002  0.00  0.00    +0.016 A 
BRANCH  30  37
ATOM     36  C   UNL     1      -3.571  -0.868   0.032  0.00  0.00    +0.277 C 
ATOM     37  O   UNL     1      -2.387  -0.067   0.025  0.00  0.00    -0.495 OA
ENDBRANCH  30  37
ENDBRANCH  28  35
ENDBRANCH  27  29
ENDBRANCH  14  27
TORSDOF 7
