REMARK  Name = ZINC33570358
REMARK  7 active torsions:
REMARK  status: ('A' for Active; 'I' for Inactive)
REMARK    1  A    between atoms: C_1  and  C_2
REMARK    2  A    between atoms: C_2  and  N_3
REMARK    3  A    between atoms: N_6  and  C_9
REMARK    4  A    between atoms: C_10  and  C_21
REMARK    5  A    between atoms: C_15  and  C_20
REMARK    6  A    between atoms: N_25  and  C_29
REMARK    7  A    between atoms: C_29  and  C_30
REMARK                            x       y       z     vdW  Elec       q    Type
REMARK                         _______ _______ _______ _____ _____    ______ ____
ROOT
ATOM      1  C   UNL     1      -6.082   4.153   4.554  0.00  0.00    +0.136 A 
ATOM      2  C   UNL     1      -5.170   3.386   3.791  0.00  0.00    +0.081 A 
ATOM      3  C   UNL     1      -4.901   3.791   2.462  0.00  0.00    +0.267 A 
ATOM      4  O   UNL     1      -4.118   3.164   1.769  0.00  0.00    -0.267 OA
ATOM      5  N   UNL     1      -5.531   4.881   1.971  0.00  0.00    -0.267 N 
ATOM      6  C   UNL     1      -5.282   5.274   0.690  0.00  0.00    +0.099 A 
ATOM      7  C   UNL     1      -5.891   6.363   0.170  0.00  0.00    -0.034 A 
ATOM      8  C   UNL     1      -6.791   7.104   0.948  0.00  0.00    +0.008 A 
ATOM      9  C   UNL     1      -7.045   6.720   2.231  0.00  0.00    +0.047 A 
ATOM     10  C   UNL     1      -6.403   5.583   2.755  0.00  0.00    +0.142 A 
ATOM     11  N   UNL     1      -6.659   5.214   4.010  0.00  0.00    -0.214 NA
ATOM     12  C   UNL     1      -5.604   6.780  -1.249  0.00  0.00    +0.045 C 
ENDROOT
BRANCH   2  13
ATOM     13  C   UNL     1      -4.538   2.248   4.344  0.00  0.00    +0.037 C 
ATOM     14  C   UNL     1      -4.818   1.006   3.852  0.00  0.00    +0.077 C 
ATOM     15  C   UNL     1      -5.744   0.619   2.843  0.00  0.00    +0.259 C 
ATOM     16  O   UNL     1      -6.436   1.447   2.276  0.00  0.00    -0.269 OA
ATOM     17  N   UNL     1      -5.834  -0.664   2.538  0.00  0.00    -0.251 N 
ATOM     18  C   UNL     1      -5.071  -1.583   3.171  0.00  0.00    +0.121 C 
ATOM     19  S   UNL     1      -5.027  -3.280   2.946  0.00  0.00    -0.027 S 
ATOM     20  S   UNL     1      -4.120  -0.577   4.300  0.00  0.00    -0.061 S 
BRANCH  17  21
ATOM     21  C   UNL     1      -6.777  -1.096   1.504  0.00  0.00    +0.150 C 
BRANCH  21  22
ATOM     22  C   UNL     1      -6.093  -1.080   0.161  0.00  0.00    -0.029 A 
ATOM     23  C   UNL     1      -5.435  -2.209  -0.292  0.00  0.00    +0.008 A 
ATOM     24  C   UNL     1      -4.812  -2.197  -1.526  0.00  0.00    +0.038 A 
ATOM     25  C   UNL     1      -4.842  -1.052  -2.305  0.00  0.00    +0.123 A 
ATOM     26  C   UNL     1      -5.496   0.079  -1.847  0.00  0.00    +0.038 A 
ATOM     27  C   UNL     1      -6.118   0.065  -0.613  0.00  0.00    +0.008 A 
ATOM     28  F   UNL     1      -4.233  -1.040  -3.511  0.00  0.00    -0.205 F 
ENDBRANCH  21  22
ENDBRANCH  17  21
ENDBRANCH   2  13
BRANCH   1  32
ATOM     29  N   UNL     1      -8.078   3.153   8.038  0.00  0.00    +0.382 N 
ATOM     30  C   UNL     1      -7.383   4.447   7.986  0.00  0.00    -0.060 C 
ATOM     31  C   UNL     1      -7.155   4.842   6.525  0.00  0.00    +0.088 C 
ATOM     32  N   UNL     1      -6.368   3.798   5.855  0.00  0.00    -0.318 N 
ATOM     33  C   UNL     1      -7.063   2.504   5.907  0.00  0.00    +0.088 C 
ATOM     34  C   UNL     1      -7.292   2.109   7.367  0.00  0.00    -0.060 C 
ATOM     35  H   UNL     1      -9.032   3.258   7.500  0.00  0.00    -0.082 HD
BRANCH  29  37
ATOM     36  C   UNL     1      -9.316   1.562   9.428  0.00  0.00    -0.017 C 
ATOM     37  C   UNL     1      -8.383   2.775   9.424  0.00  0.00    -0.082 C 
ENDBRANCH  29  37
ENDBRANCH   1  32
TORSDOF 5
