REMARK  Name = ZINC64899503
REMARK  9 active torsions:
REMARK  status: ('A' for Active; 'I' for Inactive)
REMARK    1  A    between atoms: C_1  and  O_2
REMARK    2  A    between atoms: O_2  and  C_3
REMARK    3  A    between atoms: C_3  and  C_4
REMARK    4  A    between atoms: C_4  and  N_5
REMARK    5  A    between atoms: N_8  and  N_9
REMARK    6  A    between atoms: C_10  and  C_12
REMARK    7  A    between atoms: C_13  and  C_14
REMARK    8  A    between atoms: C_17  and  S_20
REMARK    9  A    between atoms: S_20  and  C_21
REMARK                            x       y       z     vdW  Elec       q    Type
REMARK                         _______ _______ _______ _____ _____    ______ ____
ROOT
ATOM      1  N   UNL     1       0.673  -3.337   3.570  0.00  0.00    -0.230 N 
ATOM      2  C   UNL     1       1.260  -3.741   4.714  0.00  0.00    +0.253 C 
ATOM      3  O   UNL     1       1.466  -4.925   4.907  0.00  0.00    -0.269 OA
ATOM      4  H   UNL     1       0.509  -2.394   3.416  0.00  0.00    +0.173 HD
ENDROOT
BRANCH   1   8
ATOM      5  N   UNL     1      -0.515  -2.565   1.245  0.00  0.00    -0.296 N 
ATOM      6  C   UNL     1      -0.287  -3.876   1.459  0.00  0.00    +0.316 C 
ATOM      7  O   UNL     1      -0.611  -4.695   0.620  0.00  0.00    -0.251 OA
ATOM      8  N   UNL     1       0.300  -4.280   2.603  0.00  0.00    -0.218 N 
ATOM      9  H   UNL     1      -0.257  -1.913   1.914  0.00  0.00    +0.150 HD
ATOM     10  H   UNL     1       0.464  -5.224   2.757  0.00  0.00    +0.174 HD
BRANCH   5  11
ATOM     11  C   UNL     1      -1.154  -2.126   0.002  0.00  0.00    +0.134 C 
BRANCH  11  12
ATOM     12  C   UNL     1      -1.295  -0.603   0.011  0.00  0.00    +0.178 C 
BRANCH  12  14
ATOM     13  C   UNL     1      -0.017   1.425   0.010  0.00  0.00    +0.194 C 
ATOM     14  O   UNL     1       0.002  -0.004   0.002  0.00  0.00    -0.381 OA
ENDBRANCH  12  14
ENDBRANCH  11  12
ENDBRANCH   5  11
ENDBRANCH   1   8
BRANCH   2  15
ATOM     15  C   UNL     1       1.650  -2.757   5.722  0.00  0.00    +0.069 C 
ATOM     16  C   UNL     1       2.238  -3.162   6.869  0.00  0.00    +0.013 C 
BRANCH  16  17
ATOM     17  C   UNL     1       2.629  -2.173   7.882  0.00  0.00    -0.025 A 
ATOM     18  C   UNL     1       2.388  -0.811   7.664  0.00  0.00    +0.009 A 
ATOM     19  C   UNL     1       2.753   0.105   8.609  0.00  0.00    +0.015 A 
ATOM     20  C   UNL     1       3.366  -0.314   9.788  0.00  0.00    +0.016 A 
ATOM     21  C   UNL     1       3.608  -1.668  10.008  0.00  0.00    +0.015 A 
ATOM     22  C   UNL     1       3.240  -2.591   9.072  0.00  0.00    +0.009 A 
BRANCH  20  23
ATOM     23  S   UNL     1       3.835   0.872  11.004  0.00  0.00    -0.016 S 
BRANCH  23  24
ATOM     24  C   UNL     1       4.575  -0.125  12.326  0.00  0.00    +0.448 C 
ATOM     25  F   UNL     1       5.675  -0.827  11.822  0.00  0.00    -0.160 F 
ATOM     26  F   UNL     1       4.994   0.715  13.364  0.00  0.00    -0.160 F 
ATOM     27  F   UNL     1       3.627  -1.031  12.813  0.00  0.00    -0.160 F 
ENDBRANCH  23  24
ENDBRANCH  20  23
ENDBRANCH  16  17
ENDBRANCH   2  15
TORSDOF 8
