REMARK  Name = ZINC02133365
REMARK  4 active torsions:
REMARK  status: ('A' for Active; 'I' for Inactive)
REMARK    1  A    between atoms: C_12  and  C_14
REMARK    2  A    between atoms: C_14  and  C_15
REMARK    3  A    between atoms: C_18  and  O_21
REMARK    4  A    between atoms: N_24  and  C_27
REMARK                            x       y       z     vdW  Elec       q    Type
REMARK                         _______ _______ _______ _____ _____    ______ ____
ROOT
ATOM      1  C   UNL     1      -4.611   5.677  -0.700  0.00  0.00    +0.000 A 
ATOM      2  C   UNL     1      -4.280   6.949  -1.130  0.00  0.00    +0.002 A 
ATOM      3  C   UNL     1      -3.006   7.223  -1.583  0.00  0.00    +0.023 A 
ATOM      4  C   UNL     1      -2.041   6.218  -1.609  0.00  0.00    +0.036 A 
ATOM      5  C   UNL     1      -2.385   4.942  -1.173  0.00  0.00    -0.028 A 
ATOM      6  C   UNL     1      -3.658   4.673  -0.723  0.00  0.00    +0.004 A 
ATOM      7  C   UNL     1      -1.144   4.109  -1.324  0.00  0.00    +0.050 C 
ATOM      8  C   UNL     1      -0.699   3.514   0.017  0.00  0.00    +0.088 C 
ATOM      9  C   UNL     1      -1.260   2.065   0.019  0.00  0.00    +0.073 C 
ATOM     10  C   UNL     1      -1.991   1.918  -1.333  0.00  0.00    -0.053 C 
ATOM     11  C   UNL     1      -0.014   1.208   0.009  0.00  0.00    +0.224 C 
ATOM     12  O   UNL     1       0.002  -0.004   0.002  0.00  0.00    -0.275 OA
ATOM     13  N   UNL     1       1.067   1.996   0.003  0.00  0.00    -0.239 N 
ATOM     14  C   UNL     1       0.800   3.307   0.009  0.00  0.00    +0.225 C 
ATOM     15  O   UNL     1       1.629   4.191   0.009  0.00  0.00    -0.275 OA
ATOM     16  C   UNL     1      -0.108   5.046  -1.882  0.00  0.00    +0.211 C 
ATOM     17  O   UNL     1       1.042   4.774  -2.156  0.00  0.00    -0.277 OA
ATOM     18  N   UNL     1      -0.705   6.246  -2.017  0.00  0.00    -0.286 N 
ATOM     19  H   UNL     1      -0.260   7.037  -2.358  0.00  0.00    +0.155 HD
ATOM     20  N   UNL     1      -1.371   2.937  -2.182  0.00  0.00    +0.394 N 
ATOM     21  H   UNL     1      -0.479   2.592  -2.557  0.00  0.00    -0.083 HD
ATOM     22  H   UNL     1      -1.997   3.181  -2.959  0.00  0.00    -0.083 HD
ENDROOT
BRANCH  13  23
ATOM     23  C   UNL     1       2.433   1.467  -0.009  0.00  0.00    +0.084 C 
ATOM     24  C   UNL     1       2.648   0.670  -1.312  0.00  0.00    +0.023 C 
ATOM     25  C   UNL     1       4.127   0.569  -1.572  0.00  0.00    +0.002 C 
ATOM     26  C   UNL     1       4.736  -0.731  -1.014  0.00  0.00    +0.000 C 
ATOM     27  C   UNL     1       4.192  -1.095   0.381  0.00  0.00    +0.000 C 
ATOM     28  C   UNL     1       4.071   0.104   1.282  0.00  0.00    +0.002 C 
ATOM     29  C   UNL     1       2.632   0.650   1.179  0.00  0.00    +0.023 C 
ENDBRANCH  13  23
BRANCH  10  30
ATOM     30  C   UNL     1      -1.782   0.513  -1.901  0.00  0.00    +0.020 C 
BRANCH  30  31
ATOM     31  C   UNL     1      -2.602   0.351  -3.155  0.00  0.00    -0.049 A 
ATOM     32  C   UNL     1      -3.896  -0.129  -3.077  0.00  0.00    +0.007 A 
ATOM     33  C   UNL     1      -4.651  -0.273  -4.224  0.00  0.00    +0.045 A 
ATOM     34  C   UNL     1      -4.106   0.054  -5.457  0.00  0.00    +0.117 A 
ATOM     35  C   UNL     1      -2.806   0.531  -5.534  0.00  0.00    +0.045 A 
ATOM     36  C   UNL     1      -2.057   0.679  -4.383  0.00  0.00    +0.007 A 
BRANCH  34  37
ATOM     37  O   UNL     1      -4.845  -0.092  -6.589  0.00  0.00    -0.507 OA
ATOM     38  H   UNL     1      -4.761  -0.962  -7.003  0.00  0.00    +0.292 HD
ENDBRANCH  34  37
ENDBRANCH  30  31
ENDBRANCH  10  30
TORSDOF 4
