REMARK  Name = ZINC37543647
REMARK  6 active torsions:
REMARK  status: ('A' for Active; 'I' for Inactive)
REMARK    1  A    between atoms: C_1  and  C_2
REMARK    2  A    between atoms: C_2  and  C_3
REMARK    3  A    between atoms: C_2  and  C_4
REMARK    4  A    between atoms: C_2  and  C_5
REMARK    5  A    between atoms: N_7  and  C_11
REMARK    6  A    between atoms: C_16  and  N_17
REMARK                            x       y       z     vdW  Elec       q    Type
REMARK                         _______ _______ _______ _____ _____    ______ ____
ROOT
ATOM      1  C   UNL     1       0.707  -0.490  -1.238  0.00  0.00    +0.052 C 
ATOM      2  N   UNL     1       1.222   0.237  -2.151  0.00  0.00    -0.181 NA
ATOM      3  N   UNL     1       1.807  -0.501  -3.175  0.00  0.00    -0.159 N 
ATOM      4  C   UNL     1       1.685  -1.826  -2.949  0.00  0.00    +0.245 C 
ATOM      5  O   UNL     1       2.086  -2.734  -3.647  0.00  0.00    -0.273 OA
ATOM      6  C   UNL     1       0.944  -1.933  -1.630  0.00  0.00    +0.151 C 
ENDROOT
BRANCH   3   7
ATOM      7  C   UNL     1       2.439   0.058  -4.294  0.00  0.00    +0.081 A 
ATOM      8  C   UNL     1       3.743  -0.297  -4.606  0.00  0.00    +0.027 A 
ATOM      9  C   UNL     1       4.364   0.255  -5.710  0.00  0.00    +0.002 A 
ATOM     10  C   UNL     1       3.689   1.161  -6.508  0.00  0.00    +0.002 A 
ATOM     11  C   UNL     1       2.389   1.521  -6.205  0.00  0.00    +0.024 A 
ATOM     12  C   UNL     1       1.756   0.967  -5.102  0.00  0.00    +0.048 A 
BRANCH  12  13
ATOM     13  N   UNL     1       0.438   1.324  -4.797  0.00  0.00    -0.356 N 
ATOM     14  H   UNL     1      -0.002   0.939  -4.023  0.00  0.00    +0.142 HD
ATOM     15  H   UNL     1      -0.035   1.957  -5.359  0.00  0.00    +0.142 HD
ENDBRANCH  12  13
ENDBRANCH   3   7
BRANCH   1  17
ATOM     16  C   UNL     1      -0.019   1.526   0.010  0.00  0.00    +0.017 C 
ATOM     17  C   UNL     1       0.002  -0.004   0.002  0.00  0.00    +0.003 C 
ATOM     18  C   UNL     1       0.742  -0.511   1.242  0.00  0.00    +0.017 C 
ATOM     19  C   UNL     1      -1.433  -0.534   0.013  0.00  0.00    +0.017 C 
ENDBRANCH   1  17
TORSDOF 3
