REMARK  Name = ZINC06656018
REMARK  7 active torsions:
REMARK  status: ('A' for Active; 'I' for Inactive)
REMARK    1  A    between atoms: C_1  and  C_2
REMARK    2  A    between atoms: C_2  and  O_3
REMARK    3  A    between atoms: O_3  and  C_4
REMARK    4  A    between atoms: C_4  and  C_6
REMARK    5  A    between atoms: C_10  and  N_11
REMARK    6  A    between atoms: C_12  and  C_14
REMARK    7  A    between atoms: C_29  and  N_54
REMARK                            x       y       z     vdW  Elec       q    Type
REMARK                         _______ _______ _______ _____ _____    ______ ____
ROOT
ATOM      1  C   UNL     1      -1.075  -0.882   0.008  0.00  0.00    +0.091 A 
ATOM      2  C   UNL     1      -0.779  -2.303  -0.003  0.00  0.00    -0.025 A 
ATOM      3  C   UNL     1       0.535  -2.619  -0.016  0.00  0.00    -0.021 A 
ATOM      4  S   UNL     1       1.375  -1.062  -0.024  0.00  0.00    -0.079 S 
ATOM      5  C   UNL     1       0.002  -0.004   0.002  0.00  0.00    +0.086 A 
ATOM      6  C   UNL     1       1.118  -3.998  -0.027  0.00  0.00    -0.036 C 
ATOM      7  C   UNL     1      -1.160  -4.706  -0.455  0.00  0.00    -0.074 C 
ATOM      8  C   UNL     1      -1.831  -3.406  -0.003  0.00  0.00    +0.018 C 
ATOM      9  C   UNL     1       0.512  -6.338   0.185  0.00  0.00    -0.096 C 
ATOM     10  N   UNL     1       0.046  -4.946   0.365  0.00  0.00    +0.381 N 
ATOM     11  H   UNL     1      -0.187  -4.797   1.353  0.00  0.00    -0.082 HD
ENDROOT
BRANCH   5  12
ATOM     12  N   UNL     1      -0.017   1.381   0.010  0.00  0.00    -0.275 N 
ATOM     13  C   UNL     1       1.141   2.070   0.002  0.00  0.00    +0.249 C 
ATOM     14  O   UNL     1       2.203   1.476  -0.011  0.00  0.00    -0.270 OA
ATOM     15  H   UNL     1      -0.863   1.854   0.016  0.00  0.00    +0.156 HD
BRANCH  13  16
ATOM     16  C   UNL     1       1.121   3.544   0.010  0.00  0.00    +0.045 A 
ATOM     17  C   UNL     1      -0.081   4.248   0.026  0.00  0.00    +0.014 A 
ATOM     18  C   UNL     1      -0.118   5.638   0.033  0.00  0.00    +0.005 A 
ATOM     19  C   UNL     1       1.027   6.378   0.026  0.00  0.00    -0.039 A 
ATOM     20  C   UNL     1       2.251   5.717   0.012  0.00  0.00    -0.011 A 
ATOM     21  C   UNL     1       2.361   4.316   0.009  0.00  0.00    -0.005 A 
ATOM     22  C   UNL     1       3.642   3.754  -0.011  0.00  0.00    +0.009 A 
ATOM     23  C   UNL     1       4.726   4.587  -0.014  0.00  0.00    +0.001 A 
ATOM     24  C   UNL     1       4.596   5.977  -0.005  0.00  0.00    +0.004 A 
ATOM     25  C   UNL     1       3.363   6.554   0.008  0.00  0.00    -0.039 A 
ATOM     26  C   UNL     1       2.857   7.975   0.019  0.00  0.00    +0.040 C 
ATOM     27  C   UNL     1       1.318   7.861   0.032  0.00  0.00    +0.040 C 
ENDBRANCH  13  16
ENDBRANCH   5  12
BRANCH   1  28
ATOM     28  C   UNL     1      -2.455  -0.393   0.023  0.00  0.00    +0.342 C 
ATOM     29  O   UNL     1      -3.038  -0.184  -1.024  0.00  0.00    -0.245 OA
BRANCH  28  30
ATOM     30  O   UNL     1      -3.080  -0.175   1.198  0.00  0.00    -0.461 OA
BRANCH  30  32
ATOM     31  C   UNL     1      -4.986   0.497   2.558  0.00  0.00    +0.048 C 
ATOM     32  C   UNL     1      -4.447   0.310   1.138  0.00  0.00    +0.229 C 
ENDBRANCH  30  32
ENDBRANCH  28  30
ENDBRANCH   1  28
TORSDOF 5
