REMARK  Name = ZINC01962292
REMARK  12 active torsions:
REMARK  status: ('A' for Active; 'I' for Inactive)
REMARK    1  A    between atoms: C_1  and  C_2
REMARK    2  A    between atoms: C_4  and  O_10
REMARK    3  A    between atoms: C_6  and  C_9
REMARK    4  A    between atoms: O_10  and  C_11
REMARK    5  A    between atoms: C_16  and  O_22
REMARK    6  A    between atoms: O_22  and  C_23
REMARK    7  A    between atoms: C_23  and  C_25
REMARK    8  A    between atoms: C_26  and  C_27
REMARK    9  A    between atoms: C_30  and  O_35
REMARK   10  A    between atoms: C_31  and  O_33
REMARK   11  A    between atoms: O_33  and  C_34
REMARK   12  A    between atoms: O_35  and  C_36
REMARK                            x       y       z     vdW  Elec       q    Type
REMARK                         _______ _______ _______ _____ _____    ______ ____
ROOT
ATOM      1  C   UNL     1      -1.175   3.403   0.141  0.00  0.00    +0.210 A 
ATOM      2  C   UNL     1       0.003   4.058   0.153  0.00  0.00    +0.245 A 
ATOM      3  O   UNL     1       0.089   5.391   0.253  0.00  0.00    -0.459 OA
ATOM      4  C   UNL     1      -0.998   6.180   0.364  0.00  0.00    +0.142 A 
ATOM      5  C   UNL     1      -0.873   7.558   0.473  0.00  0.00    +0.093 A 
ATOM      6  C   UNL     1      -2.007   8.344   0.585  0.00  0.00    +0.135 A 
ATOM      7  C   UNL     1      -3.274   7.764   0.590  0.00  0.00    +0.047 A 
ATOM      8  C   UNL     1      -3.414   6.410   0.483  0.00  0.00    +0.019 A 
ATOM      9  C   UNL     1      -2.281   5.604   0.369  0.00  0.00    +0.068 A 
ATOM     10  C   UNL     1      -2.389   4.139   0.252  0.00  0.00    +0.234 A 
ATOM     11  O   UNL     1      -3.473   3.580   0.251  0.00  0.00    -0.283 OA
ENDROOT
BRANCH   1  12
ATOM     12  O   UNL     1      -1.204   2.047   0.030  0.00  0.00    -0.449 OA
BRANCH  12  16
ATOM     13  C   UNL     1       2.729   0.608   2.537  0.00  0.00    +0.045 C 
ATOM     14  C   UNL     1       1.921   0.653   1.265  0.00  0.00    -0.028 A 
ATOM     15  C   UNL     1       0.722   1.337   1.233  0.00  0.00    +0.051 A 
ATOM     16  C   UNL     1      -0.021   1.379   0.062  0.00  0.00    +0.129 A 
ATOM     17  C   UNL     1       0.442   0.732  -1.075  0.00  0.00    +0.051 A 
ATOM     18  C   UNL     1       1.642   0.048  -1.039  0.00  0.00    -0.028 A 
ATOM     19  C   UNL     1       2.382   0.008   0.130  0.00  0.00    +0.047 A 
ATOM     20 CL   UNL     1       3.889  -0.851   0.173  0.00  0.00    -0.083 Cl
ATOM     21  C   UNL     1       2.146  -0.655  -2.273  0.00  0.00    +0.045 C 
ENDBRANCH  12  16
ENDBRANCH   1  12
BRANCH   6  22
ATOM     22  O   UNL     1      -1.883   9.692   0.692  0.00  0.00    -0.423 OA
BRANCH  22  23
ATOM     23  C   UNL     1      -2.075  10.252   1.905  0.00  0.00    +0.337 C 
ATOM     24  O   UNL     1      -2.438   9.565   2.841  0.00  0.00    -0.245 OA
BRANCH  23  25
ATOM     25  C   UNL     1      -1.854  11.640   2.088  0.00  0.00    +0.092 C 
ATOM     26  C   UNL     1      -2.046  12.200   3.302  0.00  0.00    +0.015 C 
BRANCH  26  27
ATOM     27  C   UNL     1      -1.817  13.639   3.491  0.00  0.00    -0.021 A 
ATOM     28  C   UNL     1      -1.399  14.431   2.416  0.00  0.00    +0.012 A 
ATOM     29  C   UNL     1      -1.185  15.780   2.596  0.00  0.00    +0.050 A 
ATOM     30  C   UNL     1      -1.382  16.357   3.844  0.00  0.00    +0.162 A 
ATOM     31  C   UNL     1      -1.798  15.575   4.920  0.00  0.00    +0.162 A 
ATOM     32  C   UNL     1      -2.021  14.223   4.747  0.00  0.00    +0.057 A 
BRANCH  31  33
ATOM     33  O   UNL     1      -1.990  16.145   6.140  0.00  0.00    -0.491 OA
ATOM     34  C   UNL     1      -2.417  15.284   7.198  0.00  0.00    +0.277 C 
ENDBRANCH  31  33
BRANCH  30  35
ATOM     35  O   UNL     1      -1.170  17.688   4.015  0.00  0.00    -0.491 OA
ATOM     36  C   UNL     1      -0.745  18.430   2.870  0.00  0.00    +0.277 C 
ENDBRANCH  30  35
ENDBRANCH  26  27
ENDBRANCH  23  25
ENDBRANCH  22  23
ENDBRANCH   6  22
TORSDOF 8
