REMARK  Name = ZINC37022274
REMARK  5 active torsions:
REMARK  status: ('A' for Active; 'I' for Inactive)
REMARK    1  A    between atoms: C_2  and  N_23
REMARK    2  A    between atoms: C_4  and  S_9
REMARK    3  A    between atoms: S_9  and  C_10
REMARK    4  A    between atoms: C_10  and  C_11
REMARK    5  A    between atoms: C_17  and  C_20
REMARK                            x       y       z     vdW  Elec       q    Type
REMARK                         _______ _______ _______ _____ _____    ______ ____
ROOT
ATOM      1  C   UNL     1       5.128   0.555  -0.044  0.00  0.00    +0.173 C 
ENDROOT
BRANCH   1   2
ATOM      2  C   UNL     1       6.510  -0.045  -0.060  0.00  0.00    +0.226 C 
ATOM      3  O   UNL     1       6.649  -1.249  -0.068  0.00  0.00    -0.275 OA
ATOM      4  N   UNL     1       7.593   0.758  -0.066  0.00  0.00    -0.300 N 
ATOM      5  C   UNL     1       7.441   2.220  -0.051  0.00  0.00    +0.108 C 
ATOM      6  C   UNL     1       8.232   2.810  -1.223  0.00  0.00    +0.020 C 
ATOM      7  C   UNL     1       9.682   2.328  -1.148  0.00  0.00    +0.016 C 
ATOM      8  C   UNL     1       9.721   0.802  -1.259  0.00  0.00    +0.092 C 
ATOM      9  C   UNL     1       8.947   0.189  -0.082  0.00  0.00    +0.120 C 
BRANCH   8  10
ATOM     10  C   UNL     1      11.152   0.331  -1.219  0.00  0.00    +0.215 C 
ATOM     11  O   UNL     1      12.053   1.136  -1.112  0.00  0.00    -0.276 OA
ATOM     12  N   UNL     1      11.431  -0.985  -1.302  0.00  0.00    -0.329 N 
ATOM     13  H   UNL     1      10.710  -1.629  -1.388  0.00  0.00    +0.145 HD
ATOM     14  H   UNL     1      12.352  -1.288  -1.276  0.00  0.00    +0.145 HD
ENDBRANCH   8  10
ENDBRANCH   1   2
BRANCH   1  15
ATOM     15  S   UNL     1       3.893  -0.774  -0.039  0.00  0.00    -0.078 S 
BRANCH  15  19
ATOM     16  C   UNL     1      -0.017   1.394   0.010  0.00  0.00    +0.113 A 
ATOM     17  C   UNL     1       1.191   2.078   0.002  0.00  0.00    +0.124 A 
ATOM     18  N   UNL     1       2.341   1.395  -0.013  0.00  0.00    -0.209 NA
ATOM     19  C   UNL     1       2.350   0.077  -0.020  0.00  0.00    +0.171 A 
ATOM     20  N   UNL     1       1.192  -0.640  -0.013  0.00  0.00    -0.302 N 
ATOM     21  H   UNL     1       1.223  -1.609  -0.019  0.00  0.00    +0.171 HD
ATOM     22  C   UNL     1       0.002  -0.004   0.002  0.00  0.00    +0.254 A 
ATOM     23  O   UNL     1      -1.041  -0.639   0.009  0.00  0.00    -0.268 OA
BRANCH  17  24
ATOM     24  N   UNL     1       1.205   3.458   0.009  0.00  0.00    -0.343 N 
ATOM     25  H   UNL     1       0.370   3.952   0.019  0.00  0.00    +0.144 HD
ATOM     26  H   UNL     1       2.050   3.935   0.003  0.00  0.00    +0.144 HD
ENDBRANCH  17  24
ENDBRANCH  15  19
ENDBRANCH   1  15
TORSDOF 5
