REMARK  Name = ZINC21231933
REMARK  12 active torsions:
REMARK  status: ('A' for Active; 'I' for Inactive)
REMARK    1  A    between atoms: C_1  and  C_2
REMARK    2  A    between atoms: C_2  and  C_3
REMARK    3  A    between atoms: C_3  and  O_4
REMARK    4  A    between atoms: O_4  and  C_5
REMARK    5  A    between atoms: C_6  and  C_13
REMARK    6  A    between atoms: C_10  and  O_11
REMARK    7  A    between atoms: O_11  and  C_12
REMARK    8  A    between atoms: C_18  and  C_23
REMARK    9  A    between atoms: C_26  and  O_31
REMARK   10  A    between atoms: C_27  and  O_29
REMARK   11  A    between atoms: O_29  and  C_30
REMARK   12  A    between atoms: O_31  and  C_32
REMARK                            x       y       z     vdW  Elec       q    Type
REMARK                         _______ _______ _______ _____ _____    ______ ____
ROOT
ATOM      1  C   UNL     1       2.298   0.449   3.554  0.00  0.00    +0.140 C 
ATOM      2  C   UNL     1       1.442   0.913   2.401  0.00  0.00    +0.037 C 
ATOM      3  C   UNL     1       0.111   1.098   2.431  0.00  0.00    +0.017 C 
ATOM      4  C   UNL     1      -0.629   1.585   1.196  0.00  0.00    +0.059 C 
ATOM      5  C   UNL     1       0.064   1.070  -0.065  0.00  0.00    +0.032 C 
ATOM      6  C   UNL     1       1.502   1.601  -0.057  0.00  0.00    +0.088 C 
ATOM      7  C   UNL     1       2.168   1.156   1.211  0.00  0.00    +0.163 C 
ATOM      8  O   UNL     1       3.373   0.998   1.216  0.00  0.00    -0.292 OA
ATOM      9  N   UNL     1      -0.672   0.895   3.522  0.00  0.00    -0.316 N 
ATOM     10  C   UNL     1      -0.613  -0.220   4.349  0.00  0.00    +0.052 A 
ATOM     11  C   UNL     1      -1.684  -1.082   4.506  0.00  0.00    +0.025 A 
ATOM     12  C   UNL     1      -1.600  -2.106   5.434  0.00  0.00    +0.002 A 
ATOM     13  C   UNL     1      -0.456  -2.266   6.195  0.00  0.00    +0.002 A 
ATOM     14  C   UNL     1       0.625  -1.419   6.022  0.00  0.00    +0.025 A 
ATOM     15  C   UNL     1       0.550  -0.404   5.081  0.00  0.00    +0.049 A 
ATOM     16  N   UNL     1       1.629   0.445   4.838  0.00  0.00    -0.331 N 
ATOM     17  H   UNL     1      -1.423   1.647   3.807  0.00  0.00    +0.152 HD
ATOM     18  H   UNL     1       1.970   1.118   5.638  0.00  0.00    +0.147 HD
ENDROOT
BRANCH   1  20
ATOM     19  C   UNL     1       3.890  -1.453   3.912  0.00  0.00    +0.167 A 
ATOM     20  C   UNL     1       2.775  -0.950   3.261  0.00  0.00    +0.023 A 
ATOM     21  C   UNL     1       2.104  -1.730   2.337  0.00  0.00    +0.009 A 
ATOM     22  C   UNL     1       2.539  -3.014   2.066  0.00  0.00    +0.004 A 
ATOM     23  C   UNL     1       3.647  -3.524   2.717  0.00  0.00    +0.049 A 
ATOM     24  C   UNL     1       4.324  -2.748   3.644  0.00  0.00    +0.162 A 
BRANCH  24  25
ATOM     25  O   UNL     1       5.414  -3.248   4.285  0.00  0.00    -0.491 OA
ATOM     26  C   UNL     1       5.806  -4.581   3.954  0.00  0.00    +0.277 C 
ENDBRANCH  24  25
BRANCH  19  27
ATOM     27  O   UNL     1       4.554  -0.685   4.817  0.00  0.00    -0.488 OA
BRANCH  27  28
ATOM     28  C   UNL     1       4.214  -0.864   6.194  0.00  0.00    +0.229 C 
BRANCH  28  30
ATOM     29  C   UNL     1       4.610  -0.034   8.517  0.00  0.00    +0.007 C 
ATOM     30  C   UNL     1       4.974   0.157   7.043  0.00  0.00    +0.038 C 
ENDBRANCH  28  30
ENDBRANCH  27  28
ENDBRANCH  19  27
ENDBRANCH   1  20
BRANCH   5  31
ATOM     31  C   UNL     1      -0.660   1.572  -1.287  0.00  0.00    -0.040 A 
ATOM     32  C   UNL     1      -0.794   2.931  -1.500  0.00  0.00    +0.008 A 
ATOM     33  C   UNL     1      -1.457   3.397  -2.620  0.00  0.00    +0.049 A 
ATOM     34  C   UNL     1      -1.988   2.501  -3.533  0.00  0.00    +0.161 A 
ATOM     35  C   UNL     1      -1.853   1.132  -3.320  0.00  0.00    +0.162 A 
ATOM     36  C   UNL     1      -1.183   0.672  -2.197  0.00  0.00    +0.053 A 
BRANCH  35  37
ATOM     37  O   UNL     1      -2.373   0.248  -4.213  0.00  0.00    -0.491 OA
ATOM     38  C   UNL     1      -2.195  -1.141  -3.929  0.00  0.00    +0.277 C 
ENDBRANCH  35  37
BRANCH  34  39
ATOM     39  O   UNL     1      -2.640   2.957  -4.636  0.00  0.00    -0.491 OA
ATOM     40  C   UNL     1      -2.741   4.374  -4.790  0.00  0.00    +0.277 C 
ENDBRANCH  34  39
ENDBRANCH   5  31
TORSDOF 8
