REMARK  Name = ZINC02254272
REMARK  9 active torsions:
REMARK  status: ('A' for Active; 'I' for Inactive)
REMARK    1  A    between atoms: C_1  and  C_2
REMARK    2  A    between atoms: C_5  and  C_8
REMARK    3  A    between atoms: C_19  and  C_21
REMARK    4  A    between atoms: C_24  and  O_29
REMARK    5  A    between atoms: C_25  and  O_27
REMARK    6  A    between atoms: O_27  and  C_28
REMARK    7  A    between atoms: O_29  and  C_30
REMARK    8  A    between atoms: C_35  and  S_37
REMARK    9  A    between atoms: S_37  and  C_38
REMARK                            x       y       z     vdW  Elec       q    Type
REMARK                         _______ _______ _______ _____ _____    ______ ____
ROOT
ATOM      1  C   UNL     1       0.070  -4.003  -0.682  0.00  0.00    +0.159 C 
ATOM      2  C   UNL     1      -1.157  -4.568  -0.001  0.00  0.00    +0.025 C 
ATOM      3  C   UNL     1      -0.988  -5.244   1.155  0.00  0.00    +0.058 C 
ATOM      4  C   UNL     1      -2.200  -5.801   1.806  0.00  0.00    +0.040 A 
ATOM      5  C   UNL     1      -2.183  -6.224   3.128  0.00  0.00    +0.013 A 
ATOM      6  C   UNL     1      -3.335  -6.735   3.695  0.00  0.00    +0.001 A 
ATOM      7  C   UNL     1      -4.498  -6.825   2.950  0.00  0.00    +0.004 A 
ATOM      8  C   UNL     1      -4.523  -6.406   1.633  0.00  0.00    +0.046 A 
ATOM      9  C   UNL     1      -3.377  -5.893   1.051  0.00  0.00    +0.131 A 
ATOM     10  O   UNL     1      -3.370  -5.482  -0.242  0.00  0.00    -0.479 OA
ATOM     11  C   UNL     1      -2.528  -4.379  -0.582  0.00  0.00    +0.234 C 
ATOM     12  N   UNL     1       0.240  -5.412   1.704  0.00  0.00    -0.326 N 
ATOM     13  C   UNL     1       1.357  -4.954   1.179  0.00  0.00    +0.216 C 
ATOM     14  N   UNL     1       1.348  -4.245  -0.002  0.00  0.00    -0.209 N 
ATOM     15  N   UNL     1       2.675  -3.908  -0.279  0.00  0.00    -0.239 N 
ATOM     16  C   UNL     1       3.426  -4.422   0.746  0.00  0.00    +0.174 C 
ATOM     17  N   UNL     1       2.635  -5.035   1.590  0.00  0.00    -0.192 NA
ATOM     18  H   UNL     1       0.299  -5.902   2.539  0.00  0.00    +0.169 HD
ATOM     19  H   UNL     1       3.001  -3.410  -1.045  0.00  0.00    +0.172 HD
ENDROOT
BRANCH   1  24
ATOM     20  C   UNL     1      -0.637   1.708  -1.213  0.00  0.00    +0.044 C 
ATOM     21  C   UNL     1      -0.453   0.218  -1.074  0.00  0.00    -0.050 A 
ATOM     22  C   UNL     1      -0.654  -0.607  -2.164  0.00  0.00    +0.004 A 
ATOM     23  C   UNL     1      -0.485  -1.973  -2.037  0.00  0.00    +0.006 A 
ATOM     24  C   UNL     1      -0.114  -2.514  -0.820  0.00  0.00    -0.021 A 
ATOM     25  C   UNL     1       0.088  -1.688   0.270  0.00  0.00    +0.006 A 
ATOM     26  C   UNL     1      -0.077  -0.321   0.142  0.00  0.00    +0.004 A 
ENDBRANCH   1  24
BRANCH  11  27
ATOM     27  C   UNL     1      -3.128  -3.108  -0.038  0.00  0.00    +0.001 A 
ATOM     28  C   UNL     1      -3.281  -2.010  -0.864  0.00  0.00    +0.011 A 
ATOM     29  C   UNL     1      -3.832  -0.841  -0.371  0.00  0.00    +0.050 A 
ATOM     30  C   UNL     1      -4.231  -0.769   0.954  0.00  0.00    +0.162 A 
ATOM     31  C   UNL     1      -4.078  -1.875   1.785  0.00  0.00    +0.162 A 
ATOM     32  C   UNL     1      -3.530  -3.044   1.283  0.00  0.00    +0.057 A 
BRANCH  31  33
ATOM     33  O   UNL     1      -4.469  -1.809   3.086  0.00  0.00    -0.491 OA
ATOM     34  C   UNL     1      -4.180  -2.942   3.908  0.00  0.00    +0.277 C 
ENDBRANCH  31  33
BRANCH  30  35
ATOM     35  O   UNL     1      -4.772   0.379   1.441  0.00  0.00    -0.491 OA
ATOM     36  C   UNL     1      -4.899   1.474   0.531  0.00  0.00    +0.277 C 
ENDBRANCH  30  35
ENDBRANCH  11  27
BRANCH  16  37
ATOM     37  S   UNL     1       5.176  -4.286   0.900  0.00  0.00    -0.092 S 
ATOM     38  C   UNL     1       5.550  -5.159   2.445  0.00  0.00    +0.093 C 
ENDBRANCH  16  37
TORSDOF 5
