REMARK  Name = ZINC20889142
REMARK  9 active torsions:
REMARK  status: ('A' for Active; 'I' for Inactive)
REMARK    1  A    between atoms: C_1  and  C_2
REMARK    2  A    between atoms: C_2  and  N_3
REMARK    3  A    between atoms: C_12  and  S_13
REMARK    4  A    between atoms: S_13  and  C_14
REMARK    5  A    between atoms: C_14  and  C_15
REMARK    6  A    between atoms: N_17  and  C_18
REMARK    7  A    between atoms: C_20  and  N_25
REMARK    8  A    between atoms: C_23  and  C_24
REMARK    9  A    between atoms: C_29  and  C_33
REMARK                            x       y       z     vdW  Elec       q    Type
REMARK                         _______ _______ _______ _____ _____    ______ ____
ROOT
ATOM      1  N   UNL     1       5.106   9.750  -0.565  0.00  0.00    -0.288 N 
ATOM      2  C   UNL     1       6.343  10.272  -0.662  0.00  0.00    +0.263 A 
ATOM      3  O   UNL     1       6.499  11.477  -0.756  0.00  0.00    -0.267 OA
ATOM      4  C   UNL     1       7.471   9.392  -0.656  0.00  0.00    +0.076 A 
ATOM      5  C   UNL     1       8.890   9.736  -0.753  0.00  0.00    -0.023 A 
ATOM      6  C   UNL     1       9.771   8.716  -0.725  0.00  0.00    -0.004 A 
ATOM      7  S   UNL     1       8.779   7.255  -0.570  0.00  0.00    -0.073 S 
ATOM      8  C   UNL     1       7.178   8.022  -0.543  0.00  0.00    +0.117 A 
ATOM      9  N   UNL     1       5.933   7.571  -0.447  0.00  0.00    -0.216 NA
ATOM     10  C   UNL     1       4.912   8.404  -0.453  0.00  0.00    +0.173 A 
ATOM     11  C   UNL     1      11.265   8.803  -0.807  0.00  0.00    +0.046 C 
ATOM     12  C   UNL     1      11.642  10.207  -1.301  0.00  0.00    -0.009 C 
ATOM     13  C   UNL     1      10.850  11.241  -0.495  0.00  0.00    +0.008 C 
ATOM     14  C   UNL     1       9.372  11.179  -0.880  0.00  0.00    +0.037 C 
ATOM     15  C   UNL     1      13.141  10.436  -1.103  0.00  0.00    +0.008 C 
ENDROOT
BRANCH   1  17
ATOM     16  C   UNL     1       3.614  11.065   0.858  0.00  0.00    +0.027 C 
ATOM     17  C   UNL     1       3.946  10.645  -0.575  0.00  0.00    +0.124 C 
ENDBRANCH   1  17
BRANCH  10  18
ATOM     18  S   UNL     1       3.273   7.770  -0.323  0.00  0.00    -0.078 S 
BRANCH  18  19
ATOM     19  C   UNL     1       3.629   5.998  -0.216  0.00  0.00    +0.173 C 
BRANCH  19  20
ATOM     20  C   UNL     1       2.336   5.233  -0.094  0.00  0.00    +0.227 C 
ATOM     21  O   UNL     1       1.279   5.827  -0.082  0.00  0.00    -0.275 OA
ATOM     22  N   UNL     1       2.356   3.889   0.001  0.00  0.00    -0.285 N 
ATOM     23  H   UNL     1       3.315   3.357   0.081  0.00  0.00    +0.155 HD
BRANCH  22  24
ATOM     24  C   UNL     1       1.155   3.170  -0.003  0.00  0.00    +0.038 A 
ATOM     25  C   UNL     1       0.023   3.709  -0.599  0.00  0.00    +0.056 A 
ATOM     26  C   UNL     1      -1.161   2.998  -0.601  0.00  0.00    +0.128 A 
ATOM     27  C   UNL     1      -1.217   1.746  -0.015  0.00  0.00    +0.033 A 
ATOM     28  C   UNL     1      -0.093   1.208   0.583  0.00  0.00    +0.007 A 
ATOM     29  C   UNL     1       1.094   1.915   0.588  0.00  0.00    -0.029 A 
ATOM     30  C   UNL     1       2.321   1.325   1.235  0.00  0.00    +0.045 C 
BRANCH  26  31
ATOM     31  N   UNL     1      -2.368   3.572  -1.235  0.00  0.00    +0.056 N 
ATOM     32  O   UNL     1      -2.318   4.672  -1.755  0.00  0.00    -0.126 OA
ATOM     33  O   UNL     1      -3.412   2.945  -1.237  0.00  0.00    -0.126 OA
ENDBRANCH  26  31
ENDBRANCH  22  24
ENDBRANCH  19  20
ENDBRANCH  18  19
ENDBRANCH  10  18
TORSDOF 6
