REMARK  Name = ZINC36055628
REMARK  16 active torsions:
REMARK  status: ('A' for Active; 'I' for Inactive)
REMARK    1  A    between atoms: C_1  and  C_2
REMARK    2  A    between atoms: C_2  and  C_3
REMARK    3  A    between atoms: N_5  and  C_6
REMARK    4  A    between atoms: N_5  and  C_11
REMARK    5  A    between atoms: C_6  and  C_7
REMARK    6  A    between atoms: C_7  and  N_8
REMARK    7  A    between atoms: N_8  and  C_9
REMARK    8  A    between atoms: N_8  and  C_10
REMARK    9  A    between atoms: C_11  and  C_12
REMARK   10  A    between atoms: C_12  and  N_14
REMARK   11  A    between atoms: C_17  and  C_28
REMARK   12  A    between atoms: N_19  and  C_20
REMARK   13  A    between atoms: C_23  and  O_26
REMARK   14  A    between atoms: O_26  and  C_27
REMARK   15  A    between atoms: C_31  and  O_34
REMARK   16  A    between atoms: O_34  and  C_35
REMARK                            x       y       z     vdW  Elec       q    Type
REMARK                         _______ _______ _______ _____ _____    ______ ____
ROOT
ATOM      1  N   UNL     1      -1.796  -3.982  -0.123  0.00  0.00    -0.145 NA
ATOM      2  C   UNL     1      -3.053  -4.286  -0.449  0.00  0.00    +0.205 A 
ATOM      3  N   UNL     1      -3.744  -3.794  -1.510  0.00  0.00    -0.326 N 
ATOM      4  C   UNL     1      -5.012  -4.360  -1.492  0.00  0.00    +0.066 A 
ATOM      5  C   UNL     1      -5.082  -5.184  -0.431  0.00  0.00    +0.120 A 
ATOM      6  N   UNL     1      -3.865  -5.148   0.219  0.00  0.00    -0.287 N 
ATOM      7  H   UNL     1      -3.411  -3.159  -2.163  0.00  0.00    +0.169 HD
ENDROOT
BRANCH   6   8
ATOM      8  C   UNL     1      -3.526  -5.872   1.371  0.00  0.00    +0.049 A 
ATOM      9  C   UNL     1      -2.263  -5.735   1.931  0.00  0.00    +0.030 A 
ATOM     10  C   UNL     1      -1.929  -6.448   3.065  0.00  0.00    +0.047 A 
ATOM     11  C   UNL     1      -2.857  -7.302   3.645  0.00  0.00    +0.120 A 
ATOM     12  C   UNL     1      -4.119  -7.439   3.086  0.00  0.00    +0.047 A 
ATOM     13  C   UNL     1      -4.455  -6.722   1.955  0.00  0.00    +0.030 A 
BRANCH  11  14
ATOM     14  O   UNL     1      -2.528  -8.004   4.762  0.00  0.00    -0.495 OA
ATOM     15  C   UNL     1      -3.531  -8.864   5.306  0.00  0.00    +0.277 C 
ENDBRANCH  11  14
ENDBRANCH   6   8
BRANCH   4  16
ATOM     16  C   UNL     1      -6.095  -4.102  -2.467  0.00  0.00    +0.000 A 
ATOM     17  C   UNL     1      -7.329  -4.737  -2.326  0.00  0.00    +0.013 A 
ATOM     18  C   UNL     1      -8.336  -4.494  -3.236  0.00  0.00    +0.046 A 
ATOM     19  C   UNL     1      -8.123  -3.618  -4.292  0.00  0.00    +0.120 A 
ATOM     20  C   UNL     1      -6.896  -2.984  -4.436  0.00  0.00    +0.046 A 
ATOM     21  C   UNL     1      -5.886  -3.218  -3.526  0.00  0.00    +0.013 A 
BRANCH  19  22
ATOM     22  O   UNL     1      -9.117  -3.381  -5.188  0.00  0.00    -0.495 OA
ATOM     23  C   UNL     1      -8.830  -2.469  -6.250  0.00  0.00    +0.277 C 
ENDBRANCH  19  22
ENDBRANCH   4  16
BRANCH   1  24
ATOM     24  C   UNL     1      -1.108  -3.120  -0.863  0.00  0.00    +0.256 C 
ATOM     25  O   UNL     1      -1.625  -2.608  -1.838  0.00  0.00    -0.272 OA
BRANCH  24  26
ATOM     26  C   UNL     1       0.312  -2.777  -0.495  0.00  0.00    +0.205 C 
BRANCH  26  29
ATOM     27  C   UNL     1       0.707  -0.490  -1.238  0.00  0.00    +0.216 C 
ATOM     28  O   UNL     1       1.150   0.308  -2.036  0.00  0.00    -0.276 OA
ATOM     29  N   UNL     1       0.847  -1.812  -1.460  0.00  0.00    -0.294 N 
BRANCH  27  31
ATOM     30  C   UNL     1      -0.019   1.526   0.010  0.00  0.00    +0.013 C 
ATOM     31  C   UNL     1       0.002  -0.004   0.002  0.00  0.00    +0.092 C 
ENDBRANCH  27  31
BRANCH  29  32
ATOM     32  C   UNL     1       1.532  -2.285  -2.665  0.00  0.00    +0.090 C 
BRANCH  32  33
ATOM     33  C   UNL     1       3.027  -2.436  -2.375  0.00  0.00    -0.060 C 
BRANCH  33  34
ATOM     34  N   UNL     1       3.715  -2.910  -3.584  0.00  0.00    +0.377 N 
ATOM     35  C   UNL     1       3.624  -1.885  -4.632  0.00  0.00    -0.097 C 
ATOM     36  C   UNL     1       5.127  -3.169  -3.274  0.00  0.00    -0.097 C 
ATOM     37  H   UNL     1       3.279  -3.761  -3.907  0.00  0.00    -0.083 HD
ENDBRANCH  33  34
ENDBRANCH  32  33
ENDBRANCH  29  32
ENDBRANCH  26  29
ENDBRANCH  24  26
ENDBRANCH   1  24
TORSDOF 11
