REMARK  Name = ZINC44781282
REMARK  6 active torsions:
REMARK  status: ('A' for Active; 'I' for Inactive)
REMARK    1  A    between atoms: C_1  and  N_2
REMARK    2  A    between atoms: N_2  and  C_3
REMARK    3  A    between atoms: C_3  and  C_4
REMARK    4  A    between atoms: C_10  and  C_12
REMARK    5  A    between atoms: C_12  and  C_18
REMARK    6  A    between atoms: C_18  and  N_20
REMARK                            x       y       z     vdW  Elec       q    Type
REMARK                         _______ _______ _______ _____ _____    ______ ____
ROOT
ATOM      1  C   UNL     1       1.858  -1.761  -1.433  0.00  0.00    +0.132 C 
ATOM      2  N   UNL     1       0.775  -1.289  -0.566  0.00  0.00    -0.299 N 
ATOM      3  C   UNL     1      -0.069  -0.333  -1.002  0.00  0.00    +0.228 C 
ATOM      4  O   UNL     1      -0.905   0.126  -0.253  0.00  0.00    -0.275 OA
ENDROOT
BRANCH   3   5
ATOM      5  C   UNL     1       0.025   0.165  -2.421  0.00  0.00    +0.095 C 
ATOM      6  C   UNL     1      -1.121   1.143  -2.699  0.00  0.00    +0.051 C 
ATOM      7  C   UNL     1      -2.455   0.403  -2.566  0.00  0.00    +0.161 C 
ATOM      8  O   UNL     1      -2.477  -0.703  -3.470  0.00  0.00    -0.380 OA
ATOM      9  C   UNL     1      -1.457  -1.674  -3.229  0.00  0.00    +0.161 C 
ATOM     10  C   UNL     1      -0.082  -1.018  -3.388  0.00  0.00    +0.051 C 
BRANCH   5  11
ATOM     11  C   UNL     1       1.346   0.863  -2.624  0.00  0.00    +0.061 C 
ATOM     12  S   UNL     1       2.294   0.442  -3.841  0.00  0.00    -0.040 S 
BRANCH  11  13
ATOM     13  N   UNL     1       1.727   1.841  -1.780  0.00  0.00    -0.355 N 
ATOM     14  H   UNL     1       1.187   2.048  -1.001  0.00  0.00    +0.143 HD
ATOM     15  H   UNL     1       2.542   2.340  -1.951  0.00  0.00    +0.143 HD
ENDBRANCH  11  13
ENDBRANCH   5  11
ENDBRANCH   3   5
BRANCH   2  16
ATOM     16  C   UNL     1       0.611  -1.855   0.775  0.00  0.00    +0.149 C 
BRANCH  16  17
ATOM     17  C   UNL     1       1.413  -1.049   1.763  0.00  0.00    +0.008 A 
ATOM     18  C   UNL     1       1.036   0.031   2.490  0.00  0.00    +0.028 A 
ATOM     19  C   UNL     1       1.951   0.617   3.344  0.00  0.00    +0.025 A 
ATOM     20  C   UNL     1       3.199   0.094   3.430  0.00  0.00    +0.060 A 
ATOM     21  S   UNL     1       3.105  -1.274   2.286  0.00  0.00    -0.099 S 
ATOM     22 BR   UNL     1       1.470   2.127   4.378  0.00  0.00    -0.050 Br
ENDBRANCH  16  17
ENDBRANCH   2  16
TORSDOF 5
