REMARK  Name = ZINC20562102
REMARK  17 active torsions:
REMARK  status: ('A' for Active; 'I' for Inactive)
REMARK    1  A    between atoms: C_1  and  C_2
REMARK    2  A    between atoms: C_2  and  C_3
REMARK    3  A    between atoms: C_3  and  O_4
REMARK    4  A    between atoms: O_4  and  C_5
REMARK    5  A    between atoms: C_5  and  C_7
REMARK    6  A    between atoms: C_8  and  C_38
REMARK    7  A    between atoms: C_12  and  C_14
REMARK    8  A    between atoms: C_16  and  O_24
REMARK    9  A    between atoms: C_17  and  O_22
REMARK   10  A    between atoms: C_18  and  O_20
REMARK   11  A    between atoms: O_20  and  C_21
REMARK   12  A    between atoms: O_22  and  C_23
REMARK   13  A    between atoms: O_24  and  C_25
REMARK   14  A    between atoms: C_28  and  C_34
REMARK   15  A    between atoms: C_30  and  C_33
REMARK   16  A    between atoms: C_34  and  O_36
REMARK   17  A    between atoms: O_36  and  C_37
REMARK                            x       y       z     vdW  Elec       q    Type
REMARK                         _______ _______ _______ _____ _____    ______ ____
ROOT
ATOM      1  C   UNL     1      -4.499  -0.333   1.340  0.00  0.00    +0.065 C 
ATOM      2  C   UNL     1      -3.946   0.087   2.491  0.00  0.00    +0.016 C 
ATOM      3  N   UNL     1      -2.970   1.043   2.483  0.00  0.00    -0.321 N 
ATOM      4  C   UNL     1      -2.261   1.308   1.342  0.00  0.00    +0.016 C 
ATOM      5  C   UNL     1      -2.739   0.933   0.136  0.00  0.00    +0.025 C 
ATOM      6  C   UNL     1      -4.071   0.235   0.019  0.00  0.00    +0.092 C 
ATOM      7  C   UNL     1      -2.014   1.185  -1.042  0.00  0.00    +0.176 C 
ATOM      8  O   UNL     1      -2.478   0.843  -2.111  0.00  0.00    -0.291 OA
ATOM      9  C   UNL     1      -0.675   1.869  -1.002  0.00  0.00    +0.171 C 
ATOM     10  C   UNL     1      -0.004   1.574   0.344  0.00  0.00    +0.013 C 
ATOM     11  C   UNL     1      -0.937   2.028   1.468  0.00  0.00    +0.055 C 
ATOM     12  C   UNL     1       1.320   2.336   0.435  0.00  0.00    +0.009 C 
ATOM     13  C   UNL     1      -4.406  -0.502   3.800  0.00  0.00    +0.061 C 
ATOM     14  H   UNL     1      -2.748   1.610   3.399  0.00  0.00    +0.152 HD
ENDROOT
BRANCH   6  15
ATOM     15  C   UNL     1      -5.107   1.223  -0.453  0.00  0.00    -0.028 A 
ATOM     16  C   UNL     1      -5.383   2.347   0.303  0.00  0.00    +0.054 A 
ATOM     17  C   UNL     1      -6.332   3.261  -0.130  0.00  0.00    +0.165 A 
ATOM     18  C   UNL     1      -7.013   3.040  -1.321  0.00  0.00    +0.204 A 
ATOM     19  C   UNL     1      -6.737   1.906  -2.075  0.00  0.00    +0.165 A 
ATOM     20  C   UNL     1      -5.783   1.000  -1.638  0.00  0.00    +0.054 A 
BRANCH  19  21
ATOM     21  O   UNL     1      -7.402   1.685  -3.241  0.00  0.00    -0.491 OA
ATOM     22  C   UNL     1      -7.067   0.499  -3.965  0.00  0.00    +0.277 C 
ENDBRANCH  19  21
BRANCH  18  23
ATOM     23  O   UNL     1      -7.949   3.932  -1.747  0.00  0.00    -0.488 OA
ATOM     24  C   UNL     1      -9.294   3.716  -1.316  0.00  0.00    +0.277 C 
ENDBRANCH  18  23
BRANCH  17  25
ATOM     25  O   UNL     1      -6.598   4.369   0.612  0.00  0.00    -0.491 OA
ATOM     26  C   UNL     1      -5.859   4.531   1.824  0.00  0.00    +0.277 C 
ENDBRANCH  17  25
ENDBRANCH   6  15
BRANCH   1  27
ATOM     27  C   UNL     1      -5.503  -1.329   1.375  0.00  0.00    +0.338 C 
ATOM     28  O   UNL     1      -5.772  -1.885   2.423  0.00  0.00    -0.245 OA
BRANCH  27  29
ATOM     29  O   UNL     1      -6.161  -1.663   0.245  0.00  0.00    -0.461 OA
BRANCH  29  30
ATOM     30  C   UNL     1      -7.162  -2.677   0.353  0.00  0.00    +0.232 C 
BRANCH  30  32
ATOM     31  C   UNL     1      -8.867  -4.003  -0.903  0.00  0.00    +0.007 C 
ATOM     32  C   UNL     1      -7.795  -2.917  -1.019  0.00  0.00    +0.038 C 
ENDBRANCH  30  32
ENDBRANCH  29  30
ENDBRANCH  27  29
ENDBRANCH   1  27
BRANCH   9  33
ATOM     33  C   UNL     1       0.191   1.353  -2.122  0.00  0.00    +0.318 C 
ATOM     34  O   UNL     1       1.238   0.805  -1.872  0.00  0.00    -0.250 OA
BRANCH  33  35
ATOM     35  O   UNL     1      -0.202   1.502  -3.397  0.00  0.00    -0.467 OA
ATOM     36  C   UNL     1       0.682   0.981  -4.424  0.00  0.00    +0.280 C 
ENDBRANCH  33  35
ENDBRANCH   9  33
TORSDOF 10
