REMARK  Name = ZINC36303507
REMARK  19 active torsions:
REMARK  status: ('A' for Active; 'I' for Inactive)
REMARK    1  A    between atoms: C_1  and  C_2
REMARK    2  A    between atoms: C_3  and  C_21
REMARK    3  A    between atoms: C_4  and  O_13
REMARK    4  A    between atoms: N_5  and  C_7
REMARK    5  A    between atoms: O_13  and  C_14
REMARK    6  A    between atoms: C_21  and  N_22
REMARK    7  A    between atoms: N_22  and  C_23
REMARK    8  A    between atoms: N_22  and  C_27
REMARK    9  A    between atoms: C_23  and  C_24
REMARK   10  A    between atoms: C_24  and  O_25
REMARK   11  A    between atoms: O_25  and  C_26
REMARK   12  A    between atoms: C_27  and  C_28
REMARK   13  A    between atoms: C_28  and  C_30
REMARK   14  A    between atoms: C_28  and  O_36
REMARK   15  A    between atoms: C_30  and  O_31
REMARK   16  A    between atoms: O_31  and  C_32
REMARK   17  A    between atoms: C_32  and  C_33
REMARK   18  A    between atoms: C_32  and  C_34
REMARK   19  A    between atoms: C_32  and  C_35
REMARK                            x       y       z     vdW  Elec       q    Type
REMARK                         _______ _______ _______ _____ _____    ______ ____
ROOT
ATOM      1  C   UNL     1       0.033   1.826   0.706  0.00  0.00    +0.068 C 
ATOM      2  C   UNL     1       0.341   0.355   0.602  0.00  0.00    +0.065 A 
ATOM      3  C   UNL     1       0.330  -0.402  -0.573  0.00  0.00    +0.021 A 
ATOM      4  C   UNL     1       0.660  -1.681  -0.250  0.00  0.00    +0.225 A 
ATOM      5  N   UNL     1       0.872  -1.721   1.093  0.00  0.00    -0.200 N 
ATOM      6  N   UNL     1       0.668  -0.430   1.597  0.00  0.00    -0.168 NA
ENDROOT
BRANCH   5   7
ATOM      7  C   UNL     1       1.232  -2.852   1.839  0.00  0.00    +0.069 A 
ATOM      8  C   UNL     1       0.600  -4.066   1.611  0.00  0.00    +0.028 A 
ATOM      9  C   UNL     1       0.958  -5.179   2.347  0.00  0.00    +0.002 A 
ATOM     10  C   UNL     1       1.945  -5.083   3.311  0.00  0.00    +0.000 A 
ATOM     11  C   UNL     1       2.577  -3.875   3.540  0.00  0.00    +0.002 A 
ATOM     12  C   UNL     1       2.227  -2.760   2.803  0.00  0.00    +0.028 A 
ENDBRANCH   5   7
BRANCH   4  13
ATOM     13  O   UNL     1       0.760  -2.726  -1.110  0.00  0.00    -0.436 OA
BRANCH  13  14
ATOM     14  C   UNL     1      -0.370  -3.422  -1.403  0.00  0.00    +0.149 A 
ATOM     15  C   UNL     1      -1.596  -2.992  -0.916  0.00  0.00    +0.048 A 
ATOM     16  C   UNL     1      -2.743  -3.701  -1.215  0.00  0.00    +0.004 A 
ATOM     17  C   UNL     1      -2.671  -4.838  -1.999  0.00  0.00    +0.002 A 
ATOM     18  C   UNL     1      -1.451  -5.269  -2.486  0.00  0.00    +0.024 A 
ATOM     19  C   UNL     1      -0.300  -4.560  -2.195  0.00  0.00    +0.083 A 
ATOM     20 CL   UNL     1       1.230  -5.097  -2.812  0.00  0.00    -0.080 Cl
ENDBRANCH  13  14
ENDBRANCH   4  13
BRANCH   3  21
ATOM     21  C   UNL     1       0.009   0.109  -1.954  0.00  0.00    -0.036 C 
BRANCH  21  22
ATOM     22  N   UNL     1       1.243   0.569  -2.605  0.00  0.00    +0.386 N 
ATOM     23  H   UNL     1       1.680   1.278  -2.034  0.00  0.00    -0.081 HD
BRANCH  22  24
ATOM     24  C   UNL     1       2.163  -0.564  -2.768  0.00  0.00    -0.050 C 
BRANCH  24  25
ATOM     25  C   UNL     1       3.492  -0.064  -3.338  0.00  0.00    +0.141 C 
BRANCH  25  26
ATOM     26  O   UNL     1       4.100   0.836  -2.409  0.00  0.00    -0.385 OA
ATOM     27  C   UNL     1       5.354   1.363  -2.846  0.00  0.00    +0.193 C 
ENDBRANCH  25  26
ENDBRANCH  24  25
ENDBRANCH  22  24
BRANCH  22  28
ATOM     28  C   UNL     1       0.921   1.133  -3.923  0.00  0.00    -0.044 C 
BRANCH  28  29
ATOM     29  C   UNL     1       0.111   2.418  -3.744  0.00  0.00    +0.124 C 
BRANCH  29  30
ATOM     30  O   UNL     1      -1.185   2.098  -3.234  0.00  0.00    -0.391 OA
ATOM     31  H   UNL     1      -1.700   1.514  -3.808  0.00  0.00    +0.210 HD
ENDBRANCH  29  30
BRANCH  29  32
ATOM     32  C   UNL     1      -0.032   3.123  -5.095  0.00  0.00    +0.189 C 
BRANCH  32  33
ATOM     33  O   UNL     1      -0.686   4.380  -4.909  0.00  0.00    -0.372 OA
BRANCH  33  34
ATOM     34  C   UNL     1      -0.870   5.123  -6.116  0.00  0.00    +0.061 C 
ATOM     35  C   UNL     1      -1.724   4.309  -7.091  0.00  0.00    +0.041 C 
ATOM     36  C   UNL     1      -1.576   6.443  -5.800  0.00  0.00    +0.041 C 
ATOM     37  C   UNL     1       0.492   5.412  -6.750  0.00  0.00    +0.041 C 
ENDBRANCH  33  34
ENDBRANCH  32  33
ENDBRANCH  29  32
ENDBRANCH  28  29
ENDBRANCH  22  28
ENDBRANCH  21  22
ENDBRANCH   3  21
TORSDOF 14
