REMARK  Name = ZINC22582927
REMARK  9 active torsions:
REMARK  status: ('A' for Active; 'I' for Inactive)
REMARK    1  A    between atoms: C_1  and  C_2
REMARK    2  A    between atoms: N_13  and  C_28
REMARK    3  A    between atoms: C_14  and  S_16
REMARK    4  A    between atoms: S_16  and  C_17
REMARK    5  A    between atoms: C_17  and  C_19
REMARK    6  A    between atoms: C_17  and  C_22
REMARK    7  A    between atoms: C_19  and  C_20
REMARK    8  A    between atoms: C_19  and  C_21
REMARK    9  A    between atoms: C_28  and  C_29
REMARK                            x       y       z     vdW  Elec       q    Type
REMARK                         _______ _______ _______ _____ _____    ______ ____
ROOT
ATOM      1  C   UNL     1      -0.529  15.410   1.312  0.00  0.00    +0.008 C 
ATOM      2  C   UNL     1      -1.082  14.007   1.568  0.00  0.00    -0.009 C 
ATOM      3  C   UNL     1      -2.580  13.979   1.252  0.00  0.00    +0.008 C 
ATOM      4  C   UNL     1      -3.189  12.662   1.735  0.00  0.00    +0.037 C 
ATOM      5  C   UNL     1      -2.374  11.504   1.166  0.00  0.00    -0.023 A 
ATOM      6  C   UNL     1      -1.125  11.705   0.699  0.00  0.00    -0.004 A 
ATOM      7  S   UNL     1      -0.577  10.112   0.149  0.00  0.00    -0.073 S 
ATOM      8  C   UNL     1      -2.032   9.177   0.550  0.00  0.00    +0.117 A 
ATOM      9  C   UNL     1      -2.897  10.138   1.098  0.00  0.00    +0.076 A 
ATOM     10  C   UNL     1      -4.177   9.657   1.520  0.00  0.00    +0.263 A 
ATOM     11  O   UNL     1      -4.994  10.419   2.008  0.00  0.00    -0.267 OA
ATOM     12  N   UNL     1      -4.466   8.351   1.371  0.00  0.00    -0.285 N 
ATOM     13  C   UNL     1      -3.563   7.483   0.828  0.00  0.00    +0.173 A 
ATOM     14  N   UNL     1      -2.376   7.899   0.436  0.00  0.00    -0.216 NA
ATOM     15  C   UNL     1      -0.368  12.998   0.657  0.00  0.00    +0.046 C 
ENDROOT
BRANCH  13  16
ATOM     16  S   UNL     1      -3.988   5.782   0.655  0.00  0.00    -0.075 S 
BRANCH  16  17
ATOM     17  C   UNL     1      -2.409   5.121   0.067  0.00  0.00    +0.143 C 
BRANCH  17  18
ATOM     18  C   UNL     1      -1.390   5.194   1.176  0.00  0.00    +0.234 C 
ATOM     19  O   UNL     1      -1.753   5.203   2.333  0.00  0.00    -0.274 OA
ATOM     20  N   UNL     1      -0.076   5.250   0.881  0.00  0.00    -0.239 N 
ATOM     21  C   UNL     1       0.834   5.315   1.872  0.00  0.00    +0.303 C 
ATOM     22  O   UNL     1       0.471   5.323   3.032  0.00  0.00    -0.253 OA
ATOM     23  N   UNL     1       2.148   5.370   1.577  0.00  0.00    -0.313 N 
ATOM     24  H   UNL     1       0.252   5.242  -0.169  0.00  0.00    +0.159 HD
ATOM     25  H   UNL     1       2.892   5.423   2.386  0.00  0.00    +0.146 HD
ATOM     26  H   UNL     1       2.477   5.362   0.528  0.00  0.00    +0.146 HD
ENDBRANCH  17  18
BRANCH  17  27
ATOM     27  C   UNL     1      -2.593   3.664  -0.361  0.00  0.00    +0.005 C 
ATOM     28  C   UNL     1      -3.623   3.591  -1.490  0.00  0.00    +0.009 C 
ATOM     29  C   UNL     1      -1.257   3.104  -0.852  0.00  0.00    +0.009 C 
ENDBRANCH  17  27
ENDBRANCH  16  17
ENDBRANCH  13  16
BRANCH  12  30
ATOM     30  C   UNL     1      -5.774   7.851   1.800  0.00  0.00    +0.159 C 
BRANCH  30  31
ATOM     31  C   UNL     1      -5.697   7.409   3.263  0.00  0.00    +0.138 C 
ATOM     32  C   UNL     1      -7.038   6.775   3.690  0.00  0.00    +0.035 C 
ATOM     33  C   UNL     1      -7.210   7.313   5.137  0.00  0.00    +0.031 C 
ATOM     34  C   UNL     1      -6.572   8.719   5.006  0.00  0.00    +0.160 C 
ATOM     35  O   UNL     1      -5.469   8.547   4.103  0.00  0.00    -0.375 OA
ENDBRANCH  30  31
ENDBRANCH  12  30
TORSDOF 6
