REMARK  Name = ZINC59147536
REMARK  8 active torsions:
REMARK  status: ('A' for Active; 'I' for Inactive)
REMARK    1  A    between atoms: C_1  and  C_2
REMARK    2  A    between atoms: C_2  and  C_4
REMARK    3  A    between atoms: C_2  and  S_31
REMARK    4  A    between atoms: N_6  and  N_7
REMARK    5  A    between atoms: N_15  and  C_18
REMARK    6  A    between atoms: C_18  and  C_19
REMARK    7  A    between atoms: C_18  and  C_25
REMARK    8  A    between atoms: S_31  and  C_32
REMARK                            x       y       z     vdW  Elec       q    Type
REMARK                         _______ _______ _______ _____ _____    ______ ____
ROOT
ATOM      1  N   UNL     1       3.790   0.111  -7.103  0.00  0.00    -0.174 NA
ATOM      2  C   UNL     1       4.461  -0.161  -6.010  0.00  0.00    +0.153 C 
ATOM      3  C   UNL     1       4.083   0.165  -4.615  0.00  0.00    +0.028 A 
ATOM      4  C   UNL     1       2.988   0.809  -4.051  0.00  0.00    +0.012 A 
ATOM      5  C   UNL     1       2.916   0.966  -2.681  0.00  0.00    +0.001 A 
ATOM      6  C   UNL     1       3.932   0.482  -1.874  0.00  0.00    +0.002 A 
ATOM      7  C   UNL     1       5.023  -0.159  -2.424  0.00  0.00    +0.024 A 
ATOM      8  C   UNL     1       5.112  -0.326  -3.802  0.00  0.00    +0.047 A 
ATOM      9  N   UNL     1       6.083  -0.923  -4.598  0.00  0.00    -0.254 N 
ATOM     10  C   UNL     1       5.755  -0.864  -5.900  0.00  0.00    +0.272 C 
ATOM     11  O   UNL     1       6.410  -1.308  -6.825  0.00  0.00    -0.268 OA
ENDROOT
BRANCH   1  14
ATOM     12  C   UNL     1       1.951   1.195  -8.156  0.00  0.00    +0.245 C 
ATOM     13  O   UNL     1       2.205   0.601  -9.181  0.00  0.00    -0.273 OA
ATOM     14  N   UNL     1       2.709   1.000  -7.058  0.00  0.00    -0.205 N 
ATOM     15  H   UNL     1       2.505   1.476  -6.238  0.00  0.00    +0.177 HD
BRANCH  12  17
ATOM     16  C   UNL     1       1.285   3.574  -8.378  0.00  0.00    +0.029 C 
ATOM     17  C   UNL     1       0.788   2.152  -8.108  0.00  0.00    +0.137 C 
BRANCH  17  18
ATOM     18  S   UNL     1      -0.430   1.688  -9.370  0.00  0.00    -0.093 S 
BRANCH  18  19
ATOM     19  C   UNL     1      -1.775   2.792  -9.091  0.00  0.00    +0.098 A 
ATOM     20  C   UNL     1      -2.910   2.712  -9.893  0.00  0.00    +0.035 A 
ATOM     21  C   UNL     1      -3.958   3.585  -9.663  0.00  0.00    +0.004 A 
ATOM     22  C   UNL     1      -3.836   4.512  -8.635  0.00  0.00    +0.020 A 
ATOM     23  C   UNL     1      -2.681   4.535  -7.879  0.00  0.00    +0.112 A 
ATOM     24  N   UNL     1      -1.699   3.686  -8.117  0.00  0.00    -0.249 NA
ENDBRANCH  18  19
ENDBRANCH  17  18
ENDBRANCH  12  17
ENDBRANCH   1  14
BRANCH   9  25
ATOM     25  C   UNL     1       7.306  -1.545  -4.083  0.00  0.00    +0.142 C 
BRANCH  25  26
ATOM     26  C   UNL     1       7.444  -2.932  -4.657  0.00  0.00    -0.022 A 
ATOM     27  C   UNL     1       6.347  -3.564  -5.210  0.00  0.00    +0.006 A 
ATOM     28  C   UNL     1       6.474  -4.836  -5.736  0.00  0.00    +0.000 A 
ATOM     29  C   UNL     1       7.699  -5.475  -5.709  0.00  0.00    +0.000 A 
ATOM     30  C   UNL     1       8.797  -4.843  -5.157  0.00  0.00    +0.000 A 
ATOM     31  C   UNL     1       8.671  -3.569  -4.634  0.00  0.00    +0.006 A 
ENDBRANCH  25  26
BRANCH  25  32
ATOM     32  C   UNL     1       8.498  -0.715  -4.482  0.00  0.00    -0.022 A 
ATOM     33  C   UNL     1       8.444   0.072  -5.618  0.00  0.00    +0.006 A 
ATOM     34  C   UNL     1       9.538   0.834  -5.984  0.00  0.00    +0.000 A 
ATOM     35  C   UNL     1      10.686   0.809  -5.214  0.00  0.00    +0.000 A 
ATOM     36  C   UNL     1      10.740   0.024  -4.078  0.00  0.00    +0.000 A 
ATOM     37  C   UNL     1       9.644  -0.735  -3.709  0.00  0.00    +0.006 A 
ENDBRANCH  25  32
ENDBRANCH   9  25
TORSDOF 7
