REMARK  Name = ZINC35676022
REMARK  3 active torsions:
REMARK  status: ('A' for Active; 'I' for Inactive)
REMARK    1  A    between atoms: C_8  and  S_10
REMARK    2  A    between atoms: S_10  and  C_11
REMARK    3  A    between atoms: C_14  and  N_20
REMARK                            x       y       z     vdW  Elec       q    Type
REMARK                         _______ _______ _______ _____ _____    ______ ____
ROOT
ATOM      1  C   UNL     1       5.503  -3.223  -0.029  0.00  0.00    +0.048 A 
ATOM      2  C   UNL     1       5.922  -1.932   0.073  0.00  0.00    +0.019 A 
ATOM      3  C   UNL     1       7.272  -1.583   0.097  0.00  0.00    +0.026 A 
ATOM      4  C   UNL     1       8.267  -2.509   0.019  0.00  0.00    +0.056 A 
ATOM      5  C   UNL     1       7.924  -3.930  -0.093  0.00  0.00    +0.156 A 
ATOM      6  C   UNL     1       6.495  -4.300  -0.112  0.00  0.00    +0.150 A 
ATOM      7  N   UNL     1       6.412  -5.604  -0.211  0.00  0.00    -0.048 NA
ATOM      8  O   UNL     1       7.731  -6.122  -0.253  0.00  0.00    -0.241 OA
ATOM      9  N   UNL     1       8.631  -5.029  -0.183  0.00  0.00    -0.047 NA
ENDROOT
BRANCH   4  10
ATOM     10  N   UNL     1       9.604  -2.107   0.046  0.00  0.00    -0.356 N 
ATOM     11  H   UNL     1       9.827  -1.166   0.120  0.00  0.00    +0.142 HD
ATOM     12  H   UNL     1      10.310  -2.770  -0.009  0.00  0.00    +0.142 HD
ENDBRANCH   4  10
BRANCH   1  13
ATOM     13  S   UNL     1       3.782  -3.598  -0.053  0.00  0.00    -0.029 S 
BRANCH  13  21
ATOM     14  C   UNL     1       1.960  -5.095  -5.849  0.00  0.00    +0.002 A 
ATOM     15  C   UNL     1       3.259  -4.746  -6.185  0.00  0.00    +0.004 A 
ATOM     16  C   UNL     1       4.142  -4.316  -5.215  0.00  0.00    +0.048 A 
ATOM     17  C   UNL     1       3.730  -4.231  -3.895  0.00  0.00    +0.156 A 
ATOM     18  C   UNL     1       2.417  -4.584  -3.550  0.00  0.00    +0.110 A 
ATOM     19  C   UNL     1       1.534  -5.017  -4.541  0.00  0.00    +0.031 A 
ATOM     20  N   UNL     1       2.304  -4.403  -2.206  0.00  0.00    -0.203 NA
ATOM     21  C   UNL     1       3.451  -3.973  -1.743  0.00  0.00    +0.263 A 
ATOM     22  O   UNL     1       4.340  -3.858  -2.747  0.00  0.00    -0.430 OA
ENDBRANCH  13  21
ENDBRANCH   1  13
TORSDOF 3
