REMARK  Name = ZINC23118928
REMARK  4 active torsions:
REMARK  status: ('A' for Active; 'I' for Inactive)
REMARK    1  A    between atoms: C_1  and  C_2
REMARK    2  A    between atoms: C_2  and  C_3
REMARK    3  A    between atoms: C_8  and  N_9
REMARK    4  A    between atoms: C_17  and  C_24
REMARK                            x       y       z     vdW  Elec       q    Type
REMARK                         _______ _______ _______ _____ _____    ______ ____
ROOT
ATOM      1  N   UNL     1      -0.011   0.966   0.007  0.00  0.00    -0.292 N 
ATOM      2  C   UNL     1       1.164   1.699  -0.004  0.00  0.00    +0.186 A 
ATOM      3  N   UNL     1       2.395   1.275   0.068  0.00  0.00    -0.139 NA
ATOM      4  N   UNL     1       3.472   2.158   0.043  0.00  0.00    -0.169 N 
ATOM      5  C   UNL     1       4.797   1.824   0.112  0.00  0.00    +0.283 A 
ATOM      6  O   UNL     1       5.139   0.659   0.207  0.00  0.00    -0.265 OA
ATOM      7  C   UNL     1       5.796   2.890   0.069  0.00  0.00    +0.067 A 
ATOM      8  C   UNL     1       7.165   2.622   0.135  0.00  0.00    +0.018 A 
ATOM      9  C   UNL     1       8.058   3.654   0.090  0.00  0.00    -0.050 A 
ATOM     10  C   UNL     1       7.623   4.970  -0.019  0.00  0.00    +0.005 A 
ATOM     11  C   UNL     1       6.292   5.265  -0.085  0.00  0.00    +0.029 A 
ATOM     12  C   UNL     1       5.352   4.230  -0.042  0.00  0.00    +0.079 A 
ATOM     13  N   UNL     1       4.029   4.464  -0.103  0.00  0.00    -0.221 NA
ATOM     14  C   UNL     1       3.162   3.490  -0.063  0.00  0.00    +0.201 A 
ATOM     15  S   UNL     1       1.382   3.466  -0.131  0.00  0.00    -0.013 S 
ATOM     16  C   UNL     1       9.535   3.363   0.162  0.00  0.00    +0.044 C 
ATOM     17  H   UNL     1       0.026  -0.133  -0.011  0.00  0.00    +0.154 HD
ENDROOT
BRANCH   1  23
ATOM     18  C   UNL     1      -2.380   0.999  -0.460  0.00  0.00    -0.026 A 
ATOM     19  C   UNL     1      -3.598   1.649  -0.419  0.00  0.00    +0.005 A 
ATOM     20  C   UNL     1      -3.686   2.923   0.112  0.00  0.00    +0.000 A 
ATOM     21  C   UNL     1      -2.557   3.548   0.609  0.00  0.00    +0.002 A 
ATOM     22  C   UNL     1      -1.337   2.902   0.575  0.00  0.00    +0.023 A 
ATOM     23  C   UNL     1      -1.244   1.623   0.043  0.00  0.00    +0.036 A 
BRANCH  18  25
ATOM     24  C   UNL     1      -2.390  -1.422   0.077  0.00  0.00    +0.009 C 
ATOM     25  C   UNL     1      -2.283  -0.386  -1.044  0.00  0.00    +0.033 C 
ENDBRANCH  18  25
ENDBRANCH   1  23
TORSDOF 2
