REMARK  Name = ZINC28402875
REMARK  9 active torsions:
REMARK  status: ('A' for Active; 'I' for Inactive)
REMARK    1  A    between atoms: C_1  and  C_2
REMARK    2  A    between atoms: C_2  and  C_3
REMARK    3  A    between atoms: C_2  and  C_4
REMARK    4  A    between atoms: C_2  and  C_5
REMARK    5  A    between atoms: C_8  and  C_11
REMARK    6  A    between atoms: C_11  and  C_13
REMARK    7  A    between atoms: C_11  and  N_29
REMARK    8  A    between atoms: C_13  and  N_14
REMARK    9  A    between atoms: C_15  and  C_17
REMARK                            x       y       z     vdW  Elec       q    Type
REMARK                         _______ _______ _______ _____ _____    ______ ____
ROOT
ATOM      1  C   UNL     1      -2.502   0.978   0.013  0.00  0.00    -0.020 C 
ENDROOT
BRANCH   1   2
ATOM      2  N   UNL     1      -3.484   1.727  -0.782  0.00  0.00    +0.385 N 
ATOM      3  C   UNL     1      -2.858   2.313  -1.974  0.00  0.00    -0.078 C 
ATOM      4  C   UNL     1      -3.934   2.959  -2.850  0.00  0.00    -0.019 C 
ATOM      5  C   UNL     1      -4.658   4.043  -2.046  0.00  0.00    -0.004 C 
ATOM      6  C   UNL     1      -5.258   3.415  -0.785  0.00  0.00    -0.019 C 
ATOM      7  C   UNL     1      -4.144   2.756   0.031  0.00  0.00    -0.078 C 
ATOM      8  H   UNL     1      -4.256   1.021  -1.121  0.00  0.00    -0.081 HD
ENDBRANCH   1   2
BRANCH   1  12
ATOM      9  C   UNL     1       1.300   2.909  -0.242  0.00  0.00    -0.042 A 
ATOM     10  C   UNL     1       1.198   1.550  -0.476  0.00  0.00    +0.004 A 
ATOM     11  C   UNL     1      -0.032   0.925  -0.390  0.00  0.00    +0.002 A 
ATOM     12  C   UNL     1      -1.160   1.659  -0.075  0.00  0.00    -0.059 A 
ATOM     13  C   UNL     1      -1.056   3.016   0.166  0.00  0.00    +0.002 A 
ATOM     14  C   UNL     1       0.173   3.642   0.079  0.00  0.00    +0.004 A 
BRANCH   9  16
ATOM     15  C   UNL     1       3.204   3.416  -1.748  0.00  0.00    +0.015 C 
ATOM     16  C   UNL     1       2.641   3.591  -0.336  0.00  0.00    -0.013 C 
ATOM     17  C   UNL     1       2.477   5.081  -0.033  0.00  0.00    +0.015 C 
ATOM     18  C   UNL     1       3.603   2.967   0.677  0.00  0.00    +0.015 C 
ENDBRANCH   9  16
ENDBRANCH   1  12
BRANCH   1  19
ATOM     19  C   UNL     1      -2.956   0.932   1.474  0.00  0.00    +0.094 C 
BRANCH  19  20
ATOM     20  N   UNL     1      -4.253   0.258   1.561  0.00  0.00    -0.310 N 
ATOM     21  C   UNL     1      -4.803   0.007   2.765  0.00  0.00    +0.279 C 
ATOM     22  O   UNL     1      -4.222   0.340   3.779  0.00  0.00    -0.267 OA
ATOM     23  H   UNL     1      -4.779  -0.043   0.643  0.00  0.00    +0.149 HD
BRANCH  21  24
ATOM     24  C   UNL     1      -6.116  -0.675   2.853  0.00  0.00    +0.193 A 
ATOM     25  C   UNL     1      -6.644  -0.914   4.078  0.00  0.00    +0.103 A 
ATOM     26  C   UNL     1      -7.947  -1.591   4.166  0.00  0.00    +0.193 A 
ATOM     27  O   UNL     1      -8.469  -1.832   5.240  0.00  0.00    -0.287 OA
ATOM     28  C   UNL     1      -8.591  -1.964   2.893  0.00  0.00    +0.065 A 
ATOM     29  C   UNL     1      -9.827  -2.609   2.868  0.00  0.00    +0.035 A 
ATOM     30  C   UNL     1     -10.396  -2.942   1.657  0.00  0.00    +0.042 A 
ATOM     31  C   UNL     1      -9.743  -2.636   0.470  0.00  0.00    +0.023 A 
ATOM     32  C   UNL     1      -8.521  -1.999   0.482  0.00  0.00    +0.048 A 
ATOM     33  C   UNL     1      -7.928  -1.654   1.693  0.00  0.00    +0.140 A 
ATOM     34  O   UNL     1      -6.737  -1.026   1.718  0.00  0.00    -0.450 OA
ATOM     35 CL   UNL     1     -11.934  -3.746   1.616  0.00  0.00    -0.084 Cl
ENDBRANCH  21  24
ENDBRANCH  19  20
ENDBRANCH   1  19
TORSDOF 6
