REMARK  Name = ZINC09060214
REMARK  7 active torsions:
REMARK  status: ('A' for Active; 'I' for Inactive)
REMARK    1  A    between atoms: C_4  and  C_7
REMARK    2  A    between atoms: C_7  and  N_60
REMARK    3  A    between atoms: C_10  and  C_13
REMARK    4  A    between atoms: C_13  and  C_14
REMARK    5  A    between atoms: C_14  and  N_15
REMARK    6  A    between atoms: C_16  and  C_17
REMARK    7  A    between atoms: N_23  and  C_26
REMARK                            x       y       z     vdW  Elec       q    Type
REMARK                         _______ _______ _______ _____ _____    ______ ____
ROOT
ATOM      1  N   UNL     1      -1.343  -4.888  -0.215  0.00  0.00    -0.295 NA
ATOM      2  C   UNL     1      -2.489  -4.177  -0.199  0.00  0.00    +0.099 C 
ENDROOT
BRANCH   2   3
ATOM      3  C   UNL     1      -2.445  -2.798  -0.103  0.00  0.00    +0.202 C 
ATOM      4  C   UNL     1      -3.672  -2.000   0.072  0.00  0.00    +0.238 C 
ATOM      5  O   UNL     1      -4.762  -2.536   0.136  0.00  0.00    -0.274 OA
ATOM      6  N   UNL     1      -3.553  -0.659   0.158  0.00  0.00    -0.238 N 
ATOM      7  C   UNL     1      -2.358  -0.056   0.093  0.00  0.00    +0.319 C 
ATOM      8  O   UNL     1      -2.319   1.155   0.182  0.00  0.00    -0.251 OA
ATOM      9  N   UNL     1      -1.204  -0.718  -0.070  0.00  0.00    -0.193 N 
ATOM     10  C   UNL     1      -1.170  -2.062  -0.171  0.00  0.00    +0.245 C 
ATOM     11  O   UNL     1      -0.116  -2.652  -0.314  0.00  0.00    -0.274 OA
ATOM     12  H   UNL     1      -4.351  -0.119   0.273  0.00  0.00    +0.159 HD
BRANCH   9  13
ATOM     13  C   UNL     1      -0.004   0.004  -0.132  0.00  0.00    +0.047 A 
ATOM     14  C   UNL     1       0.241   0.856  -1.200  0.00  0.00    +0.024 A 
ATOM     15  C   UNL     1       1.425   1.565  -1.259  0.00  0.00    +0.003 A 
ATOM     16  C   UNL     1       2.366   1.428  -0.255  0.00  0.00    +0.020 A 
ATOM     17  C   UNL     1       2.125   0.580   0.811  0.00  0.00    +0.043 A 
ATOM     18  C   UNL     1       0.942  -0.133   0.875  0.00  0.00    +0.044 A 
ATOM     19 CL   UNL     1       3.308   0.410   2.070  0.00  0.00    -0.083 Cl
ENDBRANCH   9  13
ENDBRANCH   2   3
BRANCH   1  20
ATOM     20  C   UNL     1      -1.389  -6.348  -0.317  0.00  0.00    +0.141 C 
BRANCH  20  21
ATOM     21  C   UNL     1       0.036  -6.905  -0.315  0.00  0.00    +0.026 C 
BRANCH  21  24
ATOM     22  C   UNL     1       1.361 -10.509  -0.589  0.00  0.00    -0.078 C 
ATOM     23  C   UNL     1       1.411  -8.980  -0.545  0.00  0.00    -0.015 C 
ATOM     24  C   UNL     1      -0.012  -8.431  -0.421  0.00  0.00    -0.013 C 
ATOM     25  C   UNL     1      -0.667  -9.010   0.836  0.00  0.00    -0.015 C 
ATOM     26  C   UNL     1      -0.657 -10.538   0.752  0.00  0.00    -0.078 C 
ATOM     27  N   UNL     1       0.743 -11.005   0.659  0.00  0.00    +0.382 N 
ATOM     28  H   UNL     1       1.270 -10.638   1.460  0.00  0.00    -0.081 HD
BRANCH  27  29
ATOM     29  C   UNL     1       0.786 -12.481   0.691  0.00  0.00    -0.043 C 
BRANCH  29  33
ATOM     30  C   UNL     1      -0.438 -13.808   4.563  0.00  0.00    +0.000 A 
ATOM     31  C   UNL     1      -1.374 -13.654   3.557  0.00  0.00    +0.000 A 
ATOM     32  C   UNL     1      -0.978 -13.224   2.305  0.00  0.00    +0.002 A 
ATOM     33  C   UNL     1       0.354 -12.949   2.057  0.00  0.00    -0.064 A 
ATOM     34  C   UNL     1       1.291 -13.110   3.061  0.00  0.00    +0.002 A 
ATOM     35  C   UNL     1       0.894 -13.534   4.315  0.00  0.00    +0.000 A 
ENDBRANCH  29  33
ENDBRANCH  27  29
ENDBRANCH  21  24
ENDBRANCH  20  21
ENDBRANCH   1  20
TORSDOF 7
