REMARK  Name = ZINC11691634
REMARK  3 active torsions:
REMARK  status: ('A' for Active; 'I' for Inactive)
REMARK    1  A    between atoms: C_4  and  S_14
REMARK    2  A    between atoms: S_14  and  O_17
REMARK    3  A    between atoms: O_17  and  C_18
REMARK                            x       y       z     vdW  Elec       q    Type
REMARK                         _______ _______ _______ _____ _____    ______ ____
ROOT
ATOM      1  C   UNL     1       4.746  -5.471  -1.078  0.00  0.00    +0.001 A 
ATOM      2  C   UNL     1       3.680  -4.616  -1.180  0.00  0.00    +0.010 A 
ATOM      3  C   UNL     1       3.838  -3.413  -1.888  0.00  0.00    +0.013 A 
ATOM      4  C   UNL     1       2.846  -2.438  -2.082  0.00  0.00    +0.136 A 
ATOM      5  C   UNL     1       3.162  -1.320  -2.805  0.00  0.00    +0.033 A 
ATOM      6  C   UNL     1       4.425  -1.094  -3.351  0.00  0.00    +0.026 A 
ATOM      7  C   UNL     1       5.428  -2.030  -3.183  0.00  0.00    +0.042 A 
ATOM      8  C   UNL     1       5.091  -3.164  -2.450  0.00  0.00    +0.017 A 
ATOM      9  C   UNL     1       6.188  -4.032  -2.352  0.00  0.00    +0.047 A 
ATOM     10  C   UNL     1       5.991  -5.206  -1.646  0.00  0.00    +0.014 A 
ATOM     11  C   UNL     1       7.257  -3.347  -3.087  0.00  0.00    +0.249 C 
ATOM     12  O   UNL     1       8.391  -3.757  -3.249  0.00  0.00    -0.270 OA
ATOM     13  N   UNL     1       6.758  -2.173  -3.557  0.00  0.00    -0.281 N 
ATOM     14  H   UNL     1       7.260  -1.526  -4.078  0.00  0.00    +0.155 HD
ENDROOT
BRANCH   4  15
ATOM     15  S   UNL     1       1.229  -2.651  -1.414  0.00  0.00    +0.152 S 
ATOM     16  O   UNL     1       1.042  -4.050  -1.243  0.00  0.00    -0.131 OA
ATOM     17  O   UNL     1       0.355  -1.857  -2.204  0.00  0.00    -0.131 OA
BRANCH  15  18
ATOM     18  O   UNL     1       1.234  -2.039  -0.020  0.00  0.00    -0.342 OA
BRANCH  18  19
ATOM     19  C   UNL     1       1.213  -0.680  -0.013  0.00  0.00    +0.157 A 
ATOM     20  C   UNL     1       0.002  -0.004   0.002  0.00  0.00    +0.050 A 
ATOM     21  C   UNL     1      -0.017   1.377   0.010  0.00  0.00    +0.023 A 
ATOM     22  C   UNL     1       1.172   2.086   0.002  0.00  0.00    +0.041 A 
ATOM     23  C   UNL     1       2.381   1.413  -0.013  0.00  0.00    +0.023 A 
ATOM     24  C   UNL     1       2.403   0.032  -0.021  0.00  0.00    +0.050 A 
ATOM     25 CL   UNL     1       1.145   3.822   0.011  0.00  0.00    -0.084 Cl
ENDBRANCH  18  19
ENDBRANCH  15  18
ENDBRANCH   4  15
TORSDOF 3
