REMARK  Name = ZINC02470426
REMARK  8 active torsions:
REMARK  status: ('A' for Active; 'I' for Inactive)
REMARK    1  A    between atoms: C_2  and  C_3
REMARK    2  A    between atoms: C_3  and  O_4
REMARK    3  A    between atoms: O_4  and  C_5
REMARK    4  A    between atoms: C_9  and  C_11
REMARK    5  A    between atoms: C_11  and  C_13
REMARK    6  A    between atoms: C_11  and  N_24
REMARK    7  A    between atoms: C_22  and  O_23
REMARK    8  A    between atoms: N_24  and  C_25
REMARK                            x       y       z     vdW  Elec       q    Type
REMARK                         _______ _______ _______ _____ _____    ______ ____
ROOT
ATOM      1  C   UNL     1      -0.068   5.344   0.047  0.00  0.00    +0.136 C 
ENDROOT
BRANCH   1   2
ATOM      2  C   UNL     1      -0.230   5.801  -1.380  0.00  0.00    +0.021 A 
ATOM      3  C   UNL     1      -1.470   6.263  -1.815  0.00  0.00    +0.010 A 
ATOM      4  C   UNL     1      -1.648   6.689  -3.096  0.00  0.00    +0.010 A 
ATOM      5  C   UNL     1      -0.572   6.652  -3.998  0.00  0.00    +0.004 A 
ATOM      6  C   UNL     1      -0.720   7.078  -5.332  0.00  0.00    +0.011 A 
ATOM      7  C   UNL     1       0.370   7.013  -6.153  0.00  0.00    +0.020 A 
ATOM      8  C   UNL     1       1.583   6.536  -5.662  0.00  0.00    +0.111 A 
ATOM      9  N   UNL     1       1.716   6.141  -4.419  0.00  0.00    -0.251 NA
ATOM     10  C   UNL     1       0.690   6.177  -3.565  0.00  0.00    +0.113 A 
ATOM     11  C   UNL     1       0.839   5.750  -2.228  0.00  0.00    +0.148 A 
BRANCH  11  12
ATOM     12  O   UNL     1       2.039   5.291  -1.788  0.00  0.00    -0.504 OA
ATOM     13  H   UNL     1       2.160   4.338  -1.897  0.00  0.00    +0.292 HD
ENDBRANCH  11  12
ENDBRANCH   1   2
BRANCH   1  18
ATOM     14  C   UNL     1       0.647   1.648   0.378  0.00  0.00    +0.121 A 
ATOM     15  C   UNL     1      -0.626   1.110   0.258  0.00  0.00    +0.045 A 
ATOM     16  C   UNL     1      -1.711   1.943   0.064  0.00  0.00    +0.004 A 
ATOM     17  C   UNL     1      -1.530   3.313   0.002  0.00  0.00    +0.006 A 
ATOM     18  C   UNL     1      -0.262   3.851   0.121  0.00  0.00    -0.019 A 
ATOM     19  C   UNL     1       0.827   3.022   0.309  0.00  0.00    +0.051 A 
BRANCH  14  20
ATOM     20  O   UNL     1       1.717   0.830   0.563  0.00  0.00    -0.488 OA
BRANCH  20  21
ATOM     21  C   UNL     1       1.457  -0.574   0.624  0.00  0.00    +0.256 C 
BRANCH  21  23
ATOM     22  C   UNL     1       2.819  -2.282   1.714  0.00  0.00    +0.007 C 
ATOM     23  C   UNL     1       2.752  -1.316   0.831  0.00  0.00    +0.006 C 
ENDBRANCH  21  23
ENDBRANCH  20  21
ENDBRANCH  14  20
ENDBRANCH   1  18
BRANCH   1  24
ATOM     24  N   UNL     1      -1.065   6.009   0.889  0.00  0.00    -0.320 N 
ATOM     25  H   UNL     1      -1.890   5.552   1.117  0.00  0.00    +0.148 HD
BRANCH  24  26
ATOM     26  C   UNL     1      -0.829   7.294   1.363  0.00  0.00    +0.097 A 
ATOM     27  C   UNL     1       0.394   7.908   1.110  0.00  0.00    +0.041 A 
ATOM     28  C   UNL     1       0.613   9.190   1.582  0.00  0.00    +0.005 A 
ATOM     29  C   UNL     1      -0.397   9.812   2.303  0.00  0.00    +0.018 A 
ATOM     30  C   UNL     1      -1.584   9.142   2.521  0.00  0.00    +0.084 A 
ATOM     31  N   UNL     1      -1.836   7.885   2.067  0.00  0.00    -0.350 N 
ATOM     32  H   UNL     1      -2.729   7.410   2.245  0.00  0.00    +0.166 HD
ENDBRANCH  24  26
ENDBRANCH   1  24
TORSDOF 8
