REMARK  Name = ZINC06301085
REMARK  11 active torsions:
REMARK  status: ('A' for Active; 'I' for Inactive)
REMARK    1  A    between atoms: C_1  and  C_2
REMARK    2  A    between atoms: C_4  and  C_41
REMARK    3  A    between atoms: C_9  and  C_14
REMARK    4  A    between atoms: C_14  and  C_16
REMARK    5  A    between atoms: C_14  and  N_71
REMARK    6  A    between atoms: N_20  and  C_21
REMARK    7  A    between atoms: C_21  and  C_22
REMARK    8  A    between atoms: C_28  and  C_29
REMARK    9  A    between atoms: C_28  and  N_71
REMARK   10  A    between atoms: C_35  and  C_36
REMARK   11  A    between atoms: C_35  and  N_71
REMARK                            x       y       z     vdW  Elec       q    Type
REMARK                         _______ _______ _______ _____ _____    ______ ____
ROOT
ATOM      1  C   UNL     1      -2.333  -0.293   0.002  0.00  0.00    +0.040 C 
ENDROOT
BRANCH   1  10
ATOM      2  C   UNL     1       2.521  -5.201   2.825  0.00  0.00    +0.044 C 
ATOM      3  C   UNL     1       2.179  -3.808   2.363  0.00  0.00    -0.050 A 
ATOM      4  C   UNL     1       3.140  -2.807   2.425  0.00  0.00    +0.008 A 
ATOM      5  C   UNL     1       2.849  -1.527   2.007  0.00  0.00    -0.026 A 
ATOM      6  C   UNL     1       1.581  -1.231   1.518  0.00  0.00    +0.052 A 
ATOM      7  C   UNL     1       0.610  -2.248   1.457  0.00  0.00    -0.001 A 
ATOM      8  C   UNL     1       0.927  -3.541   1.886  0.00  0.00    +0.013 A 
ATOM      9  C   UNL     1      -0.722  -1.927   0.941  0.00  0.00    +0.017 A 
ATOM     10  C   UNL     1      -0.972  -0.657   0.538  0.00  0.00    +0.011 A 
ATOM     11  C   UNL     1       0.037   0.327   0.621  0.00  0.00    +0.251 A 
ATOM     12  O   UNL     1      -0.208   1.461   0.249  0.00  0.00    -0.268 OA
ATOM     13  N   UNL     1       1.263   0.041   1.094  0.00  0.00    -0.322 N 
ATOM     14  H   UNL     1       1.933   0.741   1.136  0.00  0.00    +0.169 HD
ATOM     15  C   UNL     1       3.902  -0.451   2.079  0.00  0.00    +0.046 C 
ENDBRANCH   1  10
BRANCH   1  16
ATOM     16  C   UNL     1      -2.214   0.094  -1.449  0.00  0.00    +0.143 A 
ATOM     17  N   UNL     1      -2.214   1.311  -1.937  0.00  0.00    -0.115 NA
ATOM     18  N   UNL     1      -2.093   1.226  -3.217  0.00  0.00    -0.023 NA
ATOM     19  N   UNL     1      -2.015  -0.013  -3.558  0.00  0.00    -0.044 NA
ATOM     20  N   UNL     1      -2.081  -0.742  -2.496  0.00  0.00    -0.228 N 
BRANCH  20  21
ATOM     21  C   UNL     1      -2.025  -2.204  -2.439  0.00  0.00    +0.178 C 
BRANCH  21  22
ATOM     22  C   UNL     1      -3.442  -2.773  -2.533  0.00  0.00    +0.140 C 
ATOM     23  C   UNL     1      -3.389  -4.316  -2.528  0.00  0.00    +0.035 C 
ATOM     24  C   UNL     1      -4.487  -4.688  -3.561  0.00  0.00    +0.031 C 
ATOM     25  C   UNL     1      -4.352  -3.518  -4.568  0.00  0.00    +0.160 C 
ATOM     26  O   UNL     1      -4.048  -2.365  -3.765  0.00  0.00    -0.375 OA
ENDBRANCH  21  22
ENDBRANCH  20  21
ENDBRANCH   1  16
BRANCH   1  27
ATOM     27  N   UNL     1      -2.862   0.862   0.758  0.00  0.00    +0.397 N 
ATOM     28  H   UNL     1      -2.423   1.720   0.406  0.00  0.00    -0.079 HD
BRANCH  27  29
ATOM     29  C   UNL     1      -4.325   0.960   0.571  0.00  0.00    -0.041 C 
BRANCH  29  30
ATOM     30  C   UNL     1      -4.598   1.653  -0.738  0.00  0.00    -0.064 A 
ATOM     31  C   UNL     1      -4.529   3.031  -0.818  0.00  0.00    +0.002 A 
ATOM     32  C   UNL     1      -4.774   3.667  -2.021  0.00  0.00    +0.000 A 
ATOM     33  C   UNL     1      -5.099   2.926  -3.141  0.00  0.00    +0.000 A 
ATOM     34  C   UNL     1      -5.175   1.548  -3.060  0.00  0.00    +0.000 A 
ATOM     35  C   UNL     1      -4.924   0.912  -1.859  0.00  0.00    +0.002 A 
ENDBRANCH  29  30
ENDBRANCH  27  29
BRANCH  27  36
ATOM     36  C   UNL     1      -2.545   0.714   2.194  0.00  0.00    -0.001 C 
BRANCH  36  37
ATOM     37  C   UNL     1      -2.841   2.016   2.893  0.00  0.00    +0.089 A 
ATOM     38  C   UNL     1      -3.975   2.314   3.554  0.00  0.00    +0.042 A 
ATOM     39  C   UNL     1      -3.825   3.629   4.051  0.00  0.00    +0.041 A 
ATOM     40  C   UNL     1      -2.612   4.058   3.659  0.00  0.00    +0.195 A 
ATOM     41  O   UNL     1      -2.021   3.077   2.957  0.00  0.00    -0.470 OA
ENDBRANCH  36  37
ENDBRANCH  27  36
ENDBRANCH   1  27
TORSDOF 9
