REMARK  Name = ZINC14550867
REMARK  7 active torsions:
REMARK  status: ('A' for Active; 'I' for Inactive)
REMARK    1  A    between atoms: C_1  and  C_2
REMARK    2  A    between atoms: C_6  and  C_37
REMARK    3  A    between atoms: C_7  and  N_8
REMARK    4  A    between atoms: N_8  and  S_9
REMARK    5  A    between atoms: S_9  and  C_12
REMARK    6  A    between atoms: C_25  and  C_28
REMARK    7  A    between atoms: C_31  and  N_34
REMARK                            x       y       z     vdW  Elec       q    Type
REMARK                         _______ _______ _______ _____ _____    ______ ____
ROOT
ATOM      1  C   UNL     1      -6.956   0.864   0.052  0.00  0.00    +0.109 A 
ATOM      2  C   UNL     1      -6.354   1.537  -0.996  0.00  0.00    +0.030 A 
ATOM      3  C   UNL     1      -5.005   1.379  -1.239  0.00  0.00    +0.025 A 
ATOM      4  C   UNL     1      -4.241   0.541  -0.435  0.00  0.00    +0.031 A 
ATOM      5  C   UNL     1      -4.859  -0.148   0.614  0.00  0.00    -0.018 A 
ATOM      6  C   UNL     1      -6.206   0.024   0.854  0.00  0.00    +0.034 A 
ATOM      7  C   UNL     1      -4.021  -1.064   1.417  0.00  0.00    +0.049 C 
ATOM      8  C   UNL     1      -4.351  -1.404   2.824  0.00  0.00    -0.023 C 
ATOM      9  C   UNL     1      -3.221  -1.633   3.482  0.00  0.00    -0.030 C 
ATOM     10  C   UNL     1      -2.024  -1.426   2.552  0.00  0.00    +0.033 C 
ATOM     11  C   UNL     1      -2.597  -0.440   1.525  0.00  0.00    +0.029 C 
ATOM     12  C   UNL     1      -2.024  -0.493   0.120  0.00  0.00    +0.105 C 
ATOM     13  N   UNL     1      -2.871   0.408  -0.691  0.00  0.00    -0.336 N 
ATOM     14  H   UNL     1      -2.470   0.916  -1.413  0.00  0.00    +0.147 HD
ENDROOT
BRANCH  12  15
ATOM     15  C   UNL     1      -0.598  -0.006   0.121  0.00  0.00    -0.027 A 
ATOM     16  C   UNL     1       0.442  -0.913   0.032  0.00  0.00    +0.008 A 
ATOM     17  C   UNL     1       1.750  -0.466   0.027  0.00  0.00    +0.033 A 
ATOM     18  C   UNL     1       2.018   0.887   0.117  0.00  0.00    +0.126 A 
ATOM     19  C   UNL     1       0.979   1.793   0.211  0.00  0.00    +0.033 A 
ATOM     20  C   UNL     1      -0.330   1.346   0.216  0.00  0.00    +0.008 A 
BRANCH  18  21
ATOM     21  N   UNL     1       3.419   1.366   0.111  0.00  0.00    +0.056 N 
ATOM     22  O   UNL     1       4.335   0.568   0.028  0.00  0.00    -0.126 OA
ATOM     23  O   UNL     1       3.655   2.558   0.190  0.00  0.00    -0.126 OA
ENDBRANCH  18  21
ENDBRANCH  12  15
BRANCH   1  24
ATOM     24  S   UNL     1      -8.677   1.076   0.364  0.00  0.00    +0.072 S 
ATOM     25  O   UNL     1      -8.903   0.649   1.700  0.00  0.00    -0.150 OA
ATOM     26  O   UNL     1      -9.013   2.381  -0.086  0.00  0.00    -0.150 OA
BRANCH  24  27
ATOM     27  N   UNL     1      -9.486   0.015  -0.616  0.00  0.00    -0.216 N 
ATOM     28  H   UNL     1     -10.056   0.348  -1.326  0.00  0.00    +0.174 HD
BRANCH  27  35
ATOM     29  C   UNL     1      -7.845  -1.442  -2.426  0.00  0.00    +0.046 C 
ATOM     30  C   UNL     1      -8.557  -2.112  -1.280  0.00  0.00    -0.028 A 
ATOM     31  C   UNL     1      -8.419  -3.471  -1.079  0.00  0.00    +0.005 A 
ATOM     32  C   UNL     1      -9.077  -4.088  -0.030  0.00  0.00    +0.001 A 
ATOM     33  C   UNL     1      -9.870  -3.344   0.825  0.00  0.00    +0.005 A 
ATOM     34  C   UNL     1     -10.008  -1.984   0.633  0.00  0.00    -0.028 A 
ATOM     35  C   UNL     1      -9.349  -1.361  -0.419  0.00  0.00    +0.054 A 
ATOM     36  C   UNL     1     -10.873  -1.175   1.565  0.00  0.00    +0.046 C 
ENDBRANCH  27  35
ENDBRANCH  24  27
ENDBRANCH   1  24
TORSDOF 5
