REMARK  Name = ZINC15735432
REMARK  6 active torsions:
REMARK  status: ('A' for Active; 'I' for Inactive)
REMARK    1  A    between atoms: C_1  and  O_2
REMARK    2  A    between atoms: O_2  and  C_3
REMARK    3  A    between atoms: C_3  and  C_5
REMARK    4  A    between atoms: C_5  and  C_6
REMARK    5  A    between atoms: C_6  and  N_7
REMARK    6  A    between atoms: C_22  and  C_24
REMARK                            x       y       z     vdW  Elec       q    Type
REMARK                         _______ _______ _______ _____ _____    ______ ____
ROOT
ATOM      1  N   UNL     1      -4.495   3.446  -3.037  0.00  0.00    -0.299 N 
ATOM      2  C   UNL     1      -3.656   4.041  -2.166  0.00  0.00    +0.303 C 
ATOM      3  O   UNL     1      -3.064   5.053  -2.487  0.00  0.00    -0.253 OA
ATOM      4  N   UNL     1      -3.473   3.514  -0.939  0.00  0.00    -0.269 N 
ATOM      5  C   UNL     1      -4.172   2.289  -0.513  0.00  0.00    +0.148 C 
ATOM      6  C   UNL     1      -3.292   1.367   0.302  0.00  0.00    +0.005 A 
ATOM      7  C   UNL     1      -2.829   0.124  -0.176  0.00  0.00    -0.030 A 
ATOM      8  C   UNL     1      -2.070  -0.631   0.661  0.00  0.00    -0.005 A 
ATOM      9  S   UNL     1      -1.943   0.359   2.129  0.00  0.00    -0.075 S 
ATOM     10  C   UNL     1      -2.908   1.724   1.557  0.00  0.00    +0.090 A 
ATOM     11  N   UNL     1      -3.234   2.934   2.156  0.00  0.00    -0.312 N 
ATOM     12  C   UNL     1      -3.701   3.224   3.393  0.00  0.00    +0.092 A 
ATOM     13  C   UNL     1      -3.943   4.553   3.448  0.00  0.00    +0.020 A 
ATOM     14  C   UNL     1      -3.585   5.103   2.198  0.00  0.00    +0.025 A 
ATOM     15  C   UNL     1      -3.123   4.101   1.436  0.00  0.00    +0.049 A 
ATOM     16  C   UNL     1      -2.559   4.140   0.047  0.00  0.00    +0.155 C 
ATOM     17  C   UNL     1      -1.480  -1.977   0.394  0.00  0.00    +0.043 C 
ATOM     18  C   UNL     1      -2.148  -2.556  -0.862  0.00  0.00    +0.005 C 
ATOM     19  C   UNL     1      -2.163  -1.479  -1.951  0.00  0.00    +0.005 C 
ATOM     20  C   UNL     1      -3.155  -0.376  -1.581  0.00  0.00    +0.036 C 
ATOM     21  H   UNL     1      -4.967   2.638  -2.781  0.00  0.00    +0.150 HD
ENDROOT
BRANCH  16  22
ATOM     22  C   UNL     1      -1.244   3.405   0.031  0.00  0.00    -0.016 A 
ATOM     23  C   UNL     1      -0.397   3.480   1.121  0.00  0.00    +0.044 A 
ATOM     24  C   UNL     1       0.812   2.805   1.108  0.00  0.00    +0.126 A 
ATOM     25  C   UNL     1       1.173   2.055   0.002  0.00  0.00    +0.076 A 
ATOM     26  C   UNL     1       0.325   1.981  -1.089  0.00  0.00    +0.126 A 
ATOM     27  C   UNL     1      -0.882   2.661  -1.076  0.00  0.00    +0.044 A 
ATOM     28  F   UNL     1       0.676   1.250  -2.170  0.00  0.00    -0.205 F 
ATOM     29  F   UNL     1       1.639   2.879   2.174  0.00  0.00    -0.205 F 
ENDBRANCH  16  22
BRANCH   1  30
ATOM     30  C   UNL     1      -4.693   4.019  -4.371  0.00  0.00    +0.117 C 
BRANCH  30  31
ATOM     31  C   UNL     1      -5.686   3.157  -5.153  0.00  0.00    +0.139 C 
BRANCH  31  32
ATOM     32  C   UNL     1      -5.890   3.746  -6.525  0.00  0.00    +0.308 C 
ATOM     33  O   UNL     1      -5.302   4.752  -6.845  0.00  0.00    -0.251 OA
BRANCH  32  35
ATOM     34  C   UNL     1      -6.873   3.776  -8.696  0.00  0.00    +0.280 C 
ATOM     35  O   UNL     1      -6.725   3.153  -7.393  0.00  0.00    -0.468 OA
ENDBRANCH  32  35
ENDBRANCH  31  32
ENDBRANCH  30  31
ENDBRANCH   1  30
TORSDOF 5
