REMARK  Name = ZINC13097379
REMARK  12 active torsions:
REMARK  status: ('A' for Active; 'I' for Inactive)
REMARK    1  A    between atoms: C_1  and  S_2
REMARK    2  A    between atoms: S_2  and  C_3
REMARK    3  A    between atoms: C_3  and  C_4
REMARK    4  A    between atoms: C_4  and  C_5
REMARK    5  A    between atoms: C_5  and  C_7
REMARK    6  A    between atoms: C_5  and  N_21
REMARK    7  A    between atoms: C_7  and  O_9
REMARK    8  A    between atoms: O_9  and  C_10
REMARK    9  A    between atoms: C_10  and  C_11
REMARK   10  A    between atoms: N_13  and  C_14
REMARK   11  A    between atoms: C_22  and  C_24
REMARK   12  A    between atoms: C_28  and  N_30
REMARK                            x       y       z     vdW  Elec       q    Type
REMARK                         _______ _______ _______ _____ _____    ______ ____
ROOT
ATOM      1  C   UNL     1       1.071   7.477   0.034  0.00  0.00    +0.183 C 
ENDROOT
BRANCH   1   2
ATOM      2  N   UNL     1       1.095   6.012   0.035  0.00  0.00    -0.298 N 
ATOM      3  C   UNL     1      -0.061   5.320   0.041  0.00  0.00    +0.245 C 
ATOM      4  O   UNL     1      -1.124   5.910   0.046  0.00  0.00    -0.270 OA
ATOM      5  H   UNL     1       1.943   5.541   0.031  0.00  0.00    +0.150 HD
BRANCH   3   6
ATOM      6  C   UNL     1      -0.037   3.841   0.042  0.00  0.00    +0.039 A 
ATOM      7  C   UNL     1       1.181   3.160   0.036  0.00  0.00    +0.013 A 
ATOM      8  C   UNL     1       1.196   1.781   0.036  0.00  0.00    +0.003 A 
ATOM      9  C   UNL     1       0.008   1.073   0.042  0.00  0.00    +0.033 A 
ATOM     10  C   UNL     1      -1.203   1.742   0.042  0.00  0.00    +0.127 A 
ATOM     11  C   UNL     1      -1.233   3.121   0.048  0.00  0.00    +0.045 A 
BRANCH  10  12
ATOM     12  N   UNL     1      -2.470   0.976   0.042  0.00  0.00    +0.056 N 
ATOM     13  O   UNL     1      -2.446  -0.242   0.042  0.00  0.00    -0.126 OA
ATOM     14  O   UNL     1      -3.537   1.564   0.043  0.00  0.00    -0.126 OA
ENDBRANCH  10  12
ENDBRANCH   3   6
ENDBRANCH   1   2
BRANCH   1  15
ATOM     15  C   UNL     1       2.347   8.000  -0.573  0.00  0.00    +0.328 C 
ATOM     16  O   UNL     1       3.190   7.228  -0.965  0.00  0.00    -0.249 OA
BRANCH  15  17
ATOM     17  O   UNL     1       2.548   9.323  -0.678  0.00  0.00    -0.454 OA
BRANCH  17  18
ATOM     18  C   UNL     1       3.800   9.755  -1.273  0.00  0.00    +0.328 C 
BRANCH  18  19
ATOM     19  C   UNL     1       3.847  11.261  -1.308  0.00  0.00    +0.255 C 
ATOM     20  O   UNL     1       2.917  11.906  -0.874  0.00  0.00    -0.272 OA
ATOM     21  N   UNL     1       4.923  11.890  -1.821  0.00  0.00    -0.283 N 
ATOM     22  H   UNL     1       5.694  11.376  -2.106  0.00  0.00    +0.155 HD
BRANCH  21  23
ATOM     23  C   UNL     1       4.926  13.284  -1.942  0.00  0.00    +0.035 A 
ATOM     24  C   UNL     1       5.567  13.887  -3.016  0.00  0.00    +0.023 A 
ATOM     25  C   UNL     1       5.566  15.263  -3.135  0.00  0.00    +0.003 A 
ATOM     26  C   UNL     1       4.935  16.041  -2.182  0.00  0.00    +0.015 A 
ATOM     27  C   UNL     1       4.299  15.443  -1.108  0.00  0.00    +0.020 A 
ATOM     28  C   UNL     1       4.293  14.066  -0.986  0.00  0.00    +0.038 A 
ATOM     29 BR   UNL     1       3.439  16.511   0.194  0.00  0.00    -0.050 Br
ENDBRANCH  21  23
ENDBRANCH  18  19
ENDBRANCH  17  18
ENDBRANCH  15  17
ENDBRANCH   1  15
BRANCH   1  30
ATOM     30  C   UNL     1       0.944   7.986   1.472  0.00  0.00    +0.044 C 
BRANCH  30  31
ATOM     31  C   UNL     1      -0.408   7.559   2.046  0.00  0.00    +0.071 C 
BRANCH  31  33
ATOM     32  C   UNL     1      -2.194   7.581   4.279  0.00  0.00    +0.084 C 
ATOM     33  S   UNL     1      -0.559   8.162   3.750  0.00  0.00    -0.164 S 
ENDBRANCH  31  33
ENDBRANCH  30  31
ENDBRANCH   1  30
TORSDOF 11
