REMARK  Name = ZINC21676958
REMARK  12 active torsions:
REMARK  status: ('A' for Active; 'I' for Inactive)
REMARK    1  A    between atoms: C_1  and  C_2
REMARK    2  A    between atoms: C_5  and  C_8
REMARK    3  A    between atoms: C_8  and  N_9
REMARK    4  A    between atoms: C_11  and  C_15
REMARK    5  A    between atoms: C_12  and  C_14
REMARK    6  A    between atoms: C_16  and  C_17
REMARK    7  A    between atoms: C_17  and  O_19
REMARK    8  A    between atoms: O_19  and  C_20
REMARK    9  A    between atoms: C_20  and  C_21
REMARK   10  A    between atoms: N_23  and  C_24
REMARK   11  A    between atoms: C_28  and  N_31
REMARK   12  A    between atoms: C_29  and  C_30
REMARK                            x       y       z     vdW  Elec       q    Type
REMARK                         _______ _______ _______ _____ _____    ______ ____
ROOT
ATOM      1  C   UNL     1      -2.079   6.971   1.899  0.00  0.00    +0.332 C 
ATOM      2  O   UNL     1      -1.174   7.781   1.975  0.00  0.00    -0.246 OA
ENDROOT
BRANCH   1   4
ATOM      3  C   UNL     1      -3.668   8.638   2.563  0.00  0.00    +0.020 C 
ATOM      4  C   UNL     1      -3.406   7.363   2.195  0.00  0.00    +0.092 C 
BRANCH   3   7
ATOM      5  N   UNL     1      -7.218   9.350   2.731  0.00  0.00    -0.248 N 
ATOM      6  C   UNL     1      -6.165   8.819   2.086  0.00  0.00    +0.135 A 
ATOM      7  C   UNL     1      -5.045   9.044   2.870  0.00  0.00    +0.034 A 
ATOM      8  C   UNL     1      -5.479   9.735   4.026  0.00  0.00    +0.069 A 
ATOM      9  N   UNL     1      -6.767   9.916   3.929  0.00  0.00    -0.174 NA
ATOM     10  C   UNL     1      -4.606  10.188   5.168  0.00  0.00    +0.068 C 
ATOM     11 CL   UNL     1      -6.201   8.002   0.555  0.00  0.00    -0.062 Cl
BRANCH   5  12
ATOM     12  C   UNL     1      -8.604   9.340   2.258  0.00  0.00    +0.180 C 
BRANCH  12  17
ATOM     13  C   UNL     1     -11.261   4.583   4.185  0.00  0.00    +0.044 C 
ATOM     14  C   UNL     1     -10.568   5.824   3.682  0.00  0.00    -0.050 A 
ATOM     15  C   UNL     1     -10.591   6.982   4.437  0.00  0.00    +0.004 A 
ATOM     16  C   UNL     1      -9.955   8.120   3.976  0.00  0.00    +0.006 A 
ATOM     17  C   UNL     1      -9.297   8.099   2.760  0.00  0.00    -0.026 A 
ATOM     18  C   UNL     1      -9.279   6.943   2.003  0.00  0.00    +0.006 A 
ATOM     19  C   UNL     1      -9.912   5.804   2.466  0.00  0.00    +0.004 A 
ENDBRANCH  12  17
ENDBRANCH   5  12
ENDBRANCH   3   7
ENDBRANCH   1   4
BRANCH   1  20
ATOM     20  O   UNL     1      -1.817   5.699   1.531  0.00  0.00    -0.452 OA
BRANCH  20  21
ATOM     21  C   UNL     1      -0.455   5.374   1.247  0.00  0.00    +0.328 C 
BRANCH  21  22
ATOM     22  C   UNL     1      -0.356   3.921   0.857  0.00  0.00    +0.255 C 
ATOM     23  O   UNL     1      -1.355   3.233   0.825  0.00  0.00    -0.272 OA
ATOM     24  N   UNL     1       0.841   3.387   0.543  0.00  0.00    -0.282 N 
ATOM     25  H   UNL     1       1.735   4.027   0.503  0.00  0.00    +0.155 HD
BRANCH  24  26
ATOM     26  C   UNL     1       0.946   2.019   0.268  0.00  0.00    +0.039 A 
ATOM     27  C   UNL     1      -0.102   1.351  -0.352  0.00  0.00    +0.024 A 
ATOM     28  C   UNL     1       0.005   0.002  -0.622  0.00  0.00    +0.004 A 
ATOM     29  C   UNL     1       1.155  -0.685  -0.276  0.00  0.00    +0.033 A 
ATOM     30  C   UNL     1       2.200  -0.023   0.342  0.00  0.00    +0.131 A 
ATOM     31  C   UNL     1       2.099   1.327   0.614  0.00  0.00    +0.001 A 
ATOM     32  C   UNL     1       3.238   2.048   1.288  0.00  0.00    +0.048 C 
BRANCH  30  33
ATOM     33  N   UNL     1       3.428  -0.762   0.711  0.00  0.00    +0.057 N 
ATOM     34  O   UNL     1       3.467  -1.974   0.596  0.00  0.00    -0.126 OA
ATOM     35  O   UNL     1       4.399  -0.159   1.131  0.00  0.00    -0.126 OA
ENDBRANCH  30  33
ENDBRANCH  24  26
ENDBRANCH  21  22
ENDBRANCH  20  21
ENDBRANCH   1  20
TORSDOF 9
