REMARK  Name = ZINC13319998
REMARK  5 active torsions:
REMARK  status: ('A' for Active; 'I' for Inactive)
REMARK    1  A    between atoms: C_1  and  O_2
REMARK    2  A    between atoms: O_2  and  C_3
REMARK    3  A    between atoms: C_3  and  C_5
REMARK    4  A    between atoms: C_6  and  N_10
REMARK    5  A    between atoms: C_18  and  N_57
REMARK                            x       y       z     vdW  Elec       q    Type
REMARK                         _______ _______ _______ _____ _____    ______ ____
ROOT
ATOM      1  N   UNL     1       3.607   1.346  -0.027  0.00  0.00    -0.268 N 
ATOM      2  C   UNL     1       4.028   2.623  -0.124  0.00  0.00    +0.306 C 
ATOM      3  O   UNL     1       3.220   3.532  -0.110  0.00  0.00    -0.252 OA
ATOM      4  N   UNL     1       5.344   2.892  -0.238  0.00  0.00    -0.289 N 
ATOM      5  C   UNL     1       6.329   1.806  -0.359  0.00  0.00    +0.091 C 
ATOM      6  C   UNL     1       7.221   2.098  -1.576  0.00  0.00    -0.059 C 
ATOM      7  C   UNL     1       6.745   4.473  -1.453  0.00  0.00    -0.059 C 
ATOM      8  C   UNL     1       5.833   4.279  -0.237  0.00  0.00    +0.091 C 
ATOM      9  H   UNL     1       4.253   0.624   0.016  0.00  0.00    +0.156 HD
ATOM     10  N   UNL     1       7.809   3.446  -1.418  0.00  0.00    +0.385 N 
ATOM     11  H   UNL     1       8.290   3.495  -0.512  0.00  0.00    -0.081 HD
ENDROOT
BRANCH  10  12
ATOM     12  C   UNL     1       8.789   3.698  -2.494  0.00  0.00    -0.065 C 
ATOM     13  C   UNL     1       8.102   3.686  -3.861  0.00  0.00    -0.009 C 
ATOM     14  C   UNL     1       9.138   3.950  -4.956  0.00  0.00    -0.012 C 
ATOM     15  C   UNL     1      10.211   2.861  -4.915  0.00  0.00    +0.007 C 
ATOM     16  C   UNL     1      10.899   2.872  -3.548  0.00  0.00    -0.012 C 
ATOM     17  C   UNL     1       9.862   2.608  -2.454  0.00  0.00    -0.009 C 
ATOM     18  C   UNL     1      11.549   4.237  -3.316  0.00  0.00    +0.007 C 
ATOM     19  C   UNL     1      10.476   5.327  -3.356  0.00  0.00    -0.012 C 
ATOM     20  C   UNL     1       9.789   5.316  -4.723  0.00  0.00    +0.007 C 
ATOM     21  C   UNL     1       9.440   5.063  -2.262  0.00  0.00    -0.009 C 
ENDBRANCH  10  12
BRANCH   1  23
ATOM     22  C   UNL     1       1.752  -0.215  -0.260  0.00  0.00    +0.117 A 
ATOM     23  C   UNL     1       2.242   1.063   0.011  0.00  0.00    +0.056 A 
ATOM     24  C   UNL     1       1.310   2.032   0.318  0.00  0.00    +0.032 A 
ATOM     25  C   UNL     1      -0.006   1.703   0.341  0.00  0.00    +0.048 A 
ATOM     26  S   UNL     1      -0.006   0.018  -0.067  0.00  0.00    -0.088 S 
BRANCH  22  27
ATOM     27  C   UNL     1       2.463  -1.389  -0.600  0.00  0.00    +0.347 C 
ATOM     28  O   UNL     1       3.677  -1.361  -0.688  0.00  0.00    -0.244 OA
BRANCH  27  30
ATOM     29  C   UNL     1       2.579  -3.688  -1.165  0.00  0.00    +0.280 C 
ATOM     30  O   UNL     1       1.796  -2.541  -0.826  0.00  0.00    -0.464 OA
ENDBRANCH  27  30
ENDBRANCH  22  27
ENDBRANCH   1  23
TORSDOF 4
