REMARK  Name = ZINC33921707
REMARK  7 active torsions:
REMARK  status: ('A' for Active; 'I' for Inactive)
REMARK    1  A    between atoms: C_1  and  C_2
REMARK    2  A    between atoms: C_4  and  N_13
REMARK    3  A    between atoms: C_5  and  S_9
REMARK    4  A    between atoms: N_14  and  C_15
REMARK    5  A    between atoms: C_16  and  N_30
REMARK    6  A    between atoms: C_21  and  O_29
REMARK    7  A    between atoms: C_23  and  S_25
REMARK                            x       y       z     vdW  Elec       q    Type
REMARK                         _______ _______ _______ _____ _____    ______ ____
ROOT
ATOM      1  C   UNL     1      -0.008  -0.905  -3.503  0.00  0.00    +0.118 A 
ATOM      2  C   UNL     1       0.112  -0.285  -2.253  0.00  0.00    +0.053 A 
ATOM      3  C   UNL     1       0.321   1.092  -2.167  0.00  0.00    +0.025 A 
ATOM      4  C   UNL     1       0.413   1.873  -3.275  0.00  0.00    +0.010 A 
ATOM      5  C   UNL     1       0.301   1.315  -4.562  0.00  0.00    -0.010 A 
ATOM      6  C   UNL     1       0.096  -0.078  -4.705  0.00  0.00    +0.053 A 
ATOM      7  C   UNL     1      -0.010  -0.636  -5.988  0.00  0.00    +0.129 A 
ATOM      8  C   UNL     1       0.094   0.182  -7.093  0.00  0.00    +0.075 A 
ATOM      9  C   UNL     1       0.302   1.550  -6.946  0.00  0.00    +0.124 A 
ATOM     10  C   UNL     1       0.396   2.118  -5.712  0.00  0.00    +0.038 A 
ENDROOT
BRANCH   9  11
ATOM     11  S   UNL     1       0.431   2.567  -8.380  0.00  0.00    +0.140 S 
ATOM     12  O   UNL     1       1.308   3.675  -8.035  0.00  0.00    -0.140 OA
ATOM     13  O   UNL     1       0.992   1.738  -9.436  0.00  0.00    -0.140 OA
ATOM     14  O   UNL     1      -0.914   3.018  -8.700  0.00  0.00    -0.043 OA
ENDBRANCH   9  11
BRANCH   2  15
ATOM     15  N   UNL     1       0.024  -1.046  -1.094  0.00  0.00    -0.356 N 
ATOM     16  H   UNL     1      -0.020  -2.013  -1.150  0.00  0.00    +0.142 HD
ATOM     17  H   UNL     1       0.006  -0.609  -0.228  0.00  0.00    +0.142 HD
ENDBRANCH   2  15
BRANCH   1  19
ATOM     18  N   UNL     1      -1.198  -2.792  -2.974  0.00  0.00    -0.147 NA
ATOM     19  N   UNL     1      -0.211  -2.244  -3.598  0.00  0.00    -0.147 NA
BRANCH  18  23
ATOM     20  C   UNL     1      -3.860   1.315  -2.931  0.00  0.00    +0.045 C 
ATOM     21  C   UNL     1      -3.463  -0.005  -2.322  0.00  0.00    -0.030 A 
ATOM     22  C   UNL     1      -2.509  -0.787  -2.937  0.00  0.00    +0.036 A 
ATOM     23  C   UNL     1      -2.143  -2.012  -2.370  0.00  0.00    +0.114 A 
ATOM     24  C   UNL     1      -2.748  -2.434  -1.183  0.00  0.00    +0.148 A 
ATOM     25  C   UNL     1      -3.700  -1.641  -0.578  0.00  0.00    +0.052 A 
ATOM     26  C   UNL     1      -4.054  -0.427  -1.142  0.00  0.00    +0.046 A 
ATOM     27 CL   UNL     1      -5.250   0.568  -0.371  0.00  0.00    -0.083 Cl
BRANCH  24  28
ATOM     28  S   UNL     1      -2.294  -3.975  -0.460  0.00  0.00    +0.142 S 
ATOM     29  O   UNL     1      -1.189  -3.708   0.447  0.00  0.00    -0.140 OA
ATOM     30  O   UNL     1      -3.466  -4.474   0.243  0.00  0.00    -0.140 OA
ATOM     31  O   UNL     1      -1.901  -4.854  -1.551  0.00  0.00    -0.043 OA
ENDBRANCH  24  28
ENDBRANCH  18  23
ENDBRANCH   1  19
BRANCH   7  32
ATOM     32  O   UNL     1      -0.213  -1.970  -6.141  0.00  0.00    -0.506 OA
ATOM     33  H   UNL     1      -1.145  -2.226  -6.170  0.00  0.00    +0.292 HD
ENDBRANCH   7  32
TORSDOF 6
