REMARK  Name = ZINC39344850
REMARK  11 active torsions:
REMARK  status: ('A' for Active; 'I' for Inactive)
REMARK    1  A    between atoms: C_1  and  C_2
REMARK    2  A    between atoms: C_4  and  C_9
REMARK    3  A    between atoms: C_5  and  C_8
REMARK    4  A    between atoms: C_9  and  O_10
REMARK    5  A    between atoms: O_10  and  C_11
REMARK    6  A    between atoms: N_14  and  C_24
REMARK    7  A    between atoms: N_18  and  C_20
REMARK    8  A    between atoms: C_20  and  C_21
REMARK    9  A    between atoms: C_21  and  C_22
REMARK   10  A    between atoms: C_21  and  C_23
REMARK   11  A    between atoms: C_24  and  C_25
REMARK                            x       y       z     vdW  Elec       q    Type
REMARK                         _______ _______ _______ _____ _____    ______ ____
ROOT
ATOM      1  C   UNL     1      -4.945  -0.921  -1.136  0.00  0.00    +0.120 C 
ATOM      2  C   UNL     1      -5.753  -2.202  -1.084  0.00  0.00    -0.044 C 
ATOM      3  N   UNL     1      -6.877  -2.240  -2.009  0.00  0.00    +0.391 N 
ATOM      4  C   UNL     1      -7.919  -1.284  -1.614  0.00  0.00    +0.019 C 
ATOM      5  C   UNL     1      -7.589   0.067  -2.212  0.00  0.00    +0.199 C 
ATOM      6  O   UNL     1      -8.252   0.497  -3.132  0.00  0.00    -0.278 OA
ATOM      7  N   UNL     1      -6.573   0.788  -1.732  0.00  0.00    -0.300 N 
ATOM      8  C   UNL     1      -5.766   0.262  -0.616  0.00  0.00    +0.137 C 
ATOM      9  H   UNL     1      -6.551  -2.010  -2.936  0.00  0.00    -0.080 HD
ENDROOT
BRANCH   1  10
ATOM     10  O   UNL     1      -3.775  -1.071  -0.330  0.00  0.00    -0.372 OA
BRANCH  10  11
ATOM     11  C   UNL     1      -2.651  -0.318  -0.790  0.00  0.00    +0.195 C 
BRANCH  11  14
ATOM     12  C   UNL     1      -0.391  -2.626  -0.725  0.00  0.00    +0.045 C 
ATOM     13  C   UNL     1      -0.902  -1.892   0.516  0.00  0.00    +0.175 C 
ATOM     14  C   UNL     1      -1.480  -0.550   0.130  0.00  0.00    +0.007 C 
ATOM     15  C   UNL     1      -0.777   0.380   0.741  0.00  0.00    +0.040 C 
ATOM     16  N   UNL     1       0.227  -0.179   1.511  0.00  0.00    -0.269 N 
ATOM     17  O   UNL     1       0.187  -1.593   1.402  0.00  0.00    -0.267 OA
ATOM     18  C   UNL     1      -1.033   1.860   0.619  0.00  0.00    +0.065 C 
ATOM     19  H   UNL     1       0.864   0.321   2.046  0.00  0.00    +0.194 HD
ENDBRANCH  11  14
ENDBRANCH  10  11
ENDBRANCH   1  10
BRANCH   7  20
ATOM     20  C   UNL     1      -6.262   2.097  -2.312  0.00  0.00    +0.110 C 
BRANCH  20  21
ATOM     21  C   UNL     1      -7.045   3.183  -1.571  0.00  0.00    +0.000 C 
ATOM     22  C   UNL     1      -6.564   3.258  -0.120  0.00  0.00    +0.009 C 
ATOM     23  C   UNL     1      -6.817   4.533  -2.254  0.00  0.00    +0.009 C 
ENDBRANCH  20  21
ENDBRANCH   7  20
BRANCH   3  24
ATOM     24  C   UNL     1      -7.446  -3.595  -2.022  0.00  0.00    -0.024 C 
BRANCH  24  25
ATOM     25  C   UNL     1      -8.530  -3.675  -3.066  0.00  0.00    +0.000 A 
ATOM     26  H   UNL     1     -10.202  -2.977  -2.040  0.00  0.00    +0.166 HD
ATOM     27  C   UNL     1      -8.357  -4.113  -4.323  0.00  0.00    +0.029 A 
ATOM     28  C   UNL     1      -9.659  -4.024  -4.989  0.00  0.00    -0.000 A 
ATOM     29  C   UNL     1     -10.114  -4.326  -6.274  0.00  0.00    +0.010 A 
ATOM     30  C   UNL     1     -11.427  -4.125  -6.593  0.00  0.00    +0.001 A 
ATOM     31  C   UNL     1     -12.313  -3.622  -5.651  0.00  0.00    +0.002 A 
ATOM     32  C   UNL     1     -11.885  -3.317  -4.377  0.00  0.00    +0.026 A 
ATOM     33  C   UNL     1     -10.553  -3.514  -4.030  0.00  0.00    +0.047 A 
ATOM     34  N   UNL     1      -9.836  -3.319  -2.870  0.00  0.00    -0.360 N 
ENDBRANCH  24  25
ENDBRANCH   3  24
TORSDOF 7
