REMARK  Name = ZINC45682628
REMARK  15 active torsions:
REMARK  status: ('A' for Active; 'I' for Inactive)
REMARK    1  A    between atoms: C_1  and  C_2
REMARK    2  A    between atoms: C_4  and  C_8
REMARK    3  A    between atoms: C_5  and  C_7
REMARK    4  A    between atoms: C_10  and  C_18
REMARK    5  A    between atoms: C_12  and  C_17
REMARK    6  A    between atoms: C_18  and  O_20
REMARK    7  A    between atoms: O_20  and  C_21
REMARK    8  A    between atoms: C_21  and  C_23
REMARK    9  A    between atoms: C_21  and  C_24
REMARK   10  A    between atoms: N_26  and  C_27
REMARK   11  A    between atoms: C_27  and  C_28
REMARK   12  A    between atoms: C_27  and  C_29
REMARK   13  A    between atoms: C_27  and  C_31
REMARK   14  A    between atoms: C_31  and  C_32
REMARK   15  A    between atoms: C_31  and  C_33
REMARK                            x       y       z     vdW  Elec       q    Type
REMARK                         _______ _______ _______ _____ _____    ______ ____
ROOT
ATOM      1  C   UNL     1      -1.856  -3.663  -1.056  0.00  0.00    +0.076 A 
ATOM      2  C   UNL     1      -3.206  -3.315  -1.169  0.00  0.00    +0.044 A 
ATOM      3  C   UNL     1      -4.151  -4.026  -0.438  0.00  0.00    +0.075 A 
ATOM      4  C   UNL     1      -3.695  -5.074   0.391  0.00  0.00    +0.077 A 
ATOM      5  C   UNL     1      -4.359  -6.020   1.284  0.00  0.00    +0.091 A 
ATOM      6  N   UNL     1      -3.438  -6.776   1.802  0.00  0.00    -0.080 NA
ATOM      7  O   UNL     1      -2.172  -6.392   1.305  0.00  0.00    -0.334 OA
ATOM      8  C   UNL     1      -2.321  -5.360   0.449  0.00  0.00    +0.260 A 
ATOM      9  N   UNL     1      -1.463  -4.656  -0.272  0.00  0.00    -0.210 NA
ATOM     10  C   UNL     1      -5.839  -6.105   1.555  0.00  0.00    +0.070 C 
ENDROOT
BRANCH   1  14
ATOM     11  C   UNL     1      -0.309  -0.076  -4.296  0.00  0.00    +0.051 C 
ATOM     12  C   UNL     1      -0.224  -1.232  -3.333  0.00  0.00    -0.012 A 
ATOM     13  C   UNL     1      -1.222  -1.857  -2.668  0.00  0.00    +0.021 A 
ATOM     14  C   UNL     1      -0.845  -2.909  -1.832  0.00  0.00    +0.011 A 
ATOM     15  C   UNL     1       0.479  -3.224  -1.750  0.00  0.00    -0.004 A 
ATOM     16  S   UNL     1       1.217  -2.128  -2.788  0.00  0.00    -0.098 S 
ATOM     17  C   UNL     1       1.128  -4.307  -0.927  0.00  0.00    +0.052 C 
ENDBRANCH   1  14
BRANCH   3  18
ATOM     18  C   UNL     1      -5.590  -3.694  -0.525  0.00  0.00    +0.341 C 
ATOM     19  O   UNL     1      -6.422  -4.577  -0.468  0.00  0.00    -0.245 OA
BRANCH  18  20
ATOM     20  O   UNL     1      -5.978  -2.412  -0.669  0.00  0.00    -0.449 OA
BRANCH  20  21
ATOM     21  C   UNL     1      -7.383  -2.164  -0.747  0.00  0.00    +0.259 C 
ATOM     22  C   UNL     1      -7.831  -2.220  -2.208  0.00  0.00    +0.062 C 
BRANCH  21  23
ATOM     23  C   UNL     1      -7.685  -0.801  -0.180  0.00  0.00    +0.255 C 
ATOM     24  O   UNL     1      -6.778  -0.073   0.163  0.00  0.00    -0.272 OA
ATOM     25  N   UNL     1      -8.963  -0.390  -0.057  0.00  0.00    -0.294 N 
ATOM     26  H   UNL     1      -9.688  -0.973  -0.332  0.00  0.00    +0.150 HD
BRANCH  25  27
ATOM     27  C   UNL     1      -9.256   0.935   0.493  0.00  0.00    +0.121 C 
ATOM     28  C   UNL     1      -8.697   1.033   1.914  0.00  0.00    +0.048 C 
BRANCH  27  29
ATOM     29  C   UNL     1     -10.771   1.151   0.525  0.00  0.00    +0.020 C 
ATOM     30  C   UNL     1     -11.406   0.158   1.501  0.00  0.00    +0.010 C 
ATOM     31  C   UNL     1     -11.073   2.579   0.982  0.00  0.00    +0.010 C 
ENDBRANCH  27  29
BRANCH  27  32
ATOM     32  C   UNL     1      -8.632   1.966  -0.351  0.00  0.00    +0.088 C 
ATOM     33  N   UNL     1      -8.150   2.762  -1.003  0.00  0.00    -0.194 NA
ENDBRANCH  27  32
ENDBRANCH  25  27
ENDBRANCH  21  23
ENDBRANCH  20  21
ENDBRANCH  18  20
ENDBRANCH   3  18
TORSDOF 8
