REMARK  Name = ZINC24837776
REMARK  11 active torsions:
REMARK  status: ('A' for Active; 'I' for Inactive)
REMARK    1  A    between atoms: C_1  and  C_2
REMARK    2  A    between atoms: C_2  and  C_4
REMARK    3  A    between atoms: C_2  and  N_30
REMARK    4  A    between atoms: C_7  and  S_16
REMARK    5  A    between atoms: N_8  and  C_9
REMARK    6  A    between atoms: S_16  and  C_17
REMARK    7  A    between atoms: C_17  and  C_18
REMARK    8  A    between atoms: C_18  and  C_20
REMARK    9  A    between atoms: C_18  and  O_29
REMARK   10  A    between atoms: C_20  and  O_21
REMARK   11  A    between atoms: O_21  and  C_22
REMARK                            x       y       z     vdW  Elec       q    Type
REMARK                         _______ _______ _______ _____ _____    ______ ____
ROOT
ATOM      1  C   UNL     1       1.049   0.363   4.642  0.00  0.00    +0.125 A 
ATOM      2  N   UNL     1       1.755  -0.122   3.659  0.00  0.00    -0.135 NA
ATOM      3  N   UNL     1       1.244   0.226   2.533  0.00  0.00    -0.122 NA
ATOM      4  C   UNL     1       0.174   0.961   2.735  0.00  0.00    +0.196 A 
ATOM      5  N   UNL     1       0.018   1.076   4.089  0.00  0.00    -0.275 N 
ENDROOT
BRANCH   5   6
ATOM      6  C   UNL     1      -0.989   1.776   4.770  0.00  0.00    +0.050 A 
ATOM      7  C   UNL     1      -0.664   2.877   5.551  0.00  0.00    +0.029 A 
ATOM      8  C   UNL     1      -1.658   3.569   6.215  0.00  0.00    +0.040 A 
ATOM      9  C   UNL     1      -2.976   3.157   6.113  0.00  0.00    +0.124 A 
ATOM     10  C   UNL     1      -3.301   2.055   5.340  0.00  0.00    +0.040 A 
ATOM     11  C   UNL     1      -2.311   1.365   4.669  0.00  0.00    +0.029 A 
ATOM     12  F   UNL     1      -3.946   3.831   6.769  0.00  0.00    -0.205 F 
ENDBRANCH   5   6
BRANCH   1  14
ATOM     13  C   UNL     1       2.502   1.059   6.527  0.00  0.00    -0.005 C 
ATOM     14  C   UNL     1       1.321   0.179   6.113  0.00  0.00    -0.002 C 
BRANCH  14  15
ATOM     15  N   UNL     1       1.642  -1.229   6.379  0.00  0.00    +0.386 N 
ATOM     16  C   UNL     1       0.571  -2.113   5.901  0.00  0.00    -0.078 C 
ATOM     17  C   UNL     1       1.002  -3.572   6.062  0.00  0.00    -0.019 C 
ATOM     18  C   UNL     1       1.300  -3.852   7.538  0.00  0.00    -0.004 C 
ATOM     19  C   UNL     1       2.384  -2.886   8.023  0.00  0.00    -0.019 C 
ATOM     20  C   UNL     1       1.913  -1.447   7.806  0.00  0.00    -0.078 C 
ATOM     21  H   UNL     1       2.557  -1.480   5.822  0.00  0.00    -0.081 HD
ENDBRANCH  14  15
ENDBRANCH   1  14
BRANCH   4  22
ATOM     22  S   UNL     1      -0.860   1.669   1.497  0.00  0.00    -0.083 S 
BRANCH  22  23
ATOM     23  C   UNL     1      -0.013   1.086   0.008  0.00  0.00    +0.112 C 
BRANCH  23  24
ATOM     24  C   UNL     1      -0.753   1.593  -1.232  0.00  0.00    +0.162 C 
BRANCH  24  25
ATOM     25  O   UNL     1      -0.672   3.018  -1.285  0.00  0.00    -0.388 OA
ATOM     26  H   UNL     1      -1.148   3.566  -2.111  0.00  0.00    +0.210 HD
ENDBRANCH  24  25
BRANCH  24  27
ATOM     27  C   UNL     1      -0.111   0.998  -2.487  0.00  0.00    +0.261 C 
BRANCH  27  28
ATOM     28  O   UNL     1      -0.872   1.377  -3.636  0.00  0.00    -0.489 OA
BRANCH  28  29
ATOM     29  C   UNL     1      -0.434   0.928  -4.841  0.00  0.00    +0.121 A 
ATOM     30  C   UNL     1       0.707   0.144  -4.918  0.00  0.00    +0.047 A 
ATOM     31  C   UNL     1       1.148  -0.316  -6.144  0.00  0.00    +0.023 A 
ATOM     32  C   UNL     1       0.457   0.015  -7.296  0.00  0.00    +0.041 A 
ATOM     33  C   UNL     1      -0.678   0.802  -7.223  0.00  0.00    +0.023 A 
ATOM     34  C   UNL     1      -1.125   1.258  -5.998  0.00  0.00    +0.047 A 
ATOM     35 CL   UNL     1       1.017  -0.558  -8.836  0.00  0.00    -0.084 Cl
ENDBRANCH  28  29
ENDBRANCH  27  28
ENDBRANCH  24  27
ENDBRANCH  23  24
ENDBRANCH  22  23
ENDBRANCH   4  22
TORSDOF 10
