REMARK  Name = ZINC39677008
REMARK  9 active torsions:
REMARK  status: ('A' for Active; 'I' for Inactive)
REMARK    1  A    between atoms: C_1  and  C_2
REMARK    2  A    between atoms: C_5  and  C_35
REMARK    3  A    between atoms: C_6  and  C_8
REMARK    4  A    between atoms: C_8  and  C_9
REMARK    5  A    between atoms: C_9  and  N_10
REMARK    6  A    between atoms: C_11  and  C_13
REMARK    7  A    between atoms: C_24  and  C_26
REMARK    8  A    between atoms: C_28  and  O_33
REMARK    9  A    between atoms: O_33  and  C_34
REMARK                            x       y       z     vdW  Elec       q    Type
REMARK                         _______ _______ _______ _____ _____    ______ ____
ROOT
ATOM      1  C   UNL     1       2.646  -5.748   6.079  0.00  0.00    +0.100 C 
ATOM      2  C   UNL     1       2.195  -4.655   7.074  0.00  0.00    +0.121 C 
ATOM      3  N   UNL     1       3.095  -4.817   8.241  0.00  0.00    -0.296 N 
ATOM      4  C   UNL     1       4.419  -5.119   7.647  0.00  0.00    +0.115 C 
ATOM      5  C   UNL     1       4.106  -6.049   6.458  0.00  0.00    -0.004 C 
ATOM      6  C   UNL     1       5.031  -5.736   5.286  0.00  0.00    -0.010 C 
ATOM      7  C   UNL     1       6.470  -6.098   5.666  0.00  0.00    -0.082 C 
ATOM      8  N   UNL     1       6.544  -7.524   6.006  0.00  0.00    +0.379 N 
ATOM      9  C   UNL     1       5.724  -7.799   7.192  0.00  0.00    -0.082 C 
ATOM     10  C   UNL     1       4.254  -7.509   6.877  0.00  0.00    -0.010 C 
ATOM     11  C   UNL     1       2.779  -4.714   9.547  0.00  0.00    +0.248 C 
ATOM     12  O   UNL     1       3.653  -4.779  10.390  0.00  0.00    -0.270 OA
ATOM     13  H   UNL     1       6.205  -8.072   5.230  0.00  0.00    -0.086 HD
ATOM     14  H   UNL     1       7.503  -7.773   6.197  0.00  0.00    -0.086 HD
ENDROOT
BRANCH  11  15
ATOM     15  C   UNL     1       1.372  -4.522   9.955  0.00  0.00    +0.054 A 
ATOM     16  C   UNL     1       0.517  -3.742   9.175  0.00  0.00    +0.059 A 
ATOM     17  C   UNL     1      -0.800  -3.567   9.563  0.00  0.00    +0.121 A 
ATOM     18  C   UNL     1      -1.269  -4.166  10.725  0.00  0.00    +0.047 A 
ATOM     19  C   UNL     1      -0.425  -4.939  11.499  0.00  0.00    +0.019 A 
ATOM     20  C   UNL     1       0.890  -5.125  11.119  0.00  0.00    +0.030 A 
ATOM     21 BR   UNL     1       2.040  -6.190  12.178  0.00  0.00    -0.050 Br
BRANCH  17  22
ATOM     22  O   UNL     1      -1.636  -2.807   8.806  0.00  0.00    -0.495 OA
ATOM     23  C   UNL     1      -2.982  -2.669   9.265  0.00  0.00    +0.277 C 
ENDBRANCH  17  22
ENDBRANCH  11  15
BRANCH   1  25
ATOM     24  N   UNL     1       2.336  -6.092   3.650  0.00  0.00    -0.315 N 
ATOM     25  C   UNL     1       2.566  -5.236   4.665  0.00  0.00    +0.218 C 
ATOM     26  O   UNL     1       2.708  -4.053   4.439  0.00  0.00    -0.275 OA
ATOM     27  H   UNL     1       2.222  -7.038   3.830  0.00  0.00    +0.149 HD
BRANCH  24  28
ATOM     28  C   UNL     1       2.258  -5.594   2.274  0.00  0.00    +0.109 C 
BRANCH  28  29
ATOM     29  C   UNL     1       1.991  -6.762   1.323  0.00  0.00    +0.054 C 
BRANCH  29  35
ATOM     30  C   UNL     1      -0.731  -5.147  -2.554  0.00  0.00    +0.044 C 
ATOM     31  C   UNL     1       0.608  -5.477  -1.947  0.00  0.00    -0.050 A 
ATOM     32  C   UNL     1       1.763  -5.310  -2.688  0.00  0.00    +0.003 A 
ATOM     33  C   UNL     1       2.991  -5.612  -2.131  0.00  0.00    +0.004 A 
ATOM     34  C   UNL     1       3.065  -6.082  -0.833  0.00  0.00    -0.047 A 
ATOM     35  C   UNL     1       1.911  -6.249  -0.092  0.00  0.00    -0.043 A 
ATOM     36  C   UNL     1       0.682  -5.942  -0.647  0.00  0.00    +0.007 A 
ATOM     37  C   UNL     1       4.404  -6.413  -0.227  0.00  0.00    +0.044 C 
ENDBRANCH  29  35
ENDBRANCH  28  29
ENDBRANCH  24  28
ENDBRANCH   1  25
TORSDOF 6
