REMARK  Name = ZINC01273140
REMARK  9 active torsions:
REMARK  status: ('A' for Active; 'I' for Inactive)
REMARK    1  A    between atoms: C_1  and  C_2
REMARK    2  A    between atoms: C_2  and  O_3
REMARK    3  A    between atoms: O_3  and  C_4
REMARK    4  A    between atoms: C_4  and  C_6
REMARK    5  A    between atoms: C_6  and  C_8
REMARK    6  A    between atoms: C_6  and  S_14
REMARK    7  A    between atoms: S_14  and  C_15
REMARK    8  A    between atoms: C_33  and  C_35
REMARK    9  A    between atoms: C_33  and  C_36
REMARK                            x       y       z     vdW  Elec       q    Type
REMARK                         _______ _______ _______ _____ _____    ______ ____
ROOT
ATOM      1  C   UNL     1      -2.611  -3.003   2.764  0.00  0.00    +0.116 A 
ATOM      2  C   UNL     1      -2.910  -3.040   4.119  0.00  0.00    +0.072 A 
ATOM      3  C   UNL     1      -2.155  -3.823   5.001  0.00  0.00    +0.092 A 
ATOM      4  C   UNL     1      -2.568  -3.780   6.416  0.00  0.00    +0.037 A 
ATOM      5  C   UNL     1      -1.983  -4.469   7.507  0.00  0.00    -0.024 A 
ATOM      6  C   UNL     1      -2.497  -4.309   8.755  0.00  0.00    +0.022 A 
ATOM      7  C   UNL     1      -3.603  -3.473   8.951  0.00  0.00    +0.128 A 
ATOM      8  N   UNL     1      -4.149  -2.832   7.930  0.00  0.00    -0.224 NA
ATOM      9  C   UNL     1      -3.672  -2.962   6.710  0.00  0.00    +0.113 A 
ATOM     10  S   UNL     1      -4.135  -2.270   5.141  0.00  0.00    -0.064 S 
ATOM     11  N   UNL     1      -4.130  -3.316  10.226  0.00  0.00    -0.310 N 
ATOM     12  C   UNL     1      -3.610  -2.285  11.139  0.00  0.00    +0.134 C 
ATOM     13  C   UNL     1      -4.795  -1.479  11.683  0.00  0.00    +0.178 C 
ATOM     14  O   UNL     1      -5.766  -2.377  12.226  0.00  0.00    -0.377 OA
ATOM     15  C   UNL     1      -6.332  -3.276  11.269  0.00  0.00    +0.178 C 
ATOM     16  C   UNL     1      -5.229  -4.170  10.701  0.00  0.00    +0.134 C 
ATOM     17  C   UNL     1      -1.899  -5.008   9.948  0.00  0.00    +0.199 C 
ATOM     18  O   UNL     1      -1.051  -6.074   9.522  0.00  0.00    -0.369 OA
ATOM     19  C   UNL     1      -0.078  -5.669   8.552  0.00  0.00    +0.068 C 
ATOM     20  C   UNL     1      -0.803  -5.364   7.239  0.00  0.00    +0.070 C 
ATOM     21  C   UNL     1       0.933  -6.796   8.333  0.00  0.00    +0.041 C 
ATOM     22  C   UNL     1       0.647  -4.414   9.043  0.00  0.00    +0.041 C 
ATOM     23  N   UNL     1      -1.137  -4.524   4.451  0.00  0.00    -0.234 NA
ATOM     24  C   UNL     1      -0.883  -4.465   3.168  0.00  0.00    +0.223 A 
ATOM     25  N   UNL     1      -1.588  -3.736   2.322  0.00  0.00    -0.228 NA
ENDROOT
BRANCH   1  26
ATOM     26  S   UNL     1      -3.562  -2.017   1.655  0.00  0.00    -0.085 S 
BRANCH  26  27
ATOM     27  C   UNL     1      -2.794  -2.311   0.038  0.00  0.00    +0.191 C 
BRANCH  27  28
ATOM     28  C   UNL     1      -3.595  -1.615  -1.032  0.00  0.00    -0.023 A 
ATOM     29  C   UNL     1      -3.759  -0.243  -0.990  0.00  0.00    +0.005 A 
ATOM     30  C   UNL     1      -4.493   0.396  -1.971  0.00  0.00    +0.000 A 
ATOM     31  C   UNL     1      -5.063  -0.338  -2.995  0.00  0.00    +0.000 A 
ATOM     32  C   UNL     1      -4.899  -1.709  -3.038  0.00  0.00    +0.000 A 
ATOM     33  C   UNL     1      -4.160  -2.348  -2.059  0.00  0.00    +0.005 A 
ENDBRANCH  27  28
BRANCH  27  34
ATOM     34  C   UNL     1      -1.387  -1.771   0.044  0.00  0.00    +0.325 C 
ATOM     35  O   UNL     1      -0.448  -2.531   0.024  0.00  0.00    -0.249 OA
BRANCH  34  36
ATOM     36  O   UNL     1      -1.177  -0.446   0.072  0.00  0.00    -0.464 OA
BRANCH  36  38
ATOM     37  C   UNL     1       0.222   1.525   0.110  0.00  0.00    +0.048 C 
ATOM     38  C   UNL     1       0.182  -0.004   0.076  0.00  0.00    +0.229 C 
ENDBRANCH  36  38
ENDBRANCH  34  36
ENDBRANCH  27  34
ENDBRANCH  26  27
ENDBRANCH   1  26
TORSDOF 6
