REMARK  Name = ZINC35782698
REMARK  15 active torsions:
REMARK  status: ('A' for Active; 'I' for Inactive)
REMARK    1  A    between atoms: C_1  and  C_2
REMARK    2  A    between atoms: C_2  and  C_3
REMARK    3  A    between atoms: C_2  and  N_4
REMARK    4  A    between atoms: N_4  and  C_5
REMARK    5  A    between atoms: N_4  and  C_26
REMARK    6  A    between atoms: C_5  and  C_6
REMARK    7  A    between atoms: C_7  and  C_20
REMARK    8  A    between atoms: N_9  and  C_19
REMARK    9  A    between atoms: C_10  and  O_11
REMARK   10  A    between atoms: O_11  and  C_12
REMARK   11  A    between atoms: C_26  and  C_27
REMARK   12  A    between atoms: C_27  and  C_29
REMARK   13  A    between atoms: C_27  and  O_33
REMARK   14  A    between atoms: C_29  and  C_30
REMARK   15  A    between atoms: C_30  and  C_31
REMARK                            x       y       z     vdW  Elec       q    Type
REMARK                         _______ _______ _______ _____ _____    ______ ____
ROOT
ATOM      1  C   UNL     1      -2.587   1.523   0.618  0.00  0.00    +0.025 A 
ATOM      2  C   UNL     1      -2.953   2.008   1.888  0.00  0.00    +0.098 A 
ATOM      3  N   UNL     1      -3.122   3.310   1.796  0.00  0.00    -0.168 NA
ATOM      4  N   UNL     1      -2.871   3.693   0.472  0.00  0.00    -0.235 N 
ATOM      5  C   UNL     1      -2.539   2.581  -0.232  0.00  0.00    +0.221 A 
ATOM      6  C   UNL     1      -2.947   5.057  -0.058  0.00  0.00    +0.176 C 
ENDROOT
BRANCH   2   7
ATOM      7  C   UNL     1      -3.120   1.193   3.117  0.00  0.00    +0.002 A 
ATOM      8  C   UNL     1      -3.756  -0.045   3.054  0.00  0.00    +0.010 A 
ATOM      9  C   UNL     1      -3.909  -0.799   4.200  0.00  0.00    +0.001 A 
ATOM     10  C   UNL     1      -3.432  -0.328   5.410  0.00  0.00    +0.000 A 
ATOM     11  C   UNL     1      -2.799   0.900   5.478  0.00  0.00    +0.001 A 
ATOM     12  C   UNL     1      -2.635   1.660   4.337  0.00  0.00    +0.010 A 
ENDBRANCH   2   7
BRANCH   1  13
ATOM     13  C   UNL     1      -2.295   0.087   0.267  0.00  0.00    -0.035 C 
BRANCH  13  14
ATOM     14  N   UNL     1      -1.101  -0.362   0.995  0.00  0.00    +0.386 N 
ATOM     15  H   UNL     1      -1.203  -0.142   1.975  0.00  0.00    -0.081 HD
BRANCH  14  17
ATOM     16  C   UNL     1       0.119   0.165  -1.061  0.00  0.00    -0.014 C 
ATOM     17  C   UNL     1       0.085   0.320   0.460  0.00  0.00    -0.074 C 
ATOM     18  C   UNL     1       0.025   1.805   0.821  0.00  0.00    -0.014 C 
ENDBRANCH  14  17
BRANCH  14  19
ATOM     19  C   UNL     1      -0.947  -1.814   0.833  0.00  0.00    -0.046 C 
BRANCH  19  20
ATOM     20  C   UNL     1       0.213  -2.304   1.702  0.00  0.00    +0.098 C 
BRANCH  20  21
ATOM     21  O   UNL     1      -0.051  -1.988   3.071  0.00  0.00    -0.394 OA
ATOM     22  H   UNL     1      -0.858  -2.391   3.419  0.00  0.00    +0.210 HD
ENDBRANCH  20  21
BRANCH  20  23
ATOM     23  C   UNL     1       0.363  -3.818   1.548  0.00  0.00    +0.033 C 
BRANCH  23  24
ATOM     24  C   UNL     1       1.598  -4.290   2.318  0.00  0.00    +0.029 C 
BRANCH  24  25
ATOM     25  C   UNL     1       1.745  -5.782   2.166  0.00  0.00    -0.034 C 
ATOM     26  C   UNL     1       2.865  -6.287   1.712  0.00  0.00    +0.004 C 
ENDBRANCH  24  25
ENDBRANCH  23  24
ENDBRANCH  20  23
ENDBRANCH  19  20
ENDBRANCH  14  19
ENDBRANCH  13  14
ENDBRANCH   1  13
BRANCH   5  27
ATOM     27  O   UNL     1      -2.219   2.534  -1.550  0.00  0.00    -0.437 OA
BRANCH  27  28
ATOM     28  C   UNL     1      -3.230   2.387  -2.447  0.00  0.00    +0.149 A 
ATOM     29  C   UNL     1      -4.548   2.398  -2.016  0.00  0.00    +0.048 A 
ATOM     30  C   UNL     1      -5.574   2.249  -2.929  0.00  0.00    +0.004 A 
ATOM     31  C   UNL     1      -5.288   2.089  -4.272  0.00  0.00    +0.002 A 
ATOM     32  C   UNL     1      -3.975   2.078  -4.706  0.00  0.00    +0.024 A 
ATOM     33  C   UNL     1      -2.945   2.233  -3.797  0.00  0.00    +0.083 A 
ATOM     34 CL   UNL     1      -1.297   2.226  -4.342  0.00  0.00    -0.080 Cl
ENDBRANCH  27  28
ENDBRANCH   5  27
TORSDOF 12
