REMARK  Name = ZINC24871180
REMARK  7 active torsions:
REMARK  status: ('A' for Active; 'I' for Inactive)
REMARK    1  A    between atoms: C_4  and  N_29
REMARK    2  A    between atoms: C_5  and  N_7
REMARK    3  A    between atoms: C_10  and  C_13
REMARK    4  A    between atoms: N_15  and  C_16
REMARK    5  A    between atoms: C_16  and  C_17
REMARK    6  A    between atoms: C_17  and  C_19
REMARK    7  A    between atoms: C_17  and  N_24
REMARK                            x       y       z     vdW  Elec       q    Type
REMARK                         _______ _______ _______ _____ _____    ______ ____
ROOT
ATOM      1  C   UNL     1       4.401   5.590  -2.340  0.00  0.00    +0.216 C 
ATOM      2  O   UNL     1       4.155   5.151  -3.443  0.00  0.00    -0.276 OA
ATOM      3  N   UNL     1       3.833   5.034  -1.251  0.00  0.00    -0.316 N 
ATOM      4  H   UNL     1       4.055   5.433  -0.251  0.00  0.00    +0.149 HD
ENDROOT
BRANCH   1   8
ATOM      5  N   UNL     1       5.993   9.510  -2.768  0.00  0.00    -0.328 N 
ATOM      6  C   UNL     1       6.745   8.422  -3.407  0.00  0.00    +0.106 C 
ATOM      7  C   UNL     1       5.840   7.199  -3.564  0.00  0.00    +0.031 C 
ATOM      8  C   UNL     1       5.340   6.758  -2.186  0.00  0.00    +0.078 C 
ATOM      9  C   UNL     1       4.603   7.924  -1.521  0.00  0.00    +0.031 C 
ATOM     10  C   UNL     1       5.544   9.127  -1.424  0.00  0.00    +0.106 C 
BRANCH   5  15
ATOM     11  C   UNL     1       8.708  11.870  -2.017  0.00  0.00    +0.002 A 
ATOM     12  C   UNL     1       8.245  13.011  -2.649  0.00  0.00    +0.002 A 
ATOM     13  C   UNL     1       7.036  12.991  -3.320  0.00  0.00    +0.034 A 
ATOM     14  C   UNL     1       6.287  11.831  -3.361  0.00  0.00    +0.147 A 
ATOM     15  C   UNL     1       6.749  10.684  -2.728  0.00  0.00    +0.060 A 
ATOM     16  C   UNL     1       7.961  10.710  -2.050  0.00  0.00    +0.025 A 
BRANCH  14  17
ATOM     17  N   UNL     1       4.993  11.811  -4.080  0.00  0.00    +0.058 N 
ATOM     18  O   UNL     1       4.589  12.817  -4.635  0.00  0.00    -0.126 OA
ATOM     19  O   UNL     1       4.332  10.788  -4.115  0.00  0.00    -0.126 OA
ENDBRANCH  14  17
ENDBRANCH   5  15
ENDBRANCH   1   8
BRANCH   3  20
ATOM     20  C   UNL     1       2.919   3.899  -1.401  0.00  0.00    +0.094 C 
BRANCH  20  21
ATOM     21  C   UNL     1       2.301   3.559  -0.043  0.00  0.00    -0.013 C 
BRANCH  21  22
ATOM     22  N   UNL     1       1.490   4.691   0.424  0.00  0.00    +0.386 N 
ATOM     23  C   UNL     1       0.658   4.304   1.592  0.00  0.00    -0.078 C 
ATOM     24  C   UNL     1       0.313   5.665   2.247  0.00  0.00    -0.020 C 
ATOM     25  C   UNL     1       1.615   6.478   2.063  0.00  0.00    -0.020 C 
ATOM     26  C   UNL     1       2.349   5.801   0.890  0.00  0.00    -0.078 C 
ATOM     27  H   UNL     1       0.874   4.992  -0.436  0.00  0.00    -0.081 HD
ENDBRANCH  21  22
BRANCH  21  28
ATOM     28  C   UNL     1       1.428   2.338  -0.180  0.00  0.00    -0.022 A 
ATOM     29  C   UNL     1       1.668   1.067   0.226  0.00  0.00    +0.009 A 
ATOM     30  C   UNL     1       0.712   0.097  -0.008  0.00  0.00    +0.008 A 
ATOM     31  C   UNL     1      -0.437   0.445  -0.638  0.00  0.00    +0.045 A 
ATOM     32  S   UNL     1      -0.189   2.190  -0.921  0.00  0.00    -0.103 S 
ENDBRANCH  21  28
ENDBRANCH  20  21
ENDBRANCH   3  20
TORSDOF 7
