REMARK  Name = ZINC43323426
REMARK  2 active torsions:
REMARK  status: ('A' for Active; 'I' for Inactive)
REMARK    1  A    between atoms: C_2  and  C_16
REMARK    2  A    between atoms: C_6  and  N_7
REMARK                            x       y       z     vdW  Elec       q    Type
REMARK                         _______ _______ _______ _____ _____    ______ ____
ROOT
ATOM      1  C   UNL     1      -0.017   1.378   0.010  0.00  0.00    +0.044 A 
ATOM      2  C   UNL     1       1.188   2.090   0.002  0.00  0.00    +0.100 A 
ATOM      3  C   UNL     1       2.404   1.397  -0.013  0.00  0.00    +0.140 A 
ATOM      4  C   UNL     1       2.410   0.015  -0.021  0.00  0.00    +0.079 A 
ATOM      5  C   UNL     1       1.217  -0.686  -0.014  0.00  0.00    +0.147 A 
ATOM      6  C   UNL     1       0.002  -0.004   0.002  0.00  0.00    +0.074 A 
ATOM      7  F   UNL     1       1.231  -2.037  -0.021  0.00  0.00    -0.203 F 
ATOM      8  F   UNL     1       3.571   2.079  -0.021  0.00  0.00    -0.205 F 
ENDROOT
BRANCH   6   9
ATOM      9  N   UNL     1      -1.203  -0.721   0.010  0.00  0.00    -0.253 N 
ATOM     10  C   UNL     1      -1.810  -1.089   1.290  0.00  0.00    +0.117 C 
ATOM     11  C   UNL     1      -3.331  -1.174   1.119  0.00  0.00    +0.038 C 
ATOM     12  C   UNL     1      -3.640  -2.156  -0.016  0.00  0.00    +0.107 C 
ATOM     13  N   UNL     1      -2.933  -1.730  -1.225  0.00  0.00    -0.299 N 
ATOM     14  C   UNL     1      -1.779  -1.050  -1.156  0.00  0.00    +0.307 C 
ATOM     15  O   UNL     1      -1.230  -0.725  -2.191  0.00  0.00    -0.252 OA
ATOM     16  H   UNL     1      -3.310  -1.940  -2.095  0.00  0.00    +0.150 HD
ENDBRANCH   6   9
BRANCH   2  17
ATOM     17  C   UNL     1       1.176   3.562   0.009  0.00  0.00    +0.389 C 
ATOM     18  O   UNL     1       0.111   4.165   0.022  0.00  0.00    -0.240 OA
ATOM     19  O   UNL     1       2.230   4.183   0.003  0.00  0.00    -0.240 OA
ENDBRANCH   2  17
TORSDOF 2
