REMARK  Name = ZINC12539440
REMARK  4 active torsions:
REMARK  status: ('A' for Active; 'I' for Inactive)
REMARK    1  A    between atoms: C_1  and  C_2
REMARK    2  A    between atoms: C_5  and  C_7
REMARK    3  A    between atoms: C_8  and  C_18
REMARK    4  A    between atoms: N_10  and  C_12
REMARK                            x       y       z     vdW  Elec       q    Type
REMARK                         _______ _______ _______ _____ _____    ______ ____
ROOT
ATOM      1  C   UNL     1       3.434  -2.266  -1.675  0.00  0.00    +0.212 C 
ATOM      2  N   UNL     1       4.155  -1.254  -0.881  0.00  0.00    -0.294 N 
ATOM      3  C   UNL     1       5.448  -1.549  -0.474  0.00  0.00    +0.159 C 
ATOM      4  N   UNL     1       5.818  -1.439   0.770  0.00  0.00    -0.375 N 
ATOM      5  N   UNL     1       6.330  -1.971  -1.469  0.00  0.00    -0.259 N 
ATOM      6  C   UNL     1       5.757  -2.731  -2.485  0.00  0.00    +0.205 A 
ATOM      7  N   UNL     1       4.392  -2.875  -2.604  0.00  0.00    -0.288 N 
ATOM      8  C   UNL     1       4.161  -3.659  -3.697  0.00  0.00    +0.072 A 
ATOM      9  C   UNL     1       2.998  -4.127  -4.297  0.00  0.00    +0.028 A 
ATOM     10  C   UNL     1       3.143  -4.922  -5.423  0.00  0.00    +0.002 A 
ATOM     11  C   UNL     1       4.387  -5.243  -5.939  0.00  0.00    +0.002 A 
ATOM     12  C   UNL     1       5.559  -4.790  -5.361  0.00  0.00    +0.030 A 
ATOM     13  C   UNL     1       5.437  -3.986  -4.223  0.00  0.00    +0.091 A 
ATOM     14  N   UNL     1       6.361  -3.391  -3.436  0.00  0.00    -0.214 NA
ATOM     15  H   UNL     1       3.738  -0.408  -0.651  0.00  0.00    +0.151 HD
ATOM     16  H   UNL     1       7.275  -1.750  -1.454  0.00  0.00    +0.158 HD
ATOM     17  H   UNL     1       5.183  -1.143   1.441  0.00  0.00    +0.158 HD
ATOM     18  H   UNL     1       6.729  -1.652   1.026  0.00  0.00    +0.158 HD
ENDROOT
BRANCH   1  20
ATOM     19  C   UNL     1       1.708  -3.196   0.035  0.00  0.00    +0.135 A 
ATOM     20  C   UNL     1       2.867  -3.321  -0.761  0.00  0.00    +0.042 A 
ATOM     21  C   UNL     1       3.377  -4.555  -0.560  0.00  0.00    +0.122 A 
ATOM     22  N   UNL     1       2.577  -5.198   0.331  0.00  0.00    -0.239 N 
ATOM     23  N   UNL     1       1.542  -4.326   0.694  0.00  0.00    -0.163 NA
BRANCH  19  28
ATOM     24  C   UNL     1       0.228   1.595   0.264  0.00  0.00    +0.086 C 
ATOM     25  C   UNL     1       0.185   0.089   0.220  0.00  0.00    +0.103 A 
ATOM     26  C   UNL     1      -0.930  -0.666   0.259  0.00  0.00    +0.045 A 
ATOM     27  C   UNL     1      -0.520  -2.013   0.195  0.00  0.00    +0.052 A 
ATOM     28  C   UNL     1       0.838  -2.005   0.120  0.00  0.00    +0.155 A 
ATOM     29  O   UNL     1       1.251  -0.723   0.131  0.00  0.00    -0.458 OA
ENDBRANCH  19  28
BRANCH  22  30
ATOM     30  C   UNL     1       2.758  -6.503   0.808  0.00  0.00    +0.065 A 
ATOM     31  C   UNL     1       3.838  -7.259   0.372  0.00  0.00    +0.028 A 
ATOM     32  C   UNL     1       4.013  -8.545   0.844  0.00  0.00    +0.002 A 
ATOM     33  C   UNL     1       3.115  -9.080   1.749  0.00  0.00    +0.000 A 
ATOM     34  C   UNL     1       2.039  -8.329   2.185  0.00  0.00    +0.002 A 
ATOM     35  C   UNL     1       1.861  -7.041   1.721  0.00  0.00    +0.028 A 
ENDBRANCH  22  30
ENDBRANCH   1  20
TORSDOF 3
