REMARK  Name = ZINC08797978
REMARK  10 active torsions:
REMARK  status: ('A' for Active; 'I' for Inactive)
REMARK    1  A    between atoms: C_1  and  C_2
REMARK    2  A    between atoms: C_2  and  N_3
REMARK    3  A    between atoms: N_12  and  C_13
REMARK    4  A    between atoms: C_13  and  C_15
REMARK    5  A    between atoms: C_18  and  S_21
REMARK    6  A    between atoms: S_21  and  N_24
REMARK    7  A    between atoms: N_24  and  C_25
REMARK    8  A    between atoms: N_24  and  C_28
REMARK    9  A    between atoms: C_25  and  C_26
REMARK   10  A    between atoms: C_28  and  C_29
REMARK                            x       y       z     vdW  Elec       q    Type
REMARK                         _______ _______ _______ _____ _____    ______ ____
ROOT
ATOM      1  C   UNL     1      -0.028   1.698   0.959  0.00  0.00    +0.269 C 
ATOM      2  O   UNL     1      -1.066   2.335   1.002  0.00  0.00    -0.268 OA
ENDROOT
BRANCH   1  12
ATOM      3  N   UNL     1       2.196   4.407   0.101  0.00  0.00    -0.320 N 
ATOM      4  C   UNL     1       2.010   5.758  -0.127  0.00  0.00    +0.077 A 
ATOM      5  C   UNL     1       2.973   6.725  -0.463  0.00  0.00    +0.066 A 
ATOM      6  C   UNL     1       2.614   8.040  -0.651  0.00  0.00    +0.023 A 
ATOM      7  C   UNL     1       1.299   8.451  -0.515  0.00  0.00    +0.022 A 
ATOM      8  C   UNL     1       0.330   7.519  -0.185  0.00  0.00    +0.057 A 
ATOM      9  C   UNL     1       0.688   6.204   0.003  0.00  0.00    +0.059 A 
ATOM     10  S   UNL     1      -0.201   4.725   0.422  0.00  0.00    -0.051 S 
ATOM     11  C   UNL     1       1.133   3.617   0.414  0.00  0.00    +0.167 A 
ATOM     12  N   UNL     1       1.121   2.311   0.659  0.00  0.00    -0.152 NA
ATOM     13 CL   UNL     1      -1.327   8.007  -0.009  0.00  0.00    -0.082 Cl
ATOM     14 CL   UNL     1       4.635   6.255  -0.644  0.00  0.00    -0.081 Cl
BRANCH   3  16
ATOM     15  C   UNL     1       3.594   2.534   0.822  0.00  0.00    +0.027 C 
ATOM     16  C   UNL     1       3.536   3.825   0.001  0.00  0.00    +0.121 C 
ENDBRANCH   3  16
ENDBRANCH   1  12
BRANCH   1  17
ATOM     17  C   UNL     1      -0.041   0.242   1.233  0.00  0.00    +0.039 A 
ATOM     18  C   UNL     1       1.143  -0.492   1.173  0.00  0.00    +0.015 A 
ATOM     19  C   UNL     1       1.125  -1.847   1.433  0.00  0.00    +0.029 A 
ATOM     20  C   UNL     1      -0.066  -2.479   1.743  0.00  0.00    +0.106 A 
ATOM     21  C   UNL     1      -1.245  -1.757   1.799  0.00  0.00    +0.029 A 
ATOM     22  C   UNL     1      -1.239  -0.401   1.546  0.00  0.00    +0.015 A 
BRANCH  20  23
ATOM     23  S   UNL     1      -0.082  -4.211   2.068  0.00  0.00    +0.061 S 
ATOM     24  O   UNL     1       1.230  -4.558   2.488  0.00  0.00    -0.153 OA
ATOM     25  O   UNL     1      -1.230  -4.464   2.867  0.00  0.00    -0.153 OA
BRANCH  23  26
ATOM     26  N   UNL     1      -0.334  -4.978   0.622  0.00  0.00    -0.169 NA
BRANCH  26  27
ATOM     27  C   UNL     1       0.807  -5.365  -0.211  0.00  0.00    +0.136 C 
BRANCH  27  28
ATOM     28  C   UNL     1       1.174  -6.798   0.075  0.00  0.00    -0.018 C 
ATOM     29  C   UNL     1       1.233  -7.667  -0.904  0.00  0.00    +0.005 C 
ENDBRANCH  27  28
ENDBRANCH  26  27
BRANCH  26  30
ATOM     30  C   UNL     1      -1.699  -5.269   0.176  0.00  0.00    +0.136 C 
BRANCH  30  31
ATOM     31  C   UNL     1      -2.175  -4.168  -0.736  0.00  0.00    -0.018 C 
ATOM     32  C   UNL     1      -2.614  -4.455  -1.936  0.00  0.00    +0.005 C 
ENDBRANCH  30  31
ENDBRANCH  26  30
ENDBRANCH  23  26
ENDBRANCH  20  23
ENDBRANCH   1  17
TORSDOF 9
