REMARK  Name = ZINC36800383
REMARK  8 active torsions:
REMARK  status: ('A' for Active; 'I' for Inactive)
REMARK    1  A    between atoms: C_1  and  C_2
REMARK    2  A    between atoms: C_2  and  C_4
REMARK    3  A    between atoms: C_2  and  S_21
REMARK    4  A    between atoms: C_9  and  C_12
REMARK    5  A    between atoms: C_16  and  N_18
REMARK    6  A    between atoms: S_21  and  C_22
REMARK    7  A    between atoms: N_31  and  C_32
REMARK    8  A    between atoms: C_32  and  C_33
REMARK                            x       y       z     vdW  Elec       q    Type
REMARK                         _______ _______ _______ _____ _____    ______ ____
ROOT
ATOM      1  C   UNL     1       0.707  -0.490  -1.238  0.00  0.00    +0.232 C 
ATOM      2  O   UNL     1       1.864  -0.849  -1.176  0.00  0.00    -0.274 OA
ATOM      3  N   UNL     1       0.053  -0.526  -2.415  0.00  0.00    -0.264 N 
ATOM      4  C   UNL     1       0.703  -0.974  -3.558  0.00  0.00    +0.165 A 
ATOM      5  N   UNL     1       0.246  -1.080  -4.792  0.00  0.00    -0.225 NA
ATOM      6  C   UNL     1       1.012  -1.532  -5.773  0.00  0.00    +0.080 A 
ATOM      7  C   UNL     1       2.302  -1.897  -5.503  0.00  0.00    +0.076 A 
ATOM      8  S   UNL     1       2.383  -1.553  -3.750  0.00  0.00    -0.060 S 
ATOM      9  H   UNL     1      -0.873  -0.239  -2.465  0.00  0.00    +0.157 HD
ENDROOT
BRANCH   6  10
ATOM     10  C   UNL     1       0.476  -1.642  -7.152  0.00  0.00    +0.003 A 
ATOM     11  C   UNL     1       1.284  -2.125  -8.180  0.00  0.00    +0.010 A 
ATOM     12  C   UNL     1       0.780  -2.225  -9.461  0.00  0.00    +0.003 A 
ATOM     13  C   UNL     1      -0.524  -1.848  -9.725  0.00  0.00    +0.033 A 
ATOM     14  C   UNL     1      -1.330  -1.368  -8.709  0.00  0.00    +0.127 A 
ATOM     15  C   UNL     1      -0.839  -1.269  -7.423  0.00  0.00    +0.042 A 
BRANCH  14  16
ATOM     16  N   UNL     1      -2.725  -0.966  -9.000  0.00  0.00    +0.056 N 
ATOM     17  O   UNL     1      -3.158  -1.057 -10.125  0.00  0.00    -0.126 OA
ATOM     18  O   UNL     1      -3.430  -0.546  -8.112  0.00  0.00    -0.126 OA
ENDBRANCH  14  16
ENDBRANCH   6  10
BRANCH   1  20
ATOM     19  C   UNL     1      -0.019   1.526   0.010  0.00  0.00    +0.029 C 
ATOM     20  C   UNL     1       0.002  -0.004   0.002  0.00  0.00    +0.137 C 
BRANCH  20  21
ATOM     21  S   UNL     1       0.879  -0.605   1.472  0.00  0.00    -0.075 S 
BRANCH  21  22
ATOM     22  C   UNL     1      -0.136  -0.087   2.816  0.00  0.00    +0.174 A 
ATOM     23  N   UNL     1      -1.249   0.575   2.572  0.00  0.00    -0.216 NA
ATOM     24  C   UNL     1      -2.033   0.978   3.564  0.00  0.00    +0.116 A 
ATOM     25  C   UNL     1      -1.722   0.723   4.913  0.00  0.00    +0.072 A 
ATOM     26  C   UNL     1      -2.687   1.232   5.872  0.00  0.00    +0.023 A 
ATOM     27  C   UNL     1      -3.769   1.887   5.426  0.00  0.00    +0.048 A 
ATOM     28  S   UNL     1      -3.567   1.865   3.655  0.00  0.00    -0.077 S 
ATOM     29  C   UNL     1      -0.507   0.003   5.146  0.00  0.00    +0.263 A 
ATOM     30  O   UNL     1      -0.156  -0.263   6.283  0.00  0.00    -0.267 OA
ATOM     31  N   UNL     1       0.239  -0.381   4.095  0.00  0.00    -0.283 N 
BRANCH  31  32
ATOM     32  C   UNL     1       1.480  -1.124   4.327  0.00  0.00    +0.154 C 
BRANCH  32  33
ATOM     33  C   UNL     1       2.624  -0.155   4.478  0.00  0.00    -0.013 C 
ATOM     34  C   UNL     1       3.381  -0.197   5.547  0.00  0.00    +0.005 C 
ENDBRANCH  32  33
ENDBRANCH  31  32
ENDBRANCH  21  22
ENDBRANCH  20  21
ENDBRANCH   1  20
TORSDOF 7
