REMARK  Name = ZINC59513121
REMARK  5 active torsions:
REMARK  status: ('A' for Active; 'I' for Inactive)
REMARK    1  A    between atoms: C_4  and  C_7
REMARK    2  A    between atoms: C_8  and  C_17
REMARK    3  A    between atoms: C_18  and  C_19
REMARK    4  A    between atoms: C_18  and  C_21
REMARK    5  A    between atoms: N_23  and  C_24
REMARK                            x       y       z     vdW  Elec       q    Type
REMARK                         _______ _______ _______ _____ _____    ______ ____
ROOT
ATOM      1  C   UNL     1       3.693  -0.681  -0.038  0.00  0.00    +0.055 A 
ATOM      2  C   UNL     1       4.005  -1.770  -0.855  0.00  0.00    +0.009 A 
ATOM      3  C   UNL     1       5.393  -2.147  -0.524  0.00  0.00    +0.007 A 
ATOM      4  C   UNL     1       6.257  -3.136  -0.987  0.00  0.00    +0.010 A 
ATOM      5  C   UNL     1       7.528  -3.232  -0.463  0.00  0.00    +0.001 A 
ATOM      6  C   UNL     1       7.947  -2.350   0.521  0.00  0.00    +0.002 A 
ATOM      7  C   UNL     1       7.102  -1.367   0.989  0.00  0.00    +0.026 A 
ATOM      8  C   UNL     1       5.814  -1.252   0.472  0.00  0.00    +0.047 A 
ATOM      9  N   UNL     1       4.774  -0.383   0.737  0.00  0.00    -0.354 N 
ATOM     10  H   UNL     1       4.807   0.337   1.385  0.00  0.00    +0.166 HD
ENDROOT
BRANCH   1  14
ATOM     11  C   UNL     1      -0.017   1.380   0.010  0.00  0.00    +0.000 A 
ATOM     12  C   UNL     1       1.168   2.095   0.002  0.00  0.00    +0.001 A 
ATOM     13  C   UNL     1       2.377   1.432  -0.013  0.00  0.00    +0.010 A 
ATOM     14  C   UNL     1       2.404   0.035  -0.021  0.00  0.00    -0.001 A 
ATOM     15  C   UNL     1       1.204  -0.681  -0.013  0.00  0.00    +0.010 A 
ATOM     16  C   UNL     1       0.002  -0.004   0.002  0.00  0.00    +0.001 A 
ENDBRANCH   1  14
BRANCH   2  17
ATOM     17  C   UNL     1       3.165  -2.385  -1.803  0.00  0.00    +0.034 C 
ATOM     18  C   UNL     1       3.623  -2.612  -3.092  0.00  0.00    +0.114 C 
BRANCH  18  19
ATOM     19  C   UNL     1       2.747  -3.253  -4.080  0.00  0.00    +0.255 C 
ATOM     20  O   UNL     1       1.619  -3.584  -3.768  0.00  0.00    -0.269 OA
ATOM     21  N   UNL     1       3.193  -3.474  -5.333  0.00  0.00    -0.308 N 
ATOM     22  H   UNL     1       4.093  -3.209  -5.581  0.00  0.00    +0.149 HD
BRANCH  21  23
ATOM     23  C   UNL     1       2.319  -4.113  -6.319  0.00  0.00    +0.073 C 
ATOM     24  C   UNL     1       2.413  -5.633  -6.175  0.00  0.00    +0.022 C 
ATOM     25  C   UNL     1       1.500  -6.301  -7.205  0.00  0.00    +0.002 C 
ATOM     26  C   UNL     1       1.937  -5.895  -8.613  0.00  0.00    +0.000 C 
ATOM     27  C   UNL     1       1.843  -4.375  -8.758  0.00  0.00    +0.002 C 
ATOM     28  C   UNL     1       2.756  -3.707  -7.728  0.00  0.00    +0.022 C 
ENDBRANCH  21  23
ENDBRANCH  18  19
BRANCH  18  29
ATOM     29  C   UNL     1       4.951  -2.222  -3.459  0.00  0.00    +0.104 C 
ATOM     30  N   UNL     1       6.005  -1.912  -3.750  0.00  0.00    -0.191 NA
ENDBRANCH  18  29
ENDBRANCH   2  17
TORSDOF 5
