REMARK  Name = ZINC20236250
REMARK  12 active torsions:
REMARK  status: ('A' for Active; 'I' for Inactive)
REMARK    1  A    between atoms: C_1  and  C_2
REMARK    2  A    between atoms: C_2  and  O_3
REMARK    3  A    between atoms: O_3  and  C_4
REMARK    4  A    between atoms: C_6  and  C_23
REMARK    5  A    between atoms: C_9  and  O_10
REMARK    6  A    between atoms: O_10  and  C_11
REMARK    7  A    between atoms: C_11  and  C_12
REMARK    8  A    between atoms: C_12  and  O_13
REMARK    9  A    between atoms: O_13  and  C_14
REMARK   10  A    between atoms: C_17  and  C_21
REMARK   11  A    between atoms: C_19  and  C_20
REMARK   12  A    between atoms: C_33  and  C_35
REMARK                            x       y       z     vdW  Elec       q    Type
REMARK                         _______ _______ _______ _____ _____    ______ ____
ROOT
ATOM      1  C   UNL     1       1.323  -2.070  -1.389  0.00  0.00    +0.164 A 
ATOM      2  C   UNL     1       0.547  -2.790  -0.504  0.00  0.00    +0.057 A 
ATOM      3  C   UNL     1       0.614  -4.191  -0.498  0.00  0.00    -0.019 A 
ATOM      4  C   UNL     1       1.469  -4.851  -1.392  0.00  0.00    +0.032 A 
ATOM      5  C   UNL     1       2.239  -4.122  -2.272  0.00  0.00    +0.087 A 
ATOM      6  C   UNL     1       2.167  -2.734  -2.279  0.00  0.00    +0.180 A 
ATOM      7 CL   UNL     1       3.298  -4.940  -3.378  0.00  0.00    -0.080 Cl
ENDROOT
BRANCH   3   8
ATOM      8  C   UNL     1      -0.206  -4.962   0.439  0.00  0.00    +0.025 C 
ATOM      9  C   UNL     1      -0.758  -6.160   0.046  0.00  0.00    +0.084 C 
ATOM     10  C   UNL     1      -1.448  -7.072   1.010  0.00  0.00    +0.176 C 
ATOM     11  N   UNL     1      -2.096  -6.653   2.064  0.00  0.00    -0.280 NA
ATOM     12  N   UNL     1      -1.327  -8.411   0.664  0.00  0.00    -0.142 N 
ATOM     13  C   UNL     1      -1.063  -8.793  -0.627  0.00  0.00    +0.168 C 
ATOM     14  N   UNL     1      -0.794  -7.942  -1.616  0.00  0.00    -0.156 NA
ATOM     15  C   UNL     1      -0.712  -6.626  -1.362  0.00  0.00    +0.273 C 
ATOM     16  O   UNL     1      -0.598  -5.824  -2.275  0.00  0.00    -0.268 OA
ATOM     17  C   UNL     1      -1.125 -10.194  -0.648  0.00  0.00    +0.091 C 
ATOM     18  C   UNL     1      -1.359 -10.629   0.609  0.00  0.00    +0.134 C 
ATOM     19  O   UNL     1      -1.442  -9.574   1.437  0.00  0.00    -0.375 OA
ATOM     20  C   UNL     1      -1.504 -12.072   1.019  0.00  0.00    +0.089 C 
ATOM     21  H   UNL     1      -2.148  -5.704   2.256  0.00  0.00    +0.188 HD
ENDBRANCH   3   8
BRANCH   1  22
ATOM     22  O   UNL     1       1.260  -0.711  -1.397  0.00  0.00    -0.489 OA
BRANCH  22  24
ATOM     23  C   UNL     1       0.439   1.424  -0.617  0.00  0.00    +0.048 C 
ATOM     24  C   UNL     1       0.375  -0.097  -0.459  0.00  0.00    +0.226 C 
ENDBRANCH  22  24
ENDBRANCH   1  22
BRANCH   6  25
ATOM     25  O   UNL     1       2.925  -2.022  -3.152  0.00  0.00    -0.483 OA
BRANCH  25  26
ATOM     26  C   UNL     1       4.228  -1.633  -2.713  0.00  0.00    +0.270 C 
BRANCH  26  27
ATOM     27  C   UNL     1       4.926  -0.845  -3.823  0.00  0.00    +0.270 C 
BRANCH  27  28
ATOM     28  O   UNL     1       4.224   0.378  -4.053  0.00  0.00    -0.488 OA
BRANCH  28  29
ATOM     29  C   UNL     1       4.717   1.201  -5.016  0.00  0.00    +0.124 A 
ATOM     30  C   UNL     1       5.851   0.837  -5.728  0.00  0.00    +0.046 A 
ATOM     31  C   UNL     1       6.350   1.675  -6.706  0.00  0.00    +0.007 A 
ATOM     32  C   UNL     1       5.721   2.876  -6.976  0.00  0.00    -0.050 A 
ATOM     33  C   UNL     1       4.592   3.242  -6.267  0.00  0.00    +0.010 A 
ATOM     34  C   UNL     1       4.085   2.405  -5.292  0.00  0.00    -0.009 A 
ATOM     35  C   UNL     1       2.851   2.802  -4.524  0.00  0.00    +0.047 C 
ATOM     36  C   UNL     1       6.268   3.789  -8.043  0.00  0.00    +0.044 C 
ENDBRANCH  28  29
ENDBRANCH  27  28
ENDBRANCH  26  27
ENDBRANCH  25  26
ENDBRANCH   6  25
TORSDOF 8
