REMARK  Name = ZINC63481233
REMARK  12 active torsions:
REMARK  status: ('A' for Active; 'I' for Inactive)
REMARK    1  A    between atoms: C_1  and  C_2
REMARK    2  A    between atoms: C_4  and  S_9
REMARK    3  A    between atoms: C_5  and  C_8
REMARK    4  A    between atoms: S_9  and  N_12
REMARK    5  A    between atoms: N_12  and  C_13
REMARK    6  A    between atoms: N_12  and  C_29
REMARK    7  A    between atoms: C_13  and  C_14
REMARK    8  A    between atoms: N_16  and  C_17
REMARK    9  A    between atoms: C_17  and  C_18
REMARK   10  A    between atoms: C_32  and  C_35
REMARK   11  A    between atoms: C_35  and  C_36
REMARK   12  A    between atoms: C_35  and  C_37
REMARK                            x       y       z     vdW  Elec       q    Type
REMARK                         _______ _______ _______ _____ _____    ______ ____
ROOT
ATOM      1  N   UNL     1      -2.389  -1.293  -2.392  0.00  0.00    -0.194 N 
ENDROOT
BRANCH   1   2
ATOM      2  C   UNL     1      -1.735  -0.752  -3.502  0.00  0.00    +0.052 A 
ATOM      3  C   UNL     1      -0.629  -1.397  -4.041  0.00  0.00    +0.025 A 
ATOM      4  C   UNL     1       0.015  -0.859  -5.138  0.00  0.00    +0.006 A 
ATOM      5  C   UNL     1      -0.441   0.319  -5.700  0.00  0.00    -0.045 A 
ATOM      6  C   UNL     1      -1.542   0.963  -5.166  0.00  0.00    +0.006 A 
ATOM      7  C   UNL     1      -2.194   0.428  -4.072  0.00  0.00    +0.025 A 
BRANCH   5   8
ATOM      8  C   UNL     1       0.265   0.903  -6.897  0.00  0.00    +0.013 C 
ATOM      9  C   UNL     1      -0.714   0.998  -8.069  0.00  0.00    +0.012 C 
ATOM     10  C   UNL     1       0.783   2.300  -6.551  0.00  0.00    +0.012 C 
ENDBRANCH   5   8
ENDBRANCH   1   2
BRANCH   1  11
ATOM     11  S   UNL     1      -2.508  -0.417  -0.993  0.00  0.00    +0.075 S 
ATOM     12  O   UNL     1      -3.707  -0.833  -0.354  0.00  0.00    -0.150 OA
ATOM     13  O   UNL     1      -2.261   0.939  -1.340  0.00  0.00    -0.150 OA
BRANCH  11  16
ATOM     14  C   UNL     1       0.494   0.948   0.058  0.00  0.00    +0.041 C 
ATOM     15  C   UNL     1       0.291  -0.563  -0.069  0.00  0.00    +0.176 C 
ATOM     16  C   UNL     1      -1.181  -0.919   0.051  0.00  0.00    +0.134 C 
ATOM     17  C   UNL     1      -1.235  -1.701   1.132  0.00  0.00    +0.085 C 
ATOM     18  N   UNL     1      -0.006  -1.860   1.671  0.00  0.00    -0.157 NA
ATOM     19  N   UNL     1       0.900  -1.268   1.072  0.00  0.00    -0.178 NA
ATOM     20  C   UNL     1      -2.495  -2.321   1.677  0.00  0.00    +0.069 C 
ENDBRANCH  11  16
ENDBRANCH   1  11
BRANCH   1  21
ATOM     21  C   UNL     1      -2.969  -2.636  -2.467  0.00  0.00    +0.227 C 
BRANCH  21  22
ATOM     22  C   UNL     1      -4.352  -2.554  -3.060  0.00  0.00    +0.232 C 
ATOM     23  O   UNL     1      -4.808  -1.479  -3.388  0.00  0.00    -0.274 OA
ATOM     24  N   UNL     1      -5.082  -3.675  -3.226  0.00  0.00    -0.310 N 
ATOM     25  H   UNL     1      -4.717  -4.535  -2.964  0.00  0.00    +0.149 HD
BRANCH  24  26
ATOM     26  C   UNL     1      -6.426  -3.595  -3.803  0.00  0.00    +0.152 C 
BRANCH  26  27
ATOM     27  C   UNL     1      -7.032  -4.998  -3.881  0.00  0.00    +0.228 C 
ATOM     28  C   UNL     1      -8.394  -4.935  -4.585  0.00  0.00    +0.275 C 
ATOM     29  O   UNL     1      -8.938  -6.258  -4.628  0.00  0.00    -0.485 OA
ATOM     30  C   UNL     1      -8.883  -6.980  -3.475  0.00  0.00    +0.162 A 
ATOM     31  C   UNL     1      -9.692  -8.098  -3.332  0.00  0.00    +0.049 A 
ATOM     32  C   UNL     1      -9.645  -8.842  -2.169  0.00  0.00    +0.004 A 
ATOM     33  C   UNL     1      -8.792  -8.476  -1.145  0.00  0.00    +0.004 A 
ATOM     34  C   UNL     1      -7.984  -7.362  -1.280  0.00  0.00    +0.049 A 
ATOM     35  C   UNL     1      -8.028  -6.610  -2.444  0.00  0.00    +0.163 A 
ATOM     36  O   UNL     1      -7.232  -5.511  -2.559  0.00  0.00    -0.480 OA
ENDBRANCH  26  27
ENDBRANCH  24  26
ENDBRANCH  21  22
ENDBRANCH   1  21
TORSDOF 8
