REMARK  Name = ZINC64392081
REMARK  4 active torsions:
REMARK  status: ('A' for Active; 'I' for Inactive)
REMARK    1  A    between atoms: C_3  and  C_8
REMARK    2  A    between atoms: C_8  and  N_9
REMARK    3  A    between atoms: C_15  and  C_22
REMARK    4  A    between atoms: C_25  and  C_28
REMARK                            x       y       z     vdW  Elec       q    Type
REMARK                         _______ _______ _______ _____ _____    ______ ____
ROOT
ATOM      1  N   UNL     1       4.104   2.427   1.357  0.00  0.00    -0.256 N 
ATOM      2  C   UNL     1       3.692   3.545   1.994  0.00  0.00    +0.265 A 
ATOM      3  O   UNL     1       2.969   4.348   1.437  0.00  0.00    -0.267 OA
ATOM      4  C   UNL     1       4.141   3.765   3.380  0.00  0.00    +0.063 A 
ATOM      5  C   UNL     1       3.760   4.892   4.104  0.00  0.00    +0.016 A 
ATOM      6  C   UNL     1       4.206   5.052   5.398  0.00  0.00    +0.009 A 
ATOM      7  C   UNL     1       5.030   4.099   5.979  0.00  0.00    +0.006 A 
ATOM      8  C   UNL     1       5.416   2.978   5.273  0.00  0.00    +0.034 A 
ATOM      9  C   UNL     1       4.976   2.800   3.970  0.00  0.00    +0.056 A 
ATOM     10  N   UNL     1       5.340   1.687   3.225  0.00  0.00    -0.307 N 
ATOM     11  H   UNL     1       5.915   1.012   3.619  0.00  0.00    +0.170 HD
ATOM     12  C   UNL     1       4.898   1.531   1.966  0.00  0.00    +0.330 A 
ATOM     13  O   UNL     1       5.236   0.540   1.349  0.00  0.00    -0.246 OA
ENDROOT
BRANCH   7  14
ATOM     14  C   UNL     1       5.509   4.291   7.395  0.00  0.00    +0.274 C 
ATOM     15  N   UNL     1       4.532   5.073   8.161  0.00  0.00    -0.339 N 
ATOM     16  C   UNL     1       5.101   6.166   8.569  0.00  0.00    +0.134 C 
ATOM     17  N   UNL     1       6.410   6.233   8.158  0.00  0.00    -0.247 N 
ATOM     18  O   UNL     1       6.718   5.066   7.410  0.00  0.00    -0.243 OA
ATOM     19  H   UNL     1       7.024   6.959   8.348  0.00  0.00    +0.196 HD
ATOM     20  H   UNL     1       3.612   4.816   8.333  0.00  0.00    +0.164 HD
BRANCH  16  21
ATOM     21  C   UNL     1       4.426   7.208   9.373  0.00  0.00    +0.021 A 
ATOM     22  C   UNL     1       3.403   6.856  10.255  0.00  0.00    +0.015 A 
ATOM     23  C   UNL     1       2.774   7.828  11.004  0.00  0.00    +0.050 A 
ATOM     24  C   UNL     1       3.156   9.157  10.886  0.00  0.00    +0.166 A 
ATOM     25  C   UNL     1       4.178   9.514  10.006  0.00  0.00    +0.167 A 
ATOM     26  C   UNL     1       4.814   8.543   9.257  0.00  0.00    +0.061 A 
ATOM     27  O   UNL     1       4.359  10.866  10.075  0.00  0.00    -0.453 OA
ATOM     28  C   UNL     1       3.168  11.382  10.698  0.00  0.00    +0.466 C 
ATOM     29  O   UNL     1       2.700  10.284  11.504  0.00  0.00    -0.453 OA
ENDBRANCH  16  21
ENDBRANCH   7  14
BRANCH   1  30
ATOM     30  C   UNL     1       3.672   2.184  -0.021  0.00  0.00    +0.165 C 
BRANCH  30  33
ATOM     31  C   UNL     1      -0.017   1.378   0.010  0.00  0.00    +0.002 A 
ATOM     32  C   UNL     1       1.171   2.086   0.002  0.00  0.00    +0.005 A 
ATOM     33  C   UNL     1       2.378   1.412  -0.013  0.00  0.00    -0.026 A 
ATOM     34  C   UNL     1       2.398   0.029  -0.021  0.00  0.00    +0.025 A 
ATOM     35  C   UNL     1       1.210  -0.679  -0.013  0.00  0.00    +0.041 A 
ATOM     36  C   UNL     1       0.002  -0.004   0.002  0.00  0.00    +0.020 A 
ATOM     37 CL   UNL     1       1.234  -2.415  -0.024  0.00  0.00    -0.084 Cl
ENDBRANCH  30  33
ENDBRANCH   1  30
TORSDOF 4
