REMARK  Name = ZINC11867322
REMARK  11 active torsions:
REMARK  status: ('A' for Active; 'I' for Inactive)
REMARK    1  A    between atoms: C_1  and  C_2
REMARK    2  A    between atoms: C_2  and  C_3
REMARK    3  A    between atoms: C_8  and  C_31
REMARK    4  A    between atoms: C_12  and  C_15
REMARK    5  A    between atoms: C_13  and  O_14
REMARK    6  A    between atoms: C_15  and  C_17
REMARK    7  A    between atoms: C_15  and  N_70
REMARK    8  A    between atoms: C_20  and  C_23
REMARK    9  A    between atoms: C_23  and  C_24
REMARK   10  A    between atoms: C_23  and  C_25
REMARK   11  A    between atoms: C_33  and  C_36
REMARK                            x       y       z     vdW  Elec       q    Type
REMARK                         _______ _______ _______ _____ _____    ______ ____
ROOT
ATOM      1  C   UNL     1      -0.013  -0.382   0.489  0.00  0.00    -0.005 A 
ATOM      2  C   UNL     1      -0.182   0.972   0.546  0.00  0.00    +0.022 A 
ATOM      3  C   UNL     1       0.922   1.815   0.411  0.00  0.00    +0.065 A 
ATOM      4  C   UNL     1       0.776   3.280   0.467  0.00  0.00    +0.202 A 
ATOM      5  O   UNL     1      -0.310   3.809   0.631  0.00  0.00    -0.286 OA
ATOM      6  C   UNL     1       2.008   4.076   0.313  0.00  0.00    +0.089 A 
ATOM      7  C   UNL     1       3.188   3.424   0.132  0.00  0.00    +0.210 A 
ATOM      8  O   UNL     1       3.273   2.092   0.089  0.00  0.00    -0.462 OA
ATOM      9  C   UNL     1       2.207   1.278   0.218  0.00  0.00    +0.144 A 
ATOM     10  C   UNL     1       2.362  -0.101   0.164  0.00  0.00    +0.028 A 
ATOM     11  C   UNL     1       1.256  -0.924   0.299  0.00  0.00    +0.125 A 
ENDROOT
BRANCH   6  12
ATOM     12  C   UNL     1       1.962   5.552   0.354  0.00  0.00    +0.115 A 
ATOM     13  N   UNL     1       2.950   6.429   0.242  0.00  0.00    -0.244 NA
ATOM     14  C   UNL     1       2.724   7.722   0.300  0.00  0.00    +0.046 A 
ATOM     15  C   UNL     1       1.459   8.180   0.488  0.00  0.00    +0.070 A 
ATOM     16  S   UNL     1       0.558   6.638   0.577  0.00  0.00    -0.075 S 
ATOM     17  C   UNL     1       3.866   8.695   0.164  0.00  0.00    +0.066 C 
ENDBRANCH   6  12
BRANCH   1  19
ATOM     18  C   UNL     1      -1.333  -1.737   2.093  0.00  0.00    +0.009 C 
ATOM     19  C   UNL     1      -1.204  -1.294   0.634  0.00  0.00    +0.035 C 
ENDBRANCH   1  19
BRANCH  11  20
ATOM     20  O   UNL     1       1.411  -2.272   0.245  0.00  0.00    -0.506 OA
ATOM     21  H   UNL     1       1.652  -2.674   1.091  0.00  0.00    +0.292 HD
ENDBRANCH  11  20
BRANCH  10  22
ATOM     22  C   UNL     1       3.729  -0.700  -0.042  0.00  0.00    +0.000 C 
BRANCH  22  28
ATOM     23  C   UNL     1       6.054  -0.544   0.616  0.00  0.00    -0.078 C 
ATOM     24  C   UNL     1       7.061   0.300   1.401  0.00  0.00    -0.019 C 
ATOM     25  C   UNL     1       6.687   0.281   2.886  0.00  0.00    -0.004 C 
ATOM     26  C   UNL     1       5.259   0.807   3.052  0.00  0.00    -0.019 C 
ATOM     27  C   UNL     1       4.304  -0.052   2.219  0.00  0.00    -0.078 C 
ATOM     28  N   UNL     1       4.703   0.029   0.797  0.00  0.00    +0.387 N 
ATOM     29  H   UNL     1       4.718   1.014   0.511  0.00  0.00    -0.080 HD
ENDBRANCH  22  28
BRANCH  22  30
ATOM     30  C   UNL     1       4.128  -0.557  -1.488  0.00  0.00    -0.056 A 
ATOM     31  C   UNL     1       4.705   0.617  -1.933  0.00  0.00    +0.002 A 
ATOM     32  C   UNL     1       5.076   0.747  -3.258  0.00  0.00    +0.004 A 
ATOM     33  C   UNL     1       4.859  -0.295  -4.141  0.00  0.00    -0.045 A 
ATOM     34  C   UNL     1       4.277  -1.468  -3.697  0.00  0.00    +0.004 A 
ATOM     35  C   UNL     1       3.912  -1.599  -2.370  0.00  0.00    +0.002 A 
BRANCH  33  36
ATOM     36  C   UNL     1       5.257  -0.152  -5.587  0.00  0.00    +0.013 C 
ATOM     37  C   UNL     1       4.502   1.024  -6.210  0.00  0.00    +0.012 C 
ATOM     38  C   UNL     1       6.763   0.103  -5.679  0.00  0.00    +0.012 C 
ENDBRANCH  33  36
ENDBRANCH  22  30
ENDBRANCH  10  22
TORSDOF 7
