REMARK  Name = ZINC13335291
REMARK  12 active torsions:
REMARK  status: ('A' for Active; 'I' for Inactive)
REMARK    1  A    between atoms: C_1  and  C_2
REMARK    2  A    between atoms: C_5  and  C_34
REMARK    3  A    between atoms: C_6  and  N_8
REMARK    4  A    between atoms: C_9  and  C_11
REMARK    5  A    between atoms: C_11  and  N_12
REMARK    6  A    between atoms: N_12  and  C_13
REMARK    7  A    between atoms: C_14  and  C_16
REMARK    8  A    between atoms: C_16  and  S_17
REMARK    9  A    between atoms: S_17  and  C_18
REMARK   10  A    between atoms: N_28  and  C_29
REMARK   11  A    between atoms: C_29  and  C_31
REMARK   12  A    between atoms: C_29  and  C_32
REMARK                            x       y       z     vdW  Elec       q    Type
REMARK                         _______ _______ _______ _____ _____    ______ ____
ROOT
ATOM      1  C   UNL     1      -3.796  -1.514   0.040  0.00  0.00    +0.173 C 
ENDROOT
BRANCH   1   4
ATOM      2  N   UNL     1      -6.242  -1.152   0.056  0.00  0.00    -0.295 N 
ATOM      3  C   UNL     1      -5.981   0.289   0.051  0.00  0.00    +0.132 C 
ATOM      4  C   UNL     1      -5.214  -2.023   0.051  0.00  0.00    +0.226 C 
ATOM      5  O   UNL     1      -5.430  -3.217   0.056  0.00  0.00    -0.275 OA
BRANCH   2   6
ATOM      6  C   UNL     1      -7.621  -1.647   0.068  0.00  0.00    +0.203 C 
BRANCH   6   8
ATOM      7  N   UNL     1      -9.329  -2.260   1.749  0.00  0.00    -0.284 N 
ATOM      8  C   UNL     1      -8.084  -1.813   1.492  0.00  0.00    +0.235 C 
ATOM      9  O   UNL     1      -7.335  -1.544   2.408  0.00  0.00    -0.274 OA
ATOM     10  H   UNL     1      -9.954  -2.398   1.020  0.00  0.00    +0.155 HD
BRANCH   7  16
ATOM     11  C   UNL     1      -8.120  -3.419   6.371  0.00  0.00    +0.044 C 
ATOM     12  C   UNL     1      -9.155  -3.088   5.327  0.00  0.00    -0.049 A 
ATOM     13  C   UNL     1     -10.494  -3.046   5.670  0.00  0.00    +0.004 A 
ATOM     14  C   UNL     1     -11.447  -2.744   4.715  0.00  0.00    +0.005 A 
ATOM     15  C   UNL     1     -11.064  -2.483   3.414  0.00  0.00    -0.029 A 
ATOM     16  C   UNL     1      -9.720  -2.524   3.066  0.00  0.00    +0.037 A 
ATOM     17  C   UNL     1      -8.766  -2.833   4.027  0.00  0.00    +0.027 A 
ATOM     18  C   UNL     1     -12.103  -2.154   2.374  0.00  0.00    +0.045 C 
ENDBRANCH   7  16
ENDBRANCH   6   8
ENDBRANCH   2   6
ENDBRANCH   1   4
BRANCH   1  19
ATOM     19  S   UNL     1      -2.651  -2.917   0.035  0.00  0.00    -0.078 S 
BRANCH  19  20
ATOM     20  C   UNL     1      -1.113  -2.057   0.022  0.00  0.00    +0.173 A 
ATOM     21  N   UNL     1      -1.130  -0.747   0.018  0.00  0.00    -0.223 NA
ATOM     22  C   UNL     1       0.009  -0.026   0.008  0.00  0.00    +0.079 A 
ATOM     23  C   UNL     1      -0.009   1.372   0.005  0.00  0.00    +0.028 A 
ATOM     24  C   UNL     1       1.169   2.063  -0.005  0.00  0.00    +0.002 A 
ATOM     25  C   UNL     1       2.388   1.398  -0.013  0.00  0.00    +0.001 A 
ATOM     26  C   UNL     1       2.438   0.031  -0.009  0.00  0.00    +0.015 A 
ATOM     27  C   UNL     1       1.251  -0.700   0.001  0.00  0.00    +0.065 A 
ATOM     28  C   UNL     1       1.244  -2.169   0.006  0.00  0.00    +0.263 A 
ATOM     29  O   UNL     1       2.282  -2.805   0.001  0.00  0.00    -0.267 OA
ATOM     30  N   UNL     1       0.041  -2.788   0.016  0.00  0.00    -0.273 N 
BRANCH  30  31
ATOM     31  C   UNL     1      -0.025  -4.251   0.020  0.00  0.00    +0.202 C 
ATOM     32  C   UNL     1       0.664  -4.797  -1.232  0.00  0.00    +0.043 C 
BRANCH  31  33
ATOM     33  C   UNL     1       0.671  -4.781   1.247  0.00  0.00    +0.378 C 
ATOM     34  O   UNL     1       1.171  -4.015   2.037  0.00  0.00    -0.244 OA
ATOM     35  O   UNL     1       0.736  -6.104   1.463  0.00  0.00    -0.244 OA
ENDBRANCH  31  33
ENDBRANCH  30  31
ENDBRANCH  19  20
ENDBRANCH   1  19
TORSDOF 8
