REMARK  Name = ZINC05605186
REMARK  2 active torsions:
REMARK  status: ('A' for Active; 'I' for Inactive)
REMARK    1  A    between atoms: N_10  and  C_13
REMARK    2  A    between atoms: N_26  and  O_27
REMARK                            x       y       z     vdW  Elec       q    Type
REMARK                         _______ _______ _______ _____ _____    ______ ____
ROOT
ATOM      1  C   UNL     1       1.171  -5.759  -1.990  0.00  0.00    +0.105 C 
ATOM      2  C   UNL     1      -0.062  -6.618  -1.704  0.00  0.00    +0.025 C 
ATOM      3  C   UNL     1      -0.804  -6.056  -0.489  0.00  0.00    +0.002 C 
ATOM      4  C   UNL     1      -2.285  -5.884  -0.831  0.00  0.00    +0.000 C 
ATOM      5  C   UNL     1      -2.718  -4.451  -0.514  0.00  0.00    +0.000 C 
ATOM      6  C   UNL     1      -3.354  -3.824  -1.756  0.00  0.00    +0.000 C 
ATOM      7  C   UNL     1      -2.680  -2.484  -2.054  0.00  0.00    +0.000 C 
ATOM      8  C   UNL     1      -2.209  -2.462  -3.510  0.00  0.00    +0.000 C 
ATOM      9  C   UNL     1      -0.713  -2.144  -3.557  0.00  0.00    +0.000 C 
ATOM     10  C   UNL     1       0.008  -3.206  -4.391  0.00  0.00    +0.006 C 
ATOM     11  C   UNL     1       1.225  -3.720  -3.619  0.00  0.00    +0.056 C 
ATOM     12  C   UNL     1       1.083  -5.203  -3.388  0.00  0.00    +0.074 C 
ATOM     13  N   UNL     1       0.887  -5.989  -4.378  0.00  0.00    -0.095 NA
ENDROOT
BRANCH   1  23
ATOM     14  C   UNL     1       2.850   1.305   0.132  0.00  0.00    +0.005 A 
ATOM     15  C   UNL     1       1.685   2.046  -0.020  0.00  0.00    +0.018 A 
ATOM     16  C   UNL     1       0.481   1.388  -0.168  0.00  0.00    +0.084 A 
ATOM     17  N   UNL     1       0.424   0.070  -0.166  0.00  0.00    -0.350 N 
ATOM     18  C   UNL     1       1.512  -0.671  -0.023  0.00  0.00    +0.099 A 
ATOM     19  C   UNL     1       2.760  -0.075   0.130  0.00  0.00    +0.042 A 
ATOM     20  N   UNL     1       1.407  -2.057  -0.027  0.00  0.00    -0.314 N 
ATOM     21  C   UNL     1       2.607  -2.906   0.001  0.00  0.00    +0.122 C 
ATOM     22  C   UNL     1       2.507  -3.930  -1.134  0.00  0.00    +0.104 C 
ATOM     23  N   UNL     1       1.232  -4.653  -1.026  0.00  0.00    -0.291 NA
ATOM     24  C   UNL     1       0.089  -3.746  -1.192  0.00  0.00    +0.104 C 
ATOM     25  C   UNL     1       0.091  -2.714  -0.053  0.00  0.00    +0.122 C 
ATOM     26  H   UNL     1      -0.435  -0.367  -0.272  0.00  0.00    +0.166 HD
ENDBRANCH   1  23
BRANCH  13  27
ATOM     27  O   UNL     1       0.804  -5.466  -5.692  0.00  0.00    -0.409 OA
ATOM     28  H   UNL     1       0.655  -6.136  -6.373  0.00  0.00    +0.328 HD
ENDBRANCH  13  27
TORSDOF 2
