REMARK  Name = ZINC13064770
REMARK  16 active torsions:
REMARK  status: ('A' for Active; 'I' for Inactive)
REMARK    1  A    between atoms: C_1  and  C_2
REMARK    2  A    between atoms: C_2  and  C_3
REMARK    3  A    between atoms: C_3  and  C_5
REMARK    4  A    between atoms: C_3  and  N_72
REMARK    5  A    between atoms: N_9  and  C_10
REMARK    6  A    between atoms: C_10  and  C_11
REMARK    7  A    between atoms: C_10  and  C_12
REMARK    8  A    between atoms: C_10  and  C_13
REMARK    9  A    between atoms: C_14  and  C_15
REMARK   10  A    between atoms: C_14  and  N_72
REMARK   11  A    between atoms: C_18  and  O_21
REMARK   12  A    between atoms: O_21  and  C_22
REMARK   13  A    between atoms: C_23  and  C_24
REMARK   14  A    between atoms: C_23  and  N_72
REMARK   15  A    between atoms: C_27  and  C_37
REMARK   16  A    between atoms: C_29  and  C_36
REMARK                            x       y       z     vdW  Elec       q    Type
REMARK                         _______ _______ _______ _____ _____    ______ ____
ROOT
ATOM      1  N   UNL     1       4.241   4.848  -0.776  0.00  0.00    +0.392 N 
ATOM      2  H   UNL     1       3.782   5.671  -1.185  0.00  0.00    -0.080 HD
ENDROOT
BRANCH   1   3
ATOM      3  C   UNL     1       3.848   3.648  -1.544  0.00  0.00    +0.003 C 
BRANCH   3   4
ATOM      4  C   UNL     1       3.627   4.048  -2.980  0.00  0.00    +0.139 A 
ATOM      5  N   UNL     1       4.283   4.968  -3.646  0.00  0.00    -0.115 NA
ATOM      6  N   UNL     1       3.803   5.013  -4.841  0.00  0.00    -0.023 NA
ATOM      7  N   UNL     1       2.858   4.146  -4.955  0.00  0.00    -0.043 NA
ATOM      8  N   UNL     1       2.723   3.527  -3.830  0.00  0.00    -0.226 N 
BRANCH   8   9
ATOM      9  C   UNL     1       1.764   2.460  -3.534  0.00  0.00    +0.059 C 
ATOM     10  C   UNL     1       0.759   2.954  -2.491  0.00  0.00    +0.036 C 
ATOM     11  C   UNL     1       1.022   2.071  -4.814  0.00  0.00    +0.036 C 
ATOM     12  C   UNL     1       2.510   1.242  -2.986  0.00  0.00    +0.036 C 
ENDBRANCH   8   9
ENDBRANCH   3   4
BRANCH   3  14
ATOM     13  C   UNL     1       5.071   2.076  -0.037  0.00  0.00    +0.002 C 
ATOM     14  C   UNL     1       4.946   2.586  -1.474  0.00  0.00    -0.011 C 
ENDBRANCH   3  14
ENDBRANCH   1   3
BRANCH   1  15
ATOM     15  C   UNL     1       5.706   5.033  -0.843  0.00  0.00    -0.042 C 
BRANCH  15  16
ATOM     16  C   UNL     1       6.063   5.579  -2.202  0.00  0.00    -0.064 A 
ATOM     17  C   UNL     1       6.712   4.775  -3.120  0.00  0.00    +0.005 A 
ATOM     18  C   UNL     1       7.035   5.271  -4.368  0.00  0.00    +0.046 A 
ATOM     19  C   UNL     1       6.717   6.582  -4.696  0.00  0.00    +0.120 A 
ATOM     20  C   UNL     1       6.071   7.388  -3.771  0.00  0.00    +0.046 A 
ATOM     21  C   UNL     1       5.745   6.885  -2.526  0.00  0.00    +0.005 A 
BRANCH  19  22
ATOM     22  O   UNL     1       7.038   7.074  -5.921  0.00  0.00    -0.495 OA
ATOM     23  C   UNL     1       7.703   6.187  -6.823  0.00  0.00    +0.277 C 
ENDBRANCH  19  22
ENDBRANCH  15  16
ENDBRANCH   1  15
BRANCH   1  24
ATOM     24  C   UNL     1       3.813   4.709   0.632  0.00  0.00    -0.036 C 
BRANCH  24  25
ATOM     25  C   UNL     1       2.315   4.856   0.700  0.00  0.00    +0.001 A 
ATOM     26  C   UNL     1       1.532   3.753   0.799  0.00  0.00    +0.017 A 
ATOM     27  C   UNL     1       0.080   3.930   0.864  0.00  0.00    +0.002 A 
ATOM     28  C   UNL     1      -0.778   2.831   0.968  0.00  0.00    -0.041 A 
ATOM     29  C   UNL     1      -2.129   3.029   1.025  0.00  0.00    +0.007 A 
ATOM     30  C   UNL     1      -2.657   4.313   0.981  0.00  0.00    -0.048 A 
ATOM     31  C   UNL     1      -1.830   5.410   0.879  0.00  0.00    +0.029 A 
ATOM     32  C   UNL     1      -0.451   5.233   0.819  0.00  0.00    +0.050 A 
ATOM     33  N   UNL     1       0.400   6.313   0.716  0.00  0.00    -0.322 N 
ATOM     34  H   UNL     1       0.032   7.210   0.685  0.00  0.00    +0.169 HD
ATOM     35  C   UNL     1       1.732   6.141   0.658  0.00  0.00    +0.251 A 
ATOM     36  O   UNL     1       2.454   7.118   0.568  0.00  0.00    -0.268 OA
ATOM     37  C   UNL     1      -4.149   4.507   1.046  0.00  0.00    +0.044 C 
ATOM     38  C   UNL     1      -0.216   1.433   1.016  0.00  0.00    +0.044 C 
ENDBRANCH  24  25
ENDBRANCH   1  24
TORSDOF 9
