REMARK  Name = ZINC08190088
REMARK  4 active torsions:
REMARK  status: ('A' for Active; 'I' for Inactive)
REMARK    1  A    between atoms: C_3  and  C_6
REMARK    2  A    between atoms: C_15  and  C_16
REMARK    3  A    between atoms: C_15  and  N_42
REMARK    4  A    between atoms: C_21  and  O_22
REMARK                            x       y       z     vdW  Elec       q    Type
REMARK                         _______ _______ _______ _____ _____    ______ ____
ROOT
ATOM      1  C   UNL     1      -2.895   8.334   1.970  0.00  0.00    +0.001 C 
ATOM      2  C   UNL     1      -1.919   9.504   1.898  0.00  0.00    -0.046 A 
ATOM      3  C   UNL     1      -2.304  10.841   1.957  0.00  0.00    +0.010 A 
ATOM      4  C   UNL     1      -1.371  11.819   1.885  0.00  0.00    +0.045 A 
ATOM      5  S   UNL     1       0.139  10.876   1.725  0.00  0.00    -0.101 S 
ATOM      6  C   UNL     1      -0.585   9.261   1.767  0.00  0.00    -0.010 A 
ATOM      7  C   UNL     1       0.074   7.922   1.685  0.00  0.00    +0.024 C 
ATOM      8  C   UNL     1      -0.955   6.866   2.123  0.00  0.00    -0.072 C 
ATOM      9  N   UNL     1      -2.225   7.138   1.407  0.00  0.00    +0.390 N 
ATOM     10  H   UNL     1      -2.015   7.312   0.417  0.00  0.00    -0.080 HD
ENDROOT
BRANCH   1  13
ATOM     11  C   UNL     1      -6.322   9.280   0.604  0.00  0.00    +0.008 A 
ATOM     12  C   UNL     1      -5.340   9.058   1.550  0.00  0.00    +0.010 A 
ATOM     13  C   UNL     1      -4.117   8.638   1.143  0.00  0.00    -0.019 A 
ATOM     14  S   UNL     1      -4.334   8.532  -0.626  0.00  0.00    -0.103 S 
ATOM     15  C   UNL     1      -6.037   9.062  -0.703  0.00  0.00    +0.045 A 
ENDBRANCH   1  13
BRANCH   9  16
ATOM     16  C   UNL     1      -3.118   5.968   1.508  0.00  0.00    -0.038 C 
BRANCH  16  17
ATOM     17  C   UNL     1      -2.503   4.824   0.743  0.00  0.00    -0.019 A 
ATOM     18  C   UNL     1      -1.928   3.768   1.424  0.00  0.00    +0.055 A 
ATOM     19  C   UNL     1      -1.361   2.716   0.724  0.00  0.00    +0.167 A 
ATOM     20  C   UNL     1      -1.372   2.723  -0.669  0.00  0.00    +0.170 A 
ATOM     21  C   UNL     1      -1.950   3.782  -1.349  0.00  0.00    +0.095 A 
ATOM     22  C   UNL     1      -2.515   4.833  -0.643  0.00  0.00    +0.122 A 
ATOM     23  O   UNL     1      -0.760   1.588  -1.116  0.00  0.00    -0.452 OA
ATOM     24  C   UNL     1      -0.013   1.086   0.008  0.00  0.00    +0.466 C 
ATOM     25  O   UNL     1      -0.738   1.576   1.151  0.00  0.00    -0.453 OA
BRANCH  22  26
ATOM     26  O   UNL     1      -3.082   5.874  -1.311  0.00  0.00    -0.506 OA
ATOM     27  H   UNL     1      -4.022   5.754  -1.501  0.00  0.00    +0.292 HD
ENDBRANCH  22  26
ENDBRANCH  16  17
ENDBRANCH   9  16
TORSDOF 4
