REMARK  Name = ZINC09724520
REMARK  9 active torsions:
REMARK  status: ('A' for Active; 'I' for Inactive)
REMARK    1  A    between atoms: C_1  and  C_2
REMARK    2  A    between atoms: C_2  and  O_3
REMARK    3  A    between atoms: O_3  and  C_4
REMARK    4  A    between atoms: C_4  and  C_5
REMARK    5  A    between atoms: C_5  and  N_6
REMARK    6  A    between atoms: C_10  and  N_27
REMARK    7  A    between atoms: N_15  and  C_16
REMARK    8  A    between atoms: C_16  and  C_18
REMARK    9  A    between atoms: C_28  and  C_30
REMARK                            x       y       z     vdW  Elec       q    Type
REMARK                         _______ _______ _______ _____ _____    ______ ____
ROOT
ATOM      1  N   UNL     1       5.055  -4.196   0.258  0.00  0.00    -0.319 N 
ATOM      2  C   UNL     1       6.264  -4.793   0.573  0.00  0.00    +0.058 A 
ATOM      3  C   UNL     1       6.495  -6.144   0.887  0.00  0.00    +0.029 A 
ATOM      4  C   UNL     1       7.756  -6.594   1.188  0.00  0.00    +0.025 A 
ATOM      5  C   UNL     1       8.847  -5.731   1.190  0.00  0.00    +0.035 A 
ATOM      6  C   UNL     1       8.647  -4.391   0.883  0.00  0.00    +0.040 A 
ATOM      7  C   UNL     1       7.382  -3.946   0.583  0.00  0.00    +0.041 A 
ATOM      8  S   UNL     1       6.703  -2.363   0.147  0.00  0.00    -0.052 S 
ATOM      9  C   UNL     1       4.999  -2.866  -0.030  0.00  0.00    +0.167 A 
ATOM     10  N   UNL     1       3.943  -2.128  -0.355  0.00  0.00    -0.152 NA
ENDROOT
BRANCH   5  11
ATOM     11  N   UNL     1      10.129  -6.207   1.498  0.00  0.00    -0.286 N 
ATOM     12  C   UNL     1      10.491  -7.453   1.134  0.00  0.00    +0.214 C 
ATOM     13  O   UNL     1       9.748  -8.124   0.449  0.00  0.00    -0.276 OA
ATOM     14  C   UNL     1      11.818  -8.012   1.578  0.00  0.00    +0.109 C 
ATOM     15  H   UNL     1      10.755  -5.639   1.972  0.00  0.00    +0.155 HD
ENDBRANCH   5  11
BRANCH  10  16
ATOM     16  C   UNL     1       4.090  -0.821  -0.599  0.00  0.00    +0.269 C 
ATOM     17  O   UNL     1       5.193  -0.307  -0.523  0.00  0.00    -0.268 OA
BRANCH  16  18
ATOM     18  C   UNL     1       2.914   0.000  -0.961  0.00  0.00    +0.040 A 
ATOM     19  C   UNL     1       1.643  -0.581  -1.050  0.00  0.00    +0.015 A 
ATOM     20  C   UNL     1       0.550   0.152  -1.380  0.00  0.00    +0.029 A 
ATOM     21  C   UNL     1       0.658   1.537  -1.647  0.00  0.00    +0.078 A 
ATOM     22  C   UNL     1       1.952   2.103  -1.551  0.00  0.00    +0.040 A 
ATOM     23  C   UNL     1       3.057   1.365  -1.218  0.00  0.00    +0.030 A 
ATOM     24  S   UNL     1       1.645   3.805  -1.953  0.00  0.00    -0.075 S 
ATOM     25  C   UNL     1      -0.068   3.674  -2.208  0.00  0.00    +0.157 A 
ATOM     26  N   UNL     1      -0.308   2.410  -1.992  0.00  0.00    -0.247 NA
ENDBRANCH  16  18
ENDBRANCH  10  16
BRANCH   1  27
ATOM     27  C   UNL     1       3.830  -5.000   0.229  0.00  0.00    +0.152 C 
BRANCH  27  28
ATOM     28  C   UNL     1       2.662  -4.170   0.765  0.00  0.00    +0.181 C 
BRANCH  28  29
ATOM     29  O   UNL     1       1.496  -4.990   0.853  0.00  0.00    -0.378 OA
BRANCH  29  31
ATOM     30  C   UNL     1      -0.841  -5.277   1.398  0.00  0.00    +0.034 C 
ATOM     31  C   UNL     1       0.341  -4.308   1.345  0.00  0.00    +0.156 C 
ENDBRANCH  29  31
ENDBRANCH  28  29
ENDBRANCH  27  28
ENDBRANCH   1  27
TORSDOF 7
