REMARK  Name = ZINC37061813
REMARK  4 active torsions:
REMARK  status: ('A' for Active; 'I' for Inactive)
REMARK    1  A    between atoms: C_1  and  C_2
REMARK    2  A    between atoms: C_4  and  N_19
REMARK    3  A    between atoms: C_7  and  N_8
REMARK    4  A    between atoms: N_8  and  C_9
REMARK                            x       y       z     vdW  Elec       q    Type
REMARK                         _______ _______ _______ _____ _____    ______ ____
ROOT
ATOM      1  N   UNL     1       0.025  -0.016   2.415  0.00  0.00    -0.337 N 
ATOM      2  H   UNL     1       0.012   0.954   2.422  0.00  0.00    +0.147 HD
ENDROOT
BRANCH   1   3
ATOM      3  C   UNL     1       0.047  -0.758   3.678  0.00  0.00    +0.101 C 
ATOM      4  C   UNL     1      -0.534   0.106   4.817  0.00  0.00    +0.031 C 
ATOM      5  C   UNL     1       0.727   0.781   5.398  0.00  0.00    +0.037 C 
ATOM      6  C   UNL     1       1.865  -0.166   5.080  0.00  0.00    -0.042 A 
ATOM      7  C   UNL     1       1.474  -1.052   4.090  0.00  0.00    -0.024 A 
ATOM      8  C   UNL     1       2.358  -2.016   3.636  0.00  0.00    +0.006 A 
ATOM      9  C   UNL     1       3.631  -2.098   4.168  0.00  0.00    +0.000 A 
ATOM     10  C   UNL     1       4.023  -1.214   5.155  0.00  0.00    +0.000 A 
ATOM     11  C   UNL     1       3.140  -0.247   5.612  0.00  0.00    +0.004 A 
ENDBRANCH   1   3
BRANCH   1  18
ATOM     12  C   UNL     1      -0.018   1.503   0.010  0.00  0.00    +0.046 C 
ATOM     13  C   UNL     1       0.002  -0.004   0.002  0.00  0.00    -0.027 A 
ATOM     14  C   UNL     1       0.006  -0.689  -1.198  0.00  0.00    +0.038 A 
ATOM     15  C   UNL     1       0.025  -2.071  -1.206  0.00  0.00    +0.127 A 
ATOM     16  C   UNL     1       0.040  -2.773  -0.014  0.00  0.00    +0.034 A 
ATOM     17  C   UNL     1       0.036  -2.095   1.188  0.00  0.00    +0.025 A 
ATOM     18  C   UNL     1       0.023  -0.706   1.200  0.00  0.00    +0.031 A 
BRANCH  15  19
ATOM     19  N   UNL     1       0.028  -2.802  -2.493  0.00  0.00    +0.056 N 
ATOM     20  O   UNL     1       0.014  -2.190  -3.536  0.00  0.00    -0.126 OA
ATOM     21  O   UNL     1       0.044  -4.011  -2.502  0.00  0.00    -0.126 OA
ENDBRANCH  15  19
ENDBRANCH   1  18
TORSDOF 3
