REMARK  Name = ZINC39687104
REMARK  11 active torsions:
REMARK  status: ('A' for Active; 'I' for Inactive)
REMARK    1  A    between atoms: C_1  and  C_2
REMARK    2  A    between atoms: C_4  and  C_11
REMARK    3  A    between atoms: N_5  and  C_7
REMARK    4  A    between atoms: C_7  and  C_8
REMARK    5  A    between atoms: C_7  and  C_9
REMARK    6  A    between atoms: C_7  and  C_10
REMARK    7  A    between atoms: C_15  and  C_24
REMARK    8  A    between atoms: N_26  and  C_27
REMARK    9  A    between atoms: C_27  and  C_29
REMARK   10  A    between atoms: C_27  and  C_30
REMARK   11  A    between atoms: C_30  and  C_31
REMARK                            x       y       z     vdW  Elec       q    Type
REMARK                         _______ _______ _______ _____ _____    ______ ____
ROOT
ATOM      1  C   UNL     1      -1.857  -4.237  -0.840  0.00  0.00    +0.265 C 
ATOM      2  O   UNL     1      -1.639  -3.980  -2.009  0.00  0.00    -0.268 OA
ATOM      3  N   UNL     1      -2.003  -5.518  -0.448  0.00  0.00    -0.295 N 
ATOM      4  C   UNL     1      -2.400  -6.018   0.890  0.00  0.00    +0.121 C 
ATOM      5  C   UNL     1      -3.334  -7.214   0.598  0.00  0.00    +0.100 C 
ATOM      6  C   UNL     1      -2.937  -7.687  -0.811  0.00  0.00    -0.004 C 
ATOM      7  C   UNL     1      -1.811  -6.744  -1.258  0.00  0.00    +0.115 C 
ATOM      8  C   UNL     1      -4.124  -7.570  -1.761  0.00  0.00    -0.010 C 
ATOM      9  C   UNL     1      -3.722  -8.099  -3.141  0.00  0.00    -0.082 C 
ATOM     10  N   UNL     1      -3.299  -9.500  -3.025  0.00  0.00    +0.379 N 
ATOM     11  C   UNL     1      -2.100  -9.594  -2.183  0.00  0.00    -0.082 C 
ATOM     12  C   UNL     1      -2.434  -9.127  -0.763  0.00  0.00    -0.010 C 
ATOM     13  H   UNL     1      -4.043 -10.041  -2.610  0.00  0.00    -0.086 HD
ATOM     14  H   UNL     1      -3.093  -9.865  -3.943  0.00  0.00    -0.086 HD
ENDROOT
BRANCH   1  18
ATOM     15  C   UNL     1      -2.240  -1.577   3.461  0.00  0.00    +0.067 C 
ATOM     16  C   UNL     1      -2.126  -1.974   2.011  0.00  0.00    +0.061 A 
ATOM     17  C   UNL     1      -2.051  -3.279   1.520  0.00  0.00    +0.057 A 
ATOM     18  C   UNL     1      -1.960  -3.149   0.145  0.00  0.00    +0.124 A 
ATOM     19  N   UNL     1      -1.985  -1.808  -0.113  0.00  0.00    -0.254 N 
ATOM     20  N   UNL     1      -2.087  -1.158   0.990  0.00  0.00    -0.175 NA
BRANCH  19  21
ATOM     21  C   UNL     1      -1.912  -1.204  -1.446  0.00  0.00    +0.056 C 
ATOM     22  C   UNL     1      -3.010  -1.794  -2.334  0.00  0.00    +0.036 C 
ATOM     23  C   UNL     1      -2.107   0.309  -1.331  0.00  0.00    +0.036 C 
ATOM     24  C   UNL     1      -0.543  -1.496  -2.064  0.00  0.00    +0.036 C 
ENDBRANCH  19  21
ENDBRANCH   1  18
BRANCH   5  25
ATOM     25  C   UNL     1      -3.110  -8.313   1.605  0.00  0.00    +0.218 C 
ATOM     26  O   UNL     1      -2.028  -8.435   2.139  0.00  0.00    -0.275 OA
ATOM     27  N   UNL     1      -4.112  -9.159   1.913  0.00  0.00    -0.312 N 
ATOM     28  H   UNL     1      -4.953  -9.112   1.431  0.00  0.00    +0.149 HD
BRANCH  27  29
ATOM     29  C   UNL     1      -3.933 -10.152   2.976  0.00  0.00    +0.074 C 
ATOM     30  C   UNL     1      -3.322 -11.425   2.387  0.00  0.00    +0.028 C 
BRANCH  29  31
ATOM     31  C   UNL     1      -5.290 -10.479   3.602  0.00  0.00    +0.060 C 
BRANCH  31  32
ATOM     32  C   UNL     1      -5.845  -9.248   4.270  0.00  0.00    -0.010 A 
ATOM     33  C   UNL     1      -5.585  -9.010   5.607  0.00  0.00    +0.006 A 
ATOM     34  C   UNL     1      -6.094  -7.880   6.220  0.00  0.00    +0.000 A 
ATOM     35  C   UNL     1      -6.864  -6.988   5.497  0.00  0.00    +0.003 A 
ATOM     36  C   UNL     1      -7.125  -7.224   4.161  0.00  0.00    +0.038 A 
ATOM     37  C   UNL     1      -6.611  -8.352   3.545  0.00  0.00    +0.127 A 
ATOM     38  F   UNL     1      -6.862  -8.581   2.237  0.00  0.00    -0.205 F 
ENDBRANCH  31  32
ENDBRANCH  29  31
ENDBRANCH  27  29
ENDBRANCH   5  25
TORSDOF 6
