REMARK  Name = ZINC20618078
REMARK  7 active torsions:
REMARK  status: ('A' for Active; 'I' for Inactive)
REMARK    1  A    between atoms: C_4  and  C_7
REMARK    2  A    between atoms: C_7  and  C_8
REMARK    3  A    between atoms: N_11  and  C_14
REMARK    4  A    between atoms: C_14  and  C_15
REMARK    5  A    between atoms: C_15  and  N_16
REMARK    6  A    between atoms: C_17  and  C_19
REMARK    7  A    between atoms: C_22  and  N_25
REMARK                            x       y       z     vdW  Elec       q    Type
REMARK                         _______ _______ _______ _____ _____    ______ ____
ROOT
ATOM      1  N   UNL     1       1.344   2.054   0.034  0.00  0.00    -0.313 N 
ATOM      2  C   UNL     1       1.577   3.379  -0.036  0.00  0.00    +0.244 C 
ATOM      3  O   UNL     1       0.646   4.158  -0.100  0.00  0.00    -0.270 OA
ATOM      4  H   UNL     1       2.186   1.349   0.091  0.00  0.00    +0.149 HD
ENDROOT
BRANCH   2   5
ATOM      5  C   UNL     1       2.963   3.885  -0.036  0.00  0.00    +0.037 A 
ATOM      6  C   UNL     1       4.035   2.992   0.043  0.00  0.00    +0.015 A 
ATOM      7  C   UNL     1       5.327   3.467   0.038  0.00  0.00    +0.028 A 
ATOM      8  C   UNL     1       5.566   4.836  -0.034  0.00  0.00    +0.067 A 
ATOM      9  C   UNL     1       4.501   5.728  -0.108  0.00  0.00    +0.028 A 
ATOM     10  C   UNL     1       3.207   5.260  -0.108  0.00  0.00    +0.015 A 
BRANCH   8  11
ATOM     11  N   UNL     1       6.875   5.313  -0.034  0.00  0.00    -0.226 NA
ATOM     12  C   UNL     1       7.152   6.564   0.475  0.00  0.00    +0.155 C 
ATOM     13  N   UNL     1       6.325   7.366   1.067  0.00  0.00    -0.318 N 
ATOM     14  C   UNL     1       6.741   8.654   1.587  0.00  0.00    +0.108 C 
ATOM     15  C   UNL     1       6.405   8.725   3.096  0.00  0.00    +0.189 C 
ATOM     16  S   UNL     1       7.811   9.721   3.753  0.00  0.00    -0.028 S 
ATOM     17  O   UNL     1       8.160   9.246   5.046  0.00  0.00    -0.174 OA
ATOM     18  O   UNL     1       7.541  11.103   3.559  0.00  0.00    -0.174 OA
ATOM     19  C   UNL     1       9.082   9.169   2.534  0.00  0.00    +0.182 C 
ATOM     20  C   UNL     1       8.214   8.964   1.278  0.00  0.00    +0.097 C 
ATOM     21  S   UNL     1       8.719   7.412   0.446  0.00  0.00    -0.084 S 
ATOM     22  H   UNL     1       5.278   7.044   1.168  0.00  0.00    +0.148 HD
ENDBRANCH   8  11
ENDBRANCH   2   5
BRANCH   1  23
ATOM     23  C   UNL     1      -0.033   1.552   0.034  0.00  0.00    +0.086 C 
BRANCH  23  24
ATOM     24  C   UNL     1      -0.018   0.024   0.120  0.00  0.00    -0.060 C 
BRANCH  24  28
ATOM     25  C   UNL     1      -3.665  -1.998   1.066  0.00  0.00    -0.010 C 
ATOM     26  C   UNL     1      -2.874  -2.412  -0.178  0.00  0.00    -0.015 C 
ATOM     27  C   UNL     1      -1.425  -1.939  -0.037  0.00  0.00    -0.078 C 
ATOM     28  N   UNL     1      -1.398  -0.479   0.120  0.00  0.00    +0.381 N 
ATOM     29  C   UNL     1      -2.111  -0.062   1.334  0.00  0.00    -0.078 C 
ATOM     30  C   UNL     1      -3.580  -0.478   1.233  0.00  0.00    -0.015 C 
ATOM     31  H   UNL     1      -1.920  -0.040  -0.743  0.00  0.00    -0.082 HD
BRANCH  25  32
ATOM     32  C   UNL     1      -5.128  -2.415   0.904  0.00  0.00    +0.038 C 
BRANCH  32  36
ATOM     33  C   UNL     1      -7.256  -1.576   4.512  0.00  0.00    +0.000 A 
ATOM     34  C   UNL     1      -7.177  -0.619   3.517  0.00  0.00    +0.000 A 
ATOM     35  C   UNL     1      -6.489  -0.891   2.350  0.00  0.00    +0.003 A 
ATOM     36  C   UNL     1      -5.878  -2.119   2.177  0.00  0.00    -0.047 A 
ATOM     37  C   UNL     1      -5.961  -3.078   3.169  0.00  0.00    +0.003 A 
ATOM     38  C   UNL     1      -6.646  -2.804   4.339  0.00  0.00    +0.000 A 
ENDBRANCH  32  36
ENDBRANCH  25  32
ENDBRANCH  24  28
ENDBRANCH  23  24
ENDBRANCH   1  23
TORSDOF 7
