REMARK  Name = ZINC09963403
REMARK  12 active torsions:
REMARK  status: ('A' for Active; 'I' for Inactive)
REMARK    1  A    between atoms: C_1  and  C_2
REMARK    2  A    between atoms: C_2  and  O_3
REMARK    3  A    between atoms: O_3  and  C_4
REMARK    4  A    between atoms: C_7  and  C_10
REMARK    5  A    between atoms: C_10  and  C_11
REMARK    6  A    between atoms: C_11  and  N_12
REMARK    7  A    between atoms: C_13  and  C_15
REMARK    8  A    between atoms: C_15  and  N_16
REMARK    9  A    between atoms: C_19  and  S_27
REMARK   10  A    between atoms: S_27  and  N_30
REMARK   11  A    between atoms: C_32  and  C_39
REMARK   12  A    between atoms: C_35  and  C_38
REMARK                            x       y       z     vdW  Elec       q    Type
REMARK                         _______ _______ _______ _____ _____    ______ ____
ROOT
ATOM      1  N   UNL     1       1.241  -6.811  -4.035  0.00  0.00    -0.256 N 
ATOM      2  C   UNL     1       0.029  -7.064  -4.694  0.00  0.00    +0.081 A 
ATOM      3  C   UNL     1      -1.165  -6.568  -4.194  0.00  0.00    +0.055 A 
ATOM      4  C   UNL     1      -2.349  -6.825  -4.860  0.00  0.00    +0.107 A 
ATOM      5  C   UNL     1      -2.344  -7.571  -6.025  0.00  0.00    +0.032 A 
ATOM      6  C   UNL     1      -1.155  -8.063  -6.532  0.00  0.00    +0.049 A 
ATOM      7  C   UNL     1       0.034  -7.810  -5.870  0.00  0.00    +0.143 A 
ATOM      8  O   UNL     1       1.212  -8.287  -6.354  0.00  0.00    -0.481 OA
ATOM      9  C   UNL     1       2.372  -7.482  -6.130  0.00  0.00    +0.325 C 
ATOM     10  C   UNL     1       2.401  -7.022  -4.694  0.00  0.00    +0.258 C 
ATOM     11  O   UNL     1       3.461  -6.844  -4.133  0.00  0.00    -0.271 OA
ENDROOT
BRANCH   4  12
ATOM     12  S   UNL     1      -3.869  -6.202  -4.223  0.00  0.00    +0.061 S 
ATOM     13  O   UNL     1      -3.541  -5.076  -3.420  0.00  0.00    -0.153 OA
ATOM     14  O   UNL     1      -4.766  -6.118  -5.322  0.00  0.00    -0.153 OA
BRANCH  12  15
ATOM     15  N   UNL     1      -4.479  -7.352  -3.200  0.00  0.00    -0.176 NA
ATOM     16  C   UNL     1      -5.381  -8.397  -3.701  0.00  0.00    +0.112 C 
ATOM     17  C   UNL     1      -4.815  -9.767  -3.298  0.00  0.00    +0.002 C 
ATOM     18  C   UNL     1      -4.600  -9.797  -1.783  0.00  0.00    +0.009 C 
ATOM     19  C   UNL     1      -3.585  -8.721  -1.389  0.00  0.00    +0.002 C 
ATOM     20  C   UNL     1      -4.133  -7.343  -1.772  0.00  0.00    +0.112 C 
ATOM     21  C   UNL     1      -2.267  -8.969  -2.124  0.00  0.00    +0.009 C 
ATOM     22  C   UNL     1      -5.805 -10.864  -3.695  0.00  0.00    +0.009 C 
ENDBRANCH  12  15
ENDBRANCH   4  12
BRANCH   1  23
ATOM     23  C   UNL     1       1.248  -6.330  -2.652  0.00  0.00    +0.209 C 
BRANCH  23  25
ATOM     24  N   UNL     1       1.234  -4.155  -1.474  0.00  0.00    -0.314 N 
ATOM     25  C   UNL     1       1.231  -4.823  -2.644  0.00  0.00    +0.231 C 
ATOM     26  O   UNL     1       1.214  -4.211  -3.691  0.00  0.00    -0.274 OA
ATOM     27  H   UNL     1       1.248  -4.644  -0.636  0.00  0.00    +0.149 HD
BRANCH  24  28
ATOM     28  C   UNL     1       1.217  -2.690  -1.466  0.00  0.00    +0.109 C 
BRANCH  28  29
ATOM     29  C   UNL     1       1.226  -2.187  -0.021  0.00  0.00    +0.054 C 
BRANCH  29  33
ATOM     30  C   UNL     1       1.176   2.086   0.002  0.00  0.00    +0.121 A 
ATOM     31  C   UNL     1      -0.017   1.377   0.010  0.00  0.00    +0.046 A 
ATOM     32  C   UNL     1       0.002  -0.004   0.002  0.00  0.00    +0.007 A 
ATOM     33  C   UNL     1       1.208  -0.680  -0.013  0.00  0.00    -0.046 A 
ATOM     34  C   UNL     1       2.398   0.024  -0.021  0.00  0.00    +0.007 A 
ATOM     35  C   UNL     1       2.385   1.405  -0.013  0.00  0.00    +0.046 A 
BRANCH  30  36
ATOM     36  O   UNL     1       1.160   3.445   0.009  0.00  0.00    -0.492 OA
BRANCH  36  38
ATOM     37  C   UNL     1       2.208   5.623   0.010  0.00  0.00    +0.048 C 
ATOM     38  C   UNL     1       2.426   4.108   0.001  0.00  0.00    +0.225 C 
ENDBRANCH  36  38
ENDBRANCH  30  36
ENDBRANCH  29  33
ENDBRANCH  28  29
ENDBRANCH  24  28
ENDBRANCH  23  25
ENDBRANCH   1  23
TORSDOF 9
