REMARK  Name = ZINC35703411
REMARK  9 active torsions:
REMARK  status: ('A' for Active; 'I' for Inactive)
REMARK    1  A    between atoms: C_1  and  C_2
REMARK    2  A    between atoms: C_5  and  C_8
REMARK    3  A    between atoms: C_11  and  C_23
REMARK    4  A    between atoms: C_15  and  C_17
REMARK    5  A    between atoms: N_25  and  C_26
REMARK    6  A    between atoms: C_26  and  C_27
REMARK    7  A    between atoms: C_27  and  C_28
REMARK    8  A    between atoms: C_28  and  C_29
REMARK    9  A    between atoms: C_28  and  C_35
REMARK                            x       y       z     vdW  Elec       q    Type
REMARK                         _______ _______ _______ _____ _____    ______ ____
ROOT
ATOM      1  C   UNL     1      -0.254  -4.297  -1.023  0.00  0.00    +0.248 C 
ATOM      2  O   UNL     1      -0.277  -3.082  -1.034  0.00  0.00    -0.270 OA
ATOM      3  N   UNL     1       0.207  -4.952   0.061  0.00  0.00    -0.273 N 
ATOM      4  C   UNL     1       0.533  -4.257   1.304  0.00  0.00    +0.173 C 
ATOM      5  C   UNL     1       1.698  -4.973   2.049  0.00  0.00    +0.103 C 
ATOM      6  S   UNL     1       1.212  -6.722   1.694  0.00  0.00    -0.136 S 
ATOM      7  C   UNL     1       0.407  -6.413   0.064  0.00  0.00    +0.138 C 
ENDROOT
BRANCH   1  12
ATOM      8  C   UNL     1      -2.111  -7.253  -5.597  0.00  0.00    +0.044 C 
ATOM      9  C   UNL     1      -1.625  -6.479  -4.399  0.00  0.00    -0.050 A 
ATOM     10  C   UNL     1      -1.840  -5.114  -4.327  0.00  0.00    +0.004 A 
ATOM     11  C   UNL     1      -1.398  -4.399  -3.233  0.00  0.00    +0.013 A 
ATOM     12  C   UNL     1      -0.731  -5.056  -2.198  0.00  0.00    +0.037 A 
ATOM     13  C   UNL     1      -0.517  -6.433  -2.276  0.00  0.00    +0.013 A 
ATOM     14  C   UNL     1      -0.970  -7.137  -3.373  0.00  0.00    +0.004 A 
ENDBRANCH   1  12
BRANCH   7  15
ATOM     15  C   UNL     1      -0.935  -7.143  -0.025  0.00  0.00    +0.020 C 
ATOM     16  C   UNL     1      -1.622  -7.116   1.341  0.00  0.00    +0.006 C 
ATOM     17  C   UNL     1      -2.964  -7.845   1.252  0.00  0.00    +0.000 C 
ATOM     18  C   UNL     1      -2.729  -9.296   0.827  0.00  0.00    +0.000 C 
ATOM     19  C   UNL     1      -2.042  -9.323  -0.539  0.00  0.00    +0.000 C 
ATOM     20  C   UNL     1      -0.700  -8.594  -0.450  0.00  0.00    +0.006 C 
ENDBRANCH   7  15
BRANCH   4  21
ATOM     21  C   UNL     1       0.944  -2.842   0.988  0.00  0.00    +0.234 C 
ATOM     22  O   UNL     1       1.453  -2.583  -0.082  0.00  0.00    -0.274 OA
ATOM     23  N   UNL     1       0.746  -1.865   1.894  0.00  0.00    -0.314 N 
ATOM     24  H   UNL     1       0.408  -2.083   2.777  0.00  0.00    +0.149 HD
BRANCH  23  25
ATOM     25  C   UNL     1       1.042  -0.473   1.547  0.00  0.00    +0.105 C 
BRANCH  25  26
ATOM     26  C   UNL     1       0.849   0.413   2.780  0.00  0.00    +0.031 C 
BRANCH  26  27
ATOM     27  C   UNL     1       1.158   1.867   2.417  0.00  0.00    +0.050 C 
BRANCH  27  28
ATOM     28  C   UNL     1       0.150   2.359   1.411  0.00  0.00    -0.040 A 
ATOM     29  C   UNL     1       0.569   3.073   0.304  0.00  0.00    +0.004 A 
ATOM     30  C   UNL     1      -0.356   3.524  -0.619  0.00  0.00    +0.000 A 
ATOM     31  C   UNL     1      -1.700   3.261  -0.435  0.00  0.00    +0.000 A 
ATOM     32  C   UNL     1      -2.120   2.546   0.672  0.00  0.00    +0.000 A 
ATOM     33  C   UNL     1      -1.194   2.091   1.592  0.00  0.00    +0.004 A 
ENDBRANCH  27  28
BRANCH  27  34
ATOM     34  C   UNL     1       1.088   2.720   3.657  0.00  0.00    -0.040 A 
ATOM     35  C   UNL     1      -0.052   2.711   4.438  0.00  0.00    +0.004 A 
ATOM     36  C   UNL     1      -0.117   3.494   5.576  0.00  0.00    +0.000 A 
ATOM     37  C   UNL     1       0.959   4.285   5.933  0.00  0.00    +0.000 A 
ATOM     38  C   UNL     1       2.100   4.293   5.152  0.00  0.00    +0.000 A 
ATOM     39  C   UNL     1       2.166   3.507   4.017  0.00  0.00    +0.004 A 
ENDBRANCH  27  34
ENDBRANCH  26  27
ENDBRANCH  25  26
ENDBRANCH  23  25
ENDBRANCH   4  21
TORSDOF 8
