REMARK  Name = ZINC35888040
REMARK  13 active torsions:
REMARK  status: ('A' for Active; 'I' for Inactive)
REMARK    1  A    between atoms: C_1  and  C_2
REMARK    2  A    between atoms: C_5  and  C_8
REMARK    3  A    between atoms: N_10  and  C_11
REMARK    4  A    between atoms: N_10  and  C_33
REMARK    5  A    between atoms: C_11  and  C_12
REMARK    6  A    between atoms: N_15  and  C_27
REMARK    7  A    between atoms: C_17  and  C_19
REMARK    8  A    between atoms: C_22  and  O_25
REMARK    9  A    between atoms: O_25  and  C_26
REMARK   10  A    between atoms: C_27  and  C_28
REMARK   11  A    between atoms: C_33  and  C_34
REMARK   12  A    between atoms: C_34  and  C_35
REMARK   13  A    between atoms: C_34  and  C_36
REMARK                            x       y       z     vdW  Elec       q    Type
REMARK                         _______ _______ _______ _____ _____    ______ ____
ROOT
ATOM      1  C   UNL     1       1.238  -7.123   1.295  0.00  0.00    -0.005 C 
ATOM      2  C   UNL     1       1.704  -7.052   2.765  0.00  0.00    -0.073 C 
ATOM      3  N   UNL     1       1.217  -8.317   3.373  0.00  0.00    +0.383 N 
ATOM      4  C   UNL     1       1.442  -9.339   2.319  0.00  0.00    -0.070 C 
ATOM      5  C   UNL     1       1.067  -8.627   0.999  0.00  0.00    +0.005 C 
ATOM      6  H   UNL     1       0.235  -8.248   3.594  0.00  0.00    -0.081 HD
ENDROOT
BRANCH   5   7
ATOM      7  C   UNL     1       1.996  -9.052  -0.110  0.00  0.00    -0.046 A 
ATOM      8  C   UNL     1       3.363  -8.913   0.044  0.00  0.00    +0.007 A 
ATOM      9  C   UNL     1       4.216  -9.301  -0.970  0.00  0.00    +0.046 A 
ATOM     10  C   UNL     1       3.701  -9.831  -2.144  0.00  0.00    +0.120 A 
ATOM     11  C   UNL     1       2.329  -9.970  -2.296  0.00  0.00    +0.046 A 
ATOM     12  C   UNL     1       1.480  -9.585  -1.276  0.00  0.00    +0.007 A 
BRANCH  10  13
ATOM     13  O   UNL     1       4.539 -10.213  -3.143  0.00  0.00    -0.495 OA
ATOM     14  C   UNL     1       3.938 -10.750  -4.323  0.00  0.00    +0.277 C 
ENDBRANCH  10  13
ENDBRANCH   5   7
BRANCH   1  15
ATOM     15  C   UNL     1      -0.095  -6.392   1.123  0.00  0.00    +0.110 C 
BRANCH  15  18
ATOM     16  C   UNL     1       0.555  -4.234   0.198  0.00  0.00    +0.247 C 
ATOM     17  O   UNL     1       0.671  -4.765  -0.889  0.00  0.00    -0.270 OA
ATOM     18  N   UNL     1       0.119  -4.949   1.254  0.00  0.00    -0.297 N 
BRANCH  16  23
ATOM     19  C   UNL     1       1.870   1.332   0.837  0.00  0.00    +0.044 C 
ATOM     20  C   UNL     1       1.526  -0.126   0.669  0.00  0.00    -0.050 A 
ATOM     21  C   UNL     1       0.347  -0.620   1.199  0.00  0.00    +0.004 A 
ATOM     22  C   UNL     1       0.026  -1.954   1.049  0.00  0.00    +0.013 A 
ATOM     23  C   UNL     1       0.893  -2.804   0.361  0.00  0.00    +0.037 A 
ATOM     24  C   UNL     1       2.080  -2.299  -0.171  0.00  0.00    +0.013 A 
ATOM     25  C   UNL     1       2.387  -0.962  -0.019  0.00  0.00    +0.004 A 
ENDBRANCH  16  23
BRANCH  18  26
ATOM     26  C   UNL     1      -0.141  -4.282   2.532  0.00  0.00    +0.111 C 
BRANCH  26  27
ATOM     27  C   UNL     1      -1.638  -3.996   2.663  0.00  0.00    +0.000 C 
ATOM     28  C   UNL     1      -2.403  -5.317   2.762  0.00  0.00    +0.009 C 
ATOM     29  C   UNL     1      -1.890  -3.164   3.922  0.00  0.00    +0.009 C 
ENDBRANCH  26  27
ENDBRANCH  18  26
ENDBRANCH  15  18
ENDBRANCH   1  15
BRANCH   3  30
ATOM     30  C   UNL     1       1.995  -8.641   4.577  0.00  0.00    -0.036 C 
BRANCH  30  31
ATOM     31  C   UNL     1       1.406  -9.858   5.243  0.00  0.00    -0.027 A 
ATOM     32  C   UNL     1       1.706 -11.165   5.051  0.00  0.00    +0.009 A 
ATOM     33  C   UNL     1       1.030 -12.123   5.783  0.00  0.00    +0.008 A 
ATOM     34  C   UNL     1       0.087 -11.726   6.672  0.00  0.00    +0.045 A 
ATOM     35  S   UNL     1       0.138  -9.950   6.496  0.00  0.00    -0.103 S 
ENDBRANCH  30  31
ENDBRANCH   3  30
TORSDOF 9
