REMARK  Name = ZINC34832103
REMARK  14 active torsions:
REMARK  status: ('A' for Active; 'I' for Inactive)
REMARK    1  A    between atoms: C_1  and  C_2
REMARK    2  A    between atoms: C_2  and  C_3
REMARK    3  A    between atoms: C_3  and  C_5
REMARK    4  A    between atoms: C_3  and  N_6
REMARK    5  A    between atoms: N_6  and  C_7
REMARK    6  A    between atoms: C_7  and  C_8
REMARK    7  A    between atoms: C_9  and  C_28
REMARK    8  A    between atoms: N_11  and  C_21
REMARK    9  A    between atoms: C_12  and  N_13
REMARK   10  A    between atoms: N_16  and  C_19
REMARK   11  A    between atoms: C_19  and  C_20
REMARK   12  A    between atoms: C_29  and  C_31
REMARK   13  A    between atoms: C_31  and  S_32
REMARK   14  A    between atoms: S_32  and  C_33
REMARK                            x       y       z     vdW  Elec       q    Type
REMARK                         _______ _______ _______ _____ _____    ______ ____
ROOT
ATOM      1  C   UNL     1      -4.452  -0.618   1.580  0.00  0.00    +0.032 A 
ATOM      2  C   UNL     1      -4.751  -1.539   0.571  0.00  0.00    +0.067 A 
ATOM      3  N   UNL     1      -5.514  -2.474   1.076  0.00  0.00    -0.170 NA
ATOM      4  N   UNL     1      -5.732  -2.186   2.429  0.00  0.00    -0.218 N 
ATOM      5  C   UNL     1      -5.062  -1.037   2.723  0.00  0.00    +0.130 A 
ATOM      6  C   UNL     1      -4.275  -1.466  -0.857  0.00  0.00    +0.068 C 
ENDROOT
BRANCH   5   7
ATOM      7  N   UNL     1      -5.013  -0.406   3.962  0.00  0.00    -0.318 N 
ATOM      8  C   UNL     1      -6.030   0.585   4.347  0.00  0.00    +0.088 C 
ATOM      9  C   UNL     1      -6.573   0.212   5.730  0.00  0.00    -0.060 C 
ATOM     10  N   UNL     1      -5.457   0.090   6.676  0.00  0.00    +0.382 N 
ATOM     11  C   UNL     1      -4.585  -1.023   6.281  0.00  0.00    -0.060 C 
ATOM     12  C   UNL     1      -3.947  -0.715   4.927  0.00  0.00    +0.088 C 
ATOM     13  H   UNL     1      -4.925   0.948   6.679  0.00  0.00    -0.082 HD
BRANCH  10  14
ATOM     14  C   UNL     1      -5.985  -0.159   8.024  0.00  0.00    -0.082 C 
ATOM     15  C   UNL     1      -4.832  -0.162   9.031  0.00  0.00    -0.017 C 
ENDBRANCH  10  14
ENDBRANCH   5   7
BRANCH   4  16
ATOM     16  C   UNL     1      -6.498  -2.946   3.323  0.00  0.00    +0.070 A 
ATOM     17  C   UNL     1      -5.987  -3.273   4.573  0.00  0.00    +0.028 A 
ATOM     18  C   UNL     1      -6.743  -4.022   5.453  0.00  0.00    +0.005 A 
ATOM     19  C   UNL     1      -8.008  -4.448   5.092  0.00  0.00    +0.038 A 
ATOM     20  C   UNL     1      -8.521  -4.124   3.846  0.00  0.00    +0.125 A 
ATOM     21  C   UNL     1      -7.770  -3.369   2.964  0.00  0.00    +0.066 A 
ATOM     22  F   UNL     1      -9.757  -4.542   3.496  0.00  0.00    -0.205 F 
ENDBRANCH   4  16
BRANCH   1  23
ATOM     23  C   UNL     1      -3.599   0.616   1.431  0.00  0.00    +0.148 C 
BRANCH  23  24
ATOM     24  N   UNL     1      -2.184   0.235   1.434  0.00  0.00    -0.294 N 
ATOM     25  C   UNL     1      -1.470   0.306   2.575  0.00  0.00    +0.226 C 
ATOM     26  O   UNL     1      -2.020   0.589   3.618  0.00  0.00    -0.275 OA
BRANCH  24  27
ATOM     27  C   UNL     1      -1.546  -0.224   0.198  0.00  0.00    +0.073 C 
ATOM     28  C   UNL     1      -1.163  -1.698   0.338  0.00  0.00    +0.028 C 
BRANCH  27  30
ATOM     29  C   UNL     1      -0.651   2.094  -0.063  0.00  0.00    +0.005 C 
ATOM     30  C   UNL     1      -0.289   0.608  -0.066  0.00  0.00    +0.019 C 
ENDBRANCH  27  30
ENDBRANCH  24  27
BRANCH  25  31
ATOM     31  C   UNL     1       0.012   0.036   2.553  0.00  0.00    +0.170 C 
BRANCH  31  32
ATOM     32  S   UNL     1       0.615  -0.163   4.253  0.00  0.00    -0.116 S 
BRANCH  32  33
ATOM     33  C   UNL     1       2.340  -0.469   4.060  0.00  0.00    +0.008 A 
ATOM     34  C   UNL     1       2.904  -0.500   2.790  0.00  0.00    +0.015 A 
ATOM     35  C   UNL     1       4.256  -0.740   2.643  0.00  0.00    +0.001 A 
ATOM     36  C   UNL     1       5.048  -0.949   3.758  0.00  0.00    +0.000 A 
ATOM     37  C   UNL     1       4.490  -0.919   5.023  0.00  0.00    +0.001 A 
ATOM     38  C   UNL     1       3.140  -0.673   5.178  0.00  0.00    +0.015 A 
ENDBRANCH  32  33
ENDBRANCH  31  32
ENDBRANCH  25  31
ENDBRANCH  23  24
ENDBRANCH   1  23
TORSDOF 10
