REMARK  Name = ZINC25466557
REMARK  9 active torsions:
REMARK  status: ('A' for Active; 'I' for Inactive)
REMARK    1  A    between atoms: C_1  and  N_2
REMARK    2  A    between atoms: N_2  and  C_3
REMARK    3  A    between atoms: N_2  and  C_4
REMARK    4  A    between atoms: C_4  and  C_6
REMARK    5  A    between atoms: C_4  and  C_25
REMARK    6  A    between atoms: C_6  and  N_7
REMARK    7  A    between atoms: C_8  and  C_10
REMARK    8  A    between atoms: C_11  and  C_12
REMARK    9  A    between atoms: C_14  and  N_22
REMARK                            x       y       z     vdW  Elec       q    Type
REMARK                         _______ _______ _______ _____ _____    ______ ____
ROOT
ATOM      1  N   UNL     1       5.128   4.000   0.745  0.00  0.00    -0.313 N 
ATOM      2  C   UNL     1       5.620   4.846   1.672  0.00  0.00    +0.237 C 
ATOM      3  O   UNL     1       5.059   4.965   2.746  0.00  0.00    -0.271 OA
ATOM      4  H   UNL     1       5.635   3.893  -0.225  0.00  0.00    +0.149 HD
ENDROOT
BRANCH   2   5
ATOM      5  C   UNL     1       6.826   5.622   1.387  0.00  0.00    +0.068 C 
ATOM      6  C   UNL     1       7.318   6.470   2.316  0.00  0.00    +0.016 C 
BRANCH   6   7
ATOM      7  C   UNL     1       8.531   7.249   2.030  0.00  0.00    +0.019 A 
ATOM      8  C   UNL     1       9.181   7.112   0.799  0.00  0.00    +0.044 A 
ATOM      9  C   UNL     1      10.315   7.850   0.536  0.00  0.00    +0.127 A 
ATOM     10  C   UNL     1      10.821   8.717   1.491  0.00  0.00    +0.042 A 
ATOM     11  C   UNL     1      10.192   8.859   2.714  0.00  0.00    +0.023 A 
ATOM     12  C   UNL     1       9.046   8.132   2.992  0.00  0.00    +0.136 A 
ATOM     13  O   UNL     1       8.413   8.269   4.185  0.00  0.00    -0.465 OA
ATOM     14  C   UNL     1       9.154   8.881   5.244  0.00  0.00    +0.395 C 
ATOM     15  O   UNL     1       9.776  10.070   4.740  0.00  0.00    -0.339 OA
ATOM     16  C   UNL     1      10.764   9.804   3.741  0.00  0.00    +0.202 C 
BRANCH   9  17
ATOM     17  N   UNL     1      10.999   7.710  -0.769  0.00  0.00    +0.056 N 
ATOM     18  O   UNL     1      12.004   8.357  -1.002  0.00  0.00    -0.126 OA
ATOM     19  O   UNL     1      10.556   6.949  -1.610  0.00  0.00    -0.126 OA
ENDBRANCH   9  17
ENDBRANCH   6   7
ENDBRANCH   2   5
BRANCH   1  20
ATOM     20  C   UNL     1       3.919   3.223   1.031  0.00  0.00    +0.094 C 
BRANCH  20  21
ATOM     21  C   UNL     1       3.652   2.254  -0.123  0.00  0.00    -0.017 C 
BRANCH  21  22
ATOM     22  C   UNL     1       4.785   1.264  -0.220  0.00  0.00    -0.006 A 
ATOM     23  C   UNL     1       5.723   1.382  -1.231  0.00  0.00    +0.126 A 
ATOM     24  C   UNL     1       6.763   0.473  -1.318  0.00  0.00    +0.038 A 
ATOM     25  C   UNL     1       6.864  -0.552  -0.397  0.00  0.00    +0.004 A 
ATOM     26  C   UNL     1       5.928  -0.670   0.613  0.00  0.00    +0.020 A 
ATOM     27  C   UNL     1       4.887   0.238   0.702  0.00  0.00    +0.045 A 
ATOM     28 CL   UNL     1       3.711   0.088   1.969  0.00  0.00    -0.083 Cl
ATOM     29  F   UNL     1       5.624   2.384  -2.131  0.00  0.00    -0.205 F 
ENDBRANCH  21  22
BRANCH  21  31
ATOM     30  C   UNL     1       1.296   2.474   0.390  0.00  0.00    -0.096 C 
ATOM     31  N   UNL     1       2.394   1.536   0.122  0.00  0.00    +0.382 N 
ATOM     32  C   UNL     1       2.067   0.649  -1.002  0.00  0.00    -0.096 C 
ATOM     33  H   UNL     1       2.530   0.911   1.018  0.00  0.00    -0.082 HD
ENDBRANCH  21  31
ENDBRANCH  20  21
ENDBRANCH   1  20
TORSDOF 7
