REMARK  Name = ZINC12399114
REMARK  6 active torsions:
REMARK  status: ('A' for Active; 'I' for Inactive)
REMARK    1  A    between atoms: C_1  and  C_2
REMARK    2  A    between atoms: C_2  and  C_3
REMARK    3  A    between atoms: C_3  and  C_5
REMARK    4  A    between atoms: C_3  and  N_7
REMARK    5  A    between atoms: C_9  and  N_16
REMARK    6  A    between atoms: C_10  and  C_12
REMARK                            x       y       z     vdW  Elec       q    Type
REMARK                         _______ _______ _______ _____ _____    ______ ____
ROOT
ATOM      1  N   UNL     1       0.594   3.613   0.015  0.00  0.00    -0.255 N 
ATOM      2  C   UNL     1      -0.766   3.604   0.027  0.00  0.00    +0.132 A 
ATOM      3  C   UNL     1      -1.166   2.308   0.019  0.00  0.00    +0.075 A 
ATOM      4  C   UNL     1      -0.018   1.503   0.010  0.00  0.00    +0.186 A 
ATOM      5  N   UNL     1       1.032   2.283   0.004  0.00  0.00    -0.164 NA
ENDROOT
BRANCH   4   6
ATOM      6  C   UNL     1       0.002  -0.004   0.002  0.00  0.00    +0.438 C 
ATOM      7  F   UNL     1       1.323  -0.453   0.102  0.00  0.00    -0.164 F 
ATOM      8  F   UNL     1      -0.738  -0.486   1.087  0.00  0.00    -0.164 F 
ATOM      9  F   UNL     1      -0.560  -0.471  -1.191  0.00  0.00    -0.164 F 
ENDBRANCH   4   6
BRANCH   3  10
ATOM     10  N   UNL     1      -2.498   1.852   0.023  0.00  0.00    -0.355 N 
ATOM     11  H   UNL     1      -2.685   0.900   0.019  0.00  0.00    +0.142 HD
ATOM     12  H   UNL     1      -3.229   2.490   0.030  0.00  0.00    +0.142 HD
ENDBRANCH   3  10
BRANCH   1  13
ATOM     13  C   UNL     1       1.449   4.803   0.013  0.00  0.00    +0.219 C 
BRANCH  13  14
ATOM     14  C   UNL     1       0.789   5.894  -0.790  0.00  0.00    +0.380 C 
ATOM     15  O   UNL     1      -0.285   5.698  -1.308  0.00  0.00    -0.244 OA
ATOM     16  O   UNL     1       1.394   7.084  -0.931  0.00  0.00    -0.244 OA
ENDBRANCH  13  14
BRANCH  13  18
ATOM     17  C   UNL     1       2.438   4.226   2.233  0.00  0.00    +0.006 C 
ATOM     18  C   UNL     1       1.658   5.283   1.450  0.00  0.00    +0.035 C 
ENDBRANCH  13  18
ENDBRANCH   1  13
TORSDOF 5
