REMARK  Name = ZINC63480217
REMARK  10 active torsions:
REMARK  status: ('A' for Active; 'I' for Inactive)
REMARK    1  A    between atoms: C_1  and  C_2
REMARK    2  A    between atoms: C_2  and  C_3
REMARK    3  A    between atoms: C_3  and  C_4
REMARK    4  A    between atoms: C_11  and  O_16
REMARK    5  A    between atoms: C_13  and  C_15
REMARK    6  A    between atoms: O_16  and  C_17
REMARK    7  A    between atoms: C_17  and  C_18
REMARK    8  A    between atoms: N_20  and  C_21
REMARK    9  A    between atoms: C_21  and  C_22
REMARK   10  A    between atoms: C_22  and  C_23
REMARK                            x       y       z     vdW  Elec       q    Type
REMARK                         _______ _______ _______ _____ _____    ______ ____
ROOT
ATOM      1  C   UNL     1       3.656  -0.424   1.047  0.00  0.00    +0.324 C 
ENDROOT
BRANCH   1   2
ATOM      2  C   UNL     1       3.567   1.079   1.107  0.00  0.00    +0.251 C 
ATOM      3  O   UNL     1       2.664   1.656   0.538  0.00  0.00    -0.272 OA
ATOM      4  N   UNL     1       4.489   1.782   1.794  0.00  0.00    -0.312 N 
ATOM      5  H   UNL     1       5.211   1.321   2.249  0.00  0.00    +0.149 HD
BRANCH   4   6
ATOM      6  C   UNL     1       4.402   3.244   1.852  0.00  0.00    +0.108 C 
BRANCH   6   7
ATOM      7  C   UNL     1       5.561   3.791   2.687  0.00  0.00    +0.052 C 
BRANCH   7   8
ATOM      8  C   UNL     1       5.471   5.294   2.747  0.00  0.00    -0.040 C 
ATOM      9  C   UNL     1       4.900   6.036   3.722  0.00  0.00    +0.002 A 
ATOM     10  C   UNL     1       4.216   5.679   4.971  0.00  0.00    +0.048 A 
ATOM     11  C   UNL     1       3.737   6.668   5.763  0.00  0.00    +0.124 A 
ATOM     12  C   UNL     1       3.878   8.022   5.419  0.00  0.00    +0.040 A 
ATOM     13  C   UNL     1       4.494   8.426   4.288  0.00  0.00    +0.029 A 
ATOM     14  C   UNL     1       5.035   7.471   3.383  0.00  0.00    +0.043 A 
ATOM     15  N   UNL     1       5.666   7.610   2.243  0.00  0.00    -0.380 N 
ATOM     16  C   UNL     1       6.008   6.278   1.732  0.00  0.00    +0.144 C 
ATOM     17  F   UNL     1       3.107   6.343   6.913  0.00  0.00    -0.205 F 
ATOM     18  H   UNL     1       5.874   8.453   1.810  0.00  0.00    +0.160 HD
ENDBRANCH   7   8
ENDBRANCH   6   7
ENDBRANCH   4   6
ENDBRANCH   1   2
BRANCH   1  19
ATOM     19  O   UNL     1       2.505  -0.944   0.379  0.00  0.00    -0.482 OA
BRANCH  19  27
ATOM     20  C   UNL     1       0.147  -2.091  -0.720  0.00  0.00    -0.026 A 
ATOM     21  C   UNL     1      -0.928  -2.733  -1.248  0.00  0.00    +0.096 A 
ATOM     22  C   UNL     1      -0.873  -4.124  -1.472  0.00  0.00    +0.337 A 
ATOM     23  O   UNL     1      -1.843  -4.688  -1.946  0.00  0.00    -0.245 OA
ATOM     24  O   UNL     1       0.221  -4.843  -1.177  0.00  0.00    -0.422 OA
ATOM     25  C   UNL     1       1.323  -4.266  -0.649  0.00  0.00    +0.143 A 
ATOM     26  C   UNL     1       1.338  -2.881  -0.406  0.00  0.00    +0.062 A 
ATOM     27  C   UNL     1       2.484  -2.279   0.137  0.00  0.00    +0.132 A 
ATOM     28  C   UNL     1       3.591  -3.057   0.422  0.00  0.00    +0.050 A 
ATOM     29  C   UNL     1       3.570  -4.420   0.174  0.00  0.00    -0.043 A 
ATOM     30  C   UNL     1       2.445  -5.025  -0.349  0.00  0.00    +0.050 A 
ATOM     31  C   UNL     1       4.785  -5.253   0.491  0.00  0.00    +0.044 C 
BRANCH  20  32
ATOM     32  C   UNL     1       0.115  -0.605  -0.471  0.00  0.00    +0.036 C 
BRANCH  32  34
ATOM     33  C   UNL     1      -0.408   1.165   1.212  0.00  0.00    +0.004 C 
ATOM     34  C   UNL     1      -0.259  -0.341   0.989  0.00  0.00    +0.001 C 
ENDBRANCH  32  34
ENDBRANCH  20  32
ENDBRANCH  19  27
ENDBRANCH   1  19
TORSDOF 8
