REMARK  Name = ZINC59210849
REMARK  12 active torsions:
REMARK  status: ('A' for Active; 'I' for Inactive)
REMARK    1  A    between atoms: C_1  and  C_2
REMARK    2  A    between atoms: C_2  and  O_3
REMARK    3  A    between atoms: O_3  and  C_4
REMARK    4  A    between atoms: C_6  and  C_19
REMARK    5  A    between atoms: C_9  and  O_10
REMARK    6  A    between atoms: O_10  and  C_11
REMARK    7  A    between atoms: C_11  and  C_12
REMARK    8  A    between atoms: C_21  and  C_28
REMARK    9  A    between atoms: C_22  and  C_27
REMARK   10  A    between atoms: N_30  and  C_31
REMARK   11  A    between atoms: C_34  and  C_38
REMARK   12  A    between atoms: C_36  and  C_37
REMARK                            x       y       z     vdW  Elec       q    Type
REMARK                         _______ _______ _______ _____ _____    ______ ____
ROOT
ATOM      1  C   UNL     1       0.123  -4.313   0.139  0.00  0.00    +0.139 C 
ATOM      2  C   UNL     1       0.933  -4.618  -1.105  0.00  0.00    +0.056 C 
ATOM      3  C   UNL     1       1.265  -5.905  -1.339  0.00  0.00    +0.017 C 
ATOM      4  N   UNL     1       0.884  -6.898  -0.483  0.00  0.00    -0.300 N 
ATOM      5  C   UNL     1       0.170  -6.686   0.629  0.00  0.00    +0.135 C 
ATOM      6  S   UNL     1      -0.242  -8.023   1.617  0.00  0.00    -0.019 S 
ATOM      7  N   UNL     1      -0.237  -5.455   0.996  0.00  0.00    -0.315 N 
ATOM      8  C   UNL     1       2.069  -6.252  -2.566  0.00  0.00    +0.061 C 
ATOM      9  H   UNL     1       1.146  -7.809  -0.692  0.00  0.00    +0.154 HD
ATOM     10  H   UNL     1      -0.754  -5.324   1.806  0.00  0.00    +0.149 HD
ENDROOT
BRANCH   1  13
ATOM     11  C   UNL     1      -2.433  -1.634  -0.610  0.00  0.00    +0.162 A 
ATOM     12  C   UNL     1      -1.261  -2.259  -0.215  0.00  0.00    +0.055 A 
ATOM     13  C   UNL     1      -1.152  -3.635  -0.291  0.00  0.00    -0.019 A 
ATOM     14  C   UNL     1      -2.210  -4.390  -0.762  0.00  0.00    +0.009 A 
ATOM     15  C   UNL     1      -3.382  -3.772  -1.158  0.00  0.00    +0.050 A 
ATOM     16  C   UNL     1      -3.500  -2.394  -1.078  0.00  0.00    +0.162 A 
BRANCH  11  17
ATOM     17  O   UNL     1      -2.541  -0.280  -0.535  0.00  0.00    -0.489 OA
BRANCH  17  19
ATOM     18  C   UNL     1      -1.654   1.946  -0.223  0.00  0.00    +0.048 C 
ATOM     19  C   UNL     1      -1.372   0.444  -0.147  0.00  0.00    +0.226 C 
ENDBRANCH  17  19
ENDBRANCH  11  17
BRANCH  16  20
ATOM     20  O   UNL     1      -4.654  -1.786  -1.462  0.00  0.00    -0.484 OA
BRANCH  20  21
ATOM     21  C   UNL     1      -5.707  -2.629  -1.931  0.00  0.00    +0.264 C 
BRANCH  21  22
ATOM     22  C   UNL     1      -6.897  -1.785  -2.308  0.00  0.00    -0.010 A 
ATOM     23  C   UNL     1      -7.861  -1.489  -1.363  0.00  0.00    +0.010 A 
ATOM     24  C   UNL     1      -8.952  -0.714  -1.707  0.00  0.00    +0.039 A 
ATOM     25  C   UNL     1      -9.080  -0.234  -3.000  0.00  0.00    +0.123 A 
ATOM     26  C   UNL     1      -8.114  -0.532  -3.946  0.00  0.00    +0.039 A 
ATOM     27  C   UNL     1      -7.021  -1.302  -3.598  0.00  0.00    +0.010 A 
ATOM     28  F   UNL     1     -10.147   0.523  -3.337  0.00  0.00    -0.205 F 
ENDBRANCH  21  22
ENDBRANCH  20  21
ENDBRANCH  16  20
ENDBRANCH   1  13
BRANCH   2  29
ATOM     29  C   UNL     1       1.327  -3.587  -1.993  0.00  0.00    +0.248 C 
ATOM     30  O   UNL     1       2.291  -2.892  -1.730  0.00  0.00    -0.270 OA
ATOM     31  N   UNL     1       0.634  -3.376  -3.130  0.00  0.00    -0.281 N 
ATOM     32  H   UNL     1      -0.174  -3.881  -3.307  0.00  0.00    +0.155 HD
BRANCH  31  33
ATOM     33  C   UNL     1       1.081  -2.427  -4.055  0.00  0.00    +0.037 A 
ATOM     34  C   UNL     1       2.401  -1.995  -4.026  0.00  0.00    +0.024 A 
ATOM     35  C   UNL     1       2.840  -1.058  -4.941  0.00  0.00    +0.005 A 
ATOM     36  C   UNL     1       1.966  -0.549  -5.884  0.00  0.00    -0.050 A 
ATOM     37  C   UNL     1       0.652  -0.976  -5.915  0.00  0.00    +0.008 A 
ATOM     38  C   UNL     1       0.208  -1.918  -5.008  0.00  0.00    -0.029 A 
ATOM     39  C   UNL     1      -1.223  -2.389  -5.047  0.00  0.00    +0.045 C 
ATOM     40  C   UNL     1       2.448   0.474  -6.881  0.00  0.00    +0.044 C 
ENDBRANCH  31  33
ENDBRANCH   2  29
TORSDOF 8
