REMARK  Name = ZINC27656903
REMARK  16 active torsions:
REMARK  status: ('A' for Active; 'I' for Inactive)
REMARK    1  A    between atoms: C_1  and  C_2
REMARK    2  A    between atoms: C_2  and  O_3
REMARK    3  A    between atoms: O_3  and  C_4
REMARK    4  A    between atoms: C_6  and  C_28
REMARK    5  A    between atoms: C_8  and  C_24
REMARK    6  A    between atoms: C_9  and  C_23
REMARK    7  A    between atoms: C_11  and  C_12
REMARK    8  A    between atoms: C_12  and  O_13
REMARK    9  A    between atoms: O_13  and  C_14
REMARK   10  A    between atoms: C_14  and  C_15
REMARK   11  A    between atoms: C_15  and  N_16
REMARK   12  A    between atoms: N_16  and  C_17
REMARK   13  A    between atoms: C_17  and  C_19
REMARK   14  A    between atoms: C_17  and  C_20
REMARK   15  A    between atoms: C_24  and  O_26
REMARK   16  A    between atoms: O_26  and  C_27
REMARK                            x       y       z     vdW  Elec       q    Type
REMARK                         _______ _______ _______ _____ _____    ______ ____
ROOT
ATOM      1  C   UNL     1       0.815  -1.825   1.290  0.00  0.00    +0.338 C 
ATOM      2  C   UNL     1       1.459  -2.343   2.392  0.00  0.00    +0.072 C 
ATOM      3  C   UNL     1       1.832  -3.813   2.474  0.00  0.00    +0.098 C 
ATOM      4  C   UNL     1       2.538  -4.247   3.745  0.00  0.00    +0.069 C 
ATOM      5  C   UNL     1       2.774  -3.294   4.694  0.00  0.00    +0.049 C 
ATOM      6  N   UNL     1       2.412  -2.030   4.536  0.00  0.00    -0.253 NA
ATOM      7  C   UNL     1       1.802  -1.540   3.481  0.00  0.00    +0.078 C 
ATOM      8  C   UNL     1       3.474  -3.695   5.967  0.00  0.00    +0.066 C 
ATOM      9  O   UNL     1       0.497  -2.628   0.256  0.00  0.00    -0.245 OA
ENDROOT
BRANCH   3  10
ATOM     10  C   UNL     1       0.571  -4.627   2.339  0.00  0.00    -0.017 A 
ATOM     11  C   UNL     1      -0.455  -4.468   3.251  0.00  0.00    +0.006 A 
ATOM     12  C   UNL     1      -1.612  -5.215   3.127  0.00  0.00    +0.000 A 
ATOM     13  C   UNL     1      -1.743  -6.121   2.091  0.00  0.00    +0.001 A 
ATOM     14  C   UNL     1      -0.717  -6.281   1.179  0.00  0.00    +0.020 A 
ATOM     15  C   UNL     1       0.438  -5.530   1.299  0.00  0.00    +0.045 A 
ATOM     16 CL   UNL     1       1.724  -5.725   0.149  0.00  0.00    -0.083 Cl
ENDBRANCH   3  10
BRANCH   4  17
ATOM     17  C   UNL     1       2.934  -5.582   3.939  0.00  0.00    +0.338 C 
ATOM     18  O   UNL     1       3.600  -5.884   4.913  0.00  0.00    -0.245 OA
BRANCH  17  19
ATOM     19  O   UNL     1       2.576  -6.529   3.046  0.00  0.00    -0.465 OA
ATOM     20  C   UNL     1       3.013  -7.865   3.306  0.00  0.00    +0.280 C 
ENDBRANCH  17  19
ENDBRANCH   4  17
BRANCH   1  21
ATOM     21  O   UNL     1       0.502  -0.515   1.247  0.00  0.00    -0.462 OA
BRANCH  21  23
ATOM     22  C   UNL     1      -0.435   1.454   0.206  0.00  0.00    +0.048 C 
ATOM     23  C   UNL     1      -0.165  -0.046   0.074  0.00  0.00    +0.229 C 
ENDBRANCH  21  23
ENDBRANCH   1  21
BRANCH   7  24
ATOM     24  C   UNL     1       1.459  -0.072   3.447  0.00  0.00    +0.215 C 
BRANCH  24  25
ATOM     25  O   UNL     1       1.901   0.548   4.656  0.00  0.00    -0.376 OA
BRANCH  25  26
ATOM     26  C   UNL     1       1.623   1.948   4.726  0.00  0.00    +0.141 C 
BRANCH  26  27
ATOM     27  C   UNL     1       2.137   2.504   6.055  0.00  0.00    -0.053 C 
BRANCH  27  28
ATOM     28  N   UNL     1       3.601   2.396   6.098  0.00  0.00    +0.388 N 
ATOM     29  H   UNL     1       3.870   1.427   6.012  0.00  0.00    -0.085 HD
ATOM     30  H   UNL     1       4.000   2.924   5.336  0.00  0.00    -0.085 HD
BRANCH  28  31
ATOM     31  C   UNL     1       4.095   2.930   7.374  0.00  0.00    +0.013 C 
ATOM     32  C   UNL     1       3.591   2.054   8.523  0.00  0.00    -0.004 C 
BRANCH  31  33
ATOM     33  C   UNL     1       5.602   2.933   7.369  0.00  0.00    +0.196 C 
ATOM     34  O   UNL     1       6.205   2.530   6.397  0.00  0.00    -0.278 OA
ATOM     35  N   UNL     1       6.279   3.384   8.443  0.00  0.00    -0.331 N 
ATOM     36  H   UNL     1       5.796   3.706   9.220  0.00  0.00    +0.145 HD
ATOM     37  H   UNL     1       7.249   3.385   8.440  0.00  0.00    +0.145 HD
ENDBRANCH  31  33
ENDBRANCH  28  31
ENDBRANCH  27  28
ENDBRANCH  26  27
ENDBRANCH  25  26
ENDBRANCH  24  25
ENDBRANCH   7  24
TORSDOF 12
