REMARK  Name = ZINC06322006
REMARK  12 active torsions:
REMARK  status: ('A' for Active; 'I' for Inactive)
REMARK    1  A    between atoms: C_1  and  C_2
REMARK    2  A    between atoms: C_5  and  C_37
REMARK    3  A    between atoms: C_9  and  C_14
REMARK    4  A    between atoms: C_14  and  N_68
REMARK    5  A    between atoms: C_15  and  C_16
REMARK    6  A    between atoms: C_15  and  N_68
REMARK    7  A    between atoms: N_20  and  C_21
REMARK    8  A    between atoms: C_21  and  C_22
REMARK    9  A    between atoms: C_25  and  O_28
REMARK   10  A    between atoms: O_28  and  C_29
REMARK   11  A    between atoms: C_30  and  C_31
REMARK   12  A    between atoms: C_30  and  N_68
REMARK                            x       y       z     vdW  Elec       q    Type
REMARK                         _______ _______ _______ _____ _____    ______ ____
ROOT
ATOM      1  N   UNL     1      -0.577   0.716  -1.472  0.00  0.00    +0.389 N 
ATOM      2  H   UNL     1      -1.561   0.476  -1.641  0.00  0.00    -0.081 HD
ENDROOT
BRANCH   1   3
ATOM      3  C   UNL     1      -0.165   0.164  -0.164  0.00  0.00    -0.037 C 
BRANCH   3  12
ATOM      4  C   UNL     1      -4.526  -1.796   1.901  0.00  0.00    +0.044 C 
ATOM      5  C   UNL     1      -4.269  -0.470   2.571  0.00  0.00    -0.041 A 
ATOM      6  C   UNL     1      -5.127  -0.009   3.530  0.00  0.00    +0.004 A 
ATOM      7  C   UNL     1      -4.900   1.211   4.152  0.00  0.00    +0.005 A 
ATOM      8  C   UNL     1      -3.807   1.980   3.815  0.00  0.00    -0.026 A 
ATOM      9  C   UNL     1      -2.921   1.531   2.842  0.00  0.00    +0.052 A 
ATOM     10  C   UNL     1      -3.154   0.293   2.213  0.00  0.00    +0.002 A 
ATOM     11  C   UNL     1      -2.218  -0.168   1.186  0.00  0.00    +0.017 A 
ATOM     12  C   UNL     1      -1.151   0.612   0.885  0.00  0.00    +0.001 A 
ATOM     13  C   UNL     1      -0.962   1.845   1.545  0.00  0.00    +0.251 A 
ATOM     14  O   UNL     1       0.001   2.533   1.256  0.00  0.00    -0.268 OA
ATOM     15  N   UNL     1      -1.819   2.280   2.486  0.00  0.00    -0.322 N 
ATOM     16  H   UNL     1      -1.660   3.133   2.920  0.00  0.00    +0.169 HD
ATOM     17  C   UNL     1      -3.574   3.303   4.498  0.00  0.00    +0.046 C 
ENDBRANCH   3  12
ENDBRANCH   1   3
BRANCH   1  18
ATOM     18  C   UNL     1       0.251   0.134  -2.549  0.00  0.00    +0.001 C 
BRANCH  18  19
ATOM     19  C   UNL     1      -0.417   0.404  -3.873  0.00  0.00    +0.135 A 
ATOM     20  N   UNL     1      -0.118   1.357  -4.721  0.00  0.00    -0.115 NA
ATOM     21  N   UNL     1      -0.912   1.256  -5.730  0.00  0.00    -0.023 NA
ATOM     22  N   UNL     1      -1.711   0.263  -5.548  0.00  0.00    -0.044 NA
ATOM     23  N   UNL     1      -1.433  -0.292  -4.416  0.00  0.00    -0.227 N 
BRANCH  23  24
ATOM     24  C   UNL     1      -2.101  -1.457  -3.831  0.00  0.00    +0.182 C 
BRANCH  24  25
ATOM     25  C   UNL     1      -3.381  -1.021  -3.166  0.00  0.00    -0.026 A 
ATOM     26  C   UNL     1      -3.360  -0.570  -1.859  0.00  0.00    +0.009 A 
ATOM     27  C   UNL     1      -4.531  -0.164  -1.248  0.00  0.00    +0.046 A 
ATOM     28  C   UNL     1      -5.730  -0.220  -1.944  0.00  0.00    +0.120 A 
ATOM     29  C   UNL     1      -5.749  -0.678  -3.253  0.00  0.00    +0.046 A 
ATOM     30  C   UNL     1      -4.575  -1.078  -3.861  0.00  0.00    +0.009 A 
BRANCH  28  31
ATOM     31  O   UNL     1      -6.884   0.174  -1.344  0.00  0.00    -0.495 OA
ATOM     32  C   UNL     1      -6.775   0.741  -0.037  0.00  0.00    +0.277 C 
ENDBRANCH  28  31
ENDBRANCH  24  25
ENDBRANCH  23  24
ENDBRANCH  18  19
ENDBRANCH   1  18
BRANCH   1  33
ATOM     33  C   UNL     1      -0.436   2.188  -1.466  0.00  0.00    -0.046 C 
BRANCH  33  34
ATOM     34  C   UNL     1      -1.388   2.773  -2.511  0.00  0.00    +0.102 C 
ATOM     35  C   UNL     1      -1.196   4.303  -2.616  0.00  0.00    +0.032 C 
ATOM     36  C   UNL     1      -2.625   4.846  -2.839  0.00  0.00    +0.030 C 
ATOM     37  C   UNL     1      -3.511   3.581  -2.843  0.00  0.00    +0.160 C 
ATOM     38  O   UNL     1      -2.760   2.602  -2.093  0.00  0.00    -0.378 OA
ENDBRANCH  33  34
ENDBRANCH   1  33
TORSDOF 9
