REMARK  Name = ZINC28289485
REMARK  11 active torsions:
REMARK  status: ('A' for Active; 'I' for Inactive)
REMARK    1  A    between atoms: C_1  and  C_2
REMARK    2  A    between atoms: C_2  and  C_3
REMARK    3  A    between atoms: C_12  and  C_14
REMARK    4  A    between atoms: N_16  and  C_17
REMARK    5  A    between atoms: C_17  and  C_18
REMARK    6  A    between atoms: C_18  and  C_20
REMARK    7  A    between atoms: C_18  and  N_30
REMARK    8  A    between atoms: C_23  and  C_26
REMARK    9  A    between atoms: C_26  and  C_27
REMARK   10  A    between atoms: C_26  and  C_28
REMARK   11  A    between atoms: C_26  and  C_29
REMARK                            x       y       z     vdW  Elec       q    Type
REMARK                         _______ _______ _______ _____ _____    ______ ____
ROOT
ATOM      1  C   UNL     1      -3.540   0.436  -0.995  0.00  0.00    +0.094 C 
ENDROOT
BRANCH   1   4
ATOM      2  C   UNL     1      -5.548  -0.944  -0.992  0.00  0.00    +0.279 C 
ATOM      3  O   UNL     1      -5.699  -0.677  -2.167  0.00  0.00    -0.267 OA
ATOM      4  N   UNL     1      -4.499  -0.438  -0.314  0.00  0.00    -0.310 N 
ATOM      5  H   UNL     1      -4.363  -0.680   0.750  0.00  0.00    +0.149 HD
BRANCH   2  15
ATOM      6  C   UNL     1      -8.867  -4.534   3.160  0.00  0.00    -0.047 A 
ATOM      7  C   UNL     1      -7.757  -3.964   3.768  0.00  0.00    +0.007 A 
ATOM      8  C   UNL     1      -6.903  -3.151   3.054  0.00  0.00    +0.047 A 
ATOM      9  C   UNL     1      -7.151  -2.898   1.709  0.00  0.00    +0.139 A 
ATOM     10  C   UNL     1      -8.277  -3.479   1.101  0.00  0.00    +0.064 A 
ATOM     11  C   UNL     1      -9.130  -4.299   1.839  0.00  0.00    +0.019 A 
ATOM     12  C   UNL     1      -8.527  -3.200  -0.326  0.00  0.00    +0.193 A 
ATOM     13  O   UNL     1      -9.485  -3.673  -0.911  0.00  0.00    -0.287 OA
ATOM     14  C   UNL     1      -7.563  -2.323  -1.008  0.00  0.00    +0.103 A 
ATOM     15  C   UNL     1      -6.518  -1.828  -0.303  0.00  0.00    +0.193 A 
ATOM     16  O   UNL     1      -6.324  -2.111   0.994  0.00  0.00    -0.450 OA
BRANCH   6  18
ATOM     17  C   UNL     1     -10.889  -4.568   4.596  0.00  0.00    +0.009 C 
ATOM     18  C   UNL     1      -9.787  -5.419   3.961  0.00  0.00    +0.032 C 
ENDBRANCH   6  18
ENDBRANCH   2  15
ENDBRANCH   1   4
BRANCH   1  19
ATOM     19  C   UNL     1      -2.558   1.010   0.028  0.00  0.00    -0.020 C 
BRANCH  19  20
ATOM     20  C   UNL     1      -1.442   1.722  -0.693  0.00  0.00    -0.059 A 
ATOM     21  C   UNL     1      -0.166   1.191  -0.688  0.00  0.00    +0.002 A 
ATOM     22  C   UNL     1       0.856   1.841  -1.353  0.00  0.00    +0.004 A 
ATOM     23  C   UNL     1       0.604   3.026  -2.019  0.00  0.00    -0.042 A 
ATOM     24  C   UNL     1      -0.671   3.560  -2.019  0.00  0.00    +0.004 A 
ATOM     25  C   UNL     1      -1.694   2.910  -1.354  0.00  0.00    +0.002 A 
BRANCH  23  26
ATOM     26  C   UNL     1       1.718   3.735  -2.745  0.00  0.00    -0.013 C 
ATOM     27  C   UNL     1       2.286   2.817  -3.829  0.00  0.00    +0.015 C 
ATOM     28  C   UNL     1       1.174   5.011  -3.392  0.00  0.00    +0.015 C 
ATOM     29  C   UNL     1       2.824   4.098  -1.752  0.00  0.00    +0.015 C 
ENDBRANCH  23  26
ENDBRANCH  19  20
BRANCH  19  30
ATOM     30  N   UNL     1      -3.260   1.958   0.903  0.00  0.00    +0.385 N 
ATOM     31  C   UNL     1      -4.295   1.268   1.714  0.00  0.00    -0.078 C 
ATOM     32  C   UNL     1      -4.535   2.247   2.890  0.00  0.00    -0.020 C 
ATOM     33  C   UNL     1      -3.119   2.797   3.177  0.00  0.00    -0.020 C 
ATOM     34  C   UNL     1      -2.329   2.571   1.875  0.00  0.00    -0.078 C 
ATOM     35  H   UNL     1      -3.699   2.713   0.234  0.00  0.00    -0.081 HD
ENDBRANCH  19  30
ENDBRANCH   1  19
TORSDOF 7
