REMARK  Name = ZINC38905620
REMARK  5 active torsions:
REMARK  status: ('A' for Active; 'I' for Inactive)
REMARK    1  A    between atoms: C_10  and  N_12
REMARK    2  A    between atoms: C_13  and  C_15
REMARK    3  A    between atoms: N_20  and  C_22
REMARK    4  A    between atoms: C_22  and  C_23
REMARK    5  A    between atoms: C_25  and  C_28
REMARK                            x       y       z     vdW  Elec       q    Type
REMARK                         _______ _______ _______ _____ _____    ______ ____
ROOT
ATOM      1  C   UNL     1       6.269   1.814   1.377  0.00  0.00    +0.058 C 
ATOM      2  C   UNL     1       5.487   2.322   2.593  0.00  0.00    +0.009 C 
ATOM      3  C   UNL     1       6.433   3.112   3.502  0.00  0.00    -0.018 C 
ATOM      4  C   UNL     1       7.067   4.252   2.702  0.00  0.00    -0.078 C 
ATOM      5  N   UNL     1       7.821   3.700   1.570  0.00  0.00    +0.386 N 
ATOM      6  C   UNL     1       6.909   3.002   0.656  0.00  0.00    -0.065 C 
ATOM      7  H   UNL     1       8.514   3.051   1.913  0.00  0.00    -0.081 HD
ENDROOT
BRANCH   1   9
ATOM      8  N   UNL     1       4.649   0.018   0.860  0.00  0.00    -0.308 N 
ATOM      9  C   UNL     1       5.330   1.101   0.438  0.00  0.00    +0.215 C 
ATOM     10  O   UNL     1       5.189   1.502  -0.698  0.00  0.00    -0.276 OA
ATOM     11  H   UNL     1       4.762  -0.302   1.769  0.00  0.00    +0.149 HD
BRANCH   8  21
ATOM     12  C   UNL     1      -0.017   1.375   0.010  0.00  0.00    +0.000 A 
ATOM     13  C   UNL     1       1.174   2.078   0.002  0.00  0.00    +0.000 A 
ATOM     14  C   UNL     1       2.372   1.395  -0.016  0.00  0.00    +0.006 A 
ATOM     15  C   UNL     1       2.393   0.006  -0.025  0.00  0.00    -0.024 A 
ATOM     16  C   UNL     1       1.208  -0.694  -0.013  0.00  0.00    -0.042 A 
ATOM     17  C   UNL     1       0.002  -0.004   0.002  0.00  0.00    +0.004 A 
ATOM     18  C   UNL     1       1.155  -2.199  -0.005  0.00  0.00    +0.035 C 
ATOM     19  C   UNL     1       2.493  -2.786  -0.452  0.00  0.00    +0.007 C 
ATOM     20  C   UNL     1       3.607  -2.135   0.376  0.00  0.00    +0.027 C 
ATOM     21  C   UNL     1       3.736  -0.675  -0.053  0.00  0.00    +0.103 C 
ENDBRANCH   8  21
ENDBRANCH   1   9
BRANCH   5  22
ATOM     22  C   UNL     1       8.491   4.792   0.851  0.00  0.00    +0.022 C 
BRANCH  22  23
ATOM     23  C   UNL     1       9.524   5.425   1.748  0.00  0.00    +0.211 A 
ATOM     24  N   UNL     1      10.773   5.068   1.841  0.00  0.00    -0.193 NA
ATOM     25  C   UNL     1      11.409   5.846   2.736  0.00  0.00    +0.202 A 
ATOM     26  N   UNL     1      10.553   6.712   3.220  0.00  0.00    -0.056 NA
ATOM     27  O   UNL     1       9.313   6.454   2.580  0.00  0.00    -0.340 OA
BRANCH  25  28
ATOM     28  C   UNL     1      12.841   5.740   3.111  0.00  0.00    +0.023 A 
ATOM     29  C   UNL     1      13.650   4.774   2.516  0.00  0.00    +0.013 A 
ATOM     30  C   UNL     1      14.981   4.680   2.869  0.00  0.00    +0.016 A 
ATOM     31  C   UNL     1      15.512   5.542   3.813  0.00  0.00    +0.018 A 
ATOM     32  C   UNL     1      14.712   6.503   4.407  0.00  0.00    +0.016 A 
ATOM     33  C   UNL     1      13.381   6.610   4.056  0.00  0.00    +0.013 A 
ATOM     34 BR   UNL     1      17.336   5.407   4.292  0.00  0.00    -0.050 Br
ENDBRANCH  25  28
ENDBRANCH  22  23
ENDBRANCH   5  22
TORSDOF 5
