REMARK  Name = ZINC16744614
REMARK  6 active torsions:
REMARK  status: ('A' for Active; 'I' for Inactive)
REMARK    1  A    between atoms: C_4  and  N_7
REMARK    2  A    between atoms: C_8  and  C_10
REMARK    3  A    between atoms: C_15  and  O_16
REMARK    4  A    between atoms: O_16  and  C_17
REMARK    5  A    between atoms: C_17  and  C_18
REMARK    6  A    between atoms: C_28  and  N_30
REMARK                            x       y       z     vdW  Elec       q    Type
REMARK                         _______ _______ _______ _____ _____    ______ ____
ROOT
ATOM      1  O   UNL     1      -1.442   7.387   0.611  0.00  0.00    -0.482 OA
ENDROOT
BRANCH   1   7
ATOM      2  C   UNL     1      -0.650   9.366   1.692  0.00  0.00    +0.079 A 
ATOM      3  C   UNL     1       0.409  10.080   2.258  0.00  0.00    +0.017 A 
ATOM      4  C   UNL     1       1.670   9.525   2.291  0.00  0.00    +0.001 A 
ATOM      5  C   UNL     1       1.893   8.262   1.766  0.00  0.00    +0.004 A 
ATOM      6  C   UNL     1       0.854   7.544   1.210  0.00  0.00    +0.046 A 
ATOM      7  C   UNL     1      -0.421   8.089   1.162  0.00  0.00    +0.133 A 
BRANCH   2   9
ATOM      8  N   UNL     1      -2.219  11.182   2.164  0.00  0.00    -0.281 N 
ATOM      9  C   UNL     1      -2.003   9.953   1.653  0.00  0.00    +0.252 C 
ATOM     10  O   UNL     1      -2.923   9.329   1.161  0.00  0.00    -0.270 OA
ATOM     11  H   UNL     1      -1.473  11.711   2.487  0.00  0.00    +0.155 HD
BRANCH   8  15
ATOM     12  C   UNL     1      -6.091  12.707   2.353  0.00  0.00    +0.000 A 
ATOM     13  C   UNL     1      -5.875  11.350   2.510  0.00  0.00    +0.002 A 
ATOM     14  C   UNL     1      -4.593  10.841   2.448  0.00  0.00    +0.023 A 
ATOM     15  C   UNL     1      -3.519  11.694   2.227  0.00  0.00    +0.034 A 
ATOM     16  C   UNL     1      -3.738  13.057   2.076  0.00  0.00    +0.023 A 
ATOM     17  C   UNL     1      -5.024  13.558   2.132  0.00  0.00    +0.002 A 
ENDBRANCH   8  15
ENDBRANCH   2   9
ENDBRANCH   1   7
BRANCH   1  18
ATOM     18  C   UNL     1      -1.133   6.092   0.091  0.00  0.00    +0.325 C 
BRANCH  18  19
ATOM     19  C   UNL     1      -2.381   5.467  -0.477  0.00  0.00    +0.257 C 
ATOM     20  O   UNL     1      -3.410   6.107  -0.527  0.00  0.00    -0.272 OA
ATOM     21  N   UNL     1      -2.353   4.198  -0.929  0.00  0.00    -0.268 N 
ATOM     22  C   UNL     1      -1.087   3.456  -0.995  0.00  0.00    +0.114 C 
ATOM     23  C   UNL     1      -1.036   2.735  -2.349  0.00  0.00    +0.024 C 
ATOM     24  C   UNL     1      -2.178   1.721  -2.411  0.00  0.00    +0.038 C 
ATOM     25  C   UNL     1      -3.487   2.375  -2.056  0.00  0.00    -0.024 A 
ATOM     26  C   UNL     1      -3.533   3.563  -1.343  0.00  0.00    +0.040 A 
ATOM     27  C   UNL     1      -4.758   4.139  -1.029  0.00  0.00    +0.026 A 
ATOM     28  C   UNL     1      -5.931   3.532  -1.431  0.00  0.00    +0.034 A 
ATOM     29  C   UNL     1      -5.884   2.351  -2.150  0.00  0.00    +0.127 A 
ATOM     30  C   UNL     1      -4.668   1.777  -2.463  0.00  0.00    +0.038 A 
BRANCH  29  31
ATOM     31  N   UNL     1      -7.141   1.701  -2.583  0.00  0.00    +0.056 N 
ATOM     32  O   UNL     1      -7.102   0.660  -3.215  0.00  0.00    -0.126 OA
ATOM     33  O   UNL     1      -8.215   2.206  -2.307  0.00  0.00    -0.126 OA
ENDBRANCH  29  31
ENDBRANCH  18  19
ENDBRANCH   1  18
TORSDOF 6
