REMARK  Name = ZINC09453406
REMARK  5 active torsions:
REMARK  status: ('A' for Active; 'I' for Inactive)
REMARK    1  A    between atoms: C_1  and  C_2
REMARK    2  A    between atoms: N_30  and  C_33
REMARK    3  A    between atoms: C_33  and  C_34
REMARK    4  A    between atoms: C_34  and  C_35
REMARK    5  A    between atoms: C_34  and  C_36
REMARK                            x       y       z     vdW  Elec       q    Type
REMARK                         _______ _______ _______ _____ _____    ______ ____
ROOT
ATOM      1  C   UNL     1      -0.018   1.503   0.010  0.00  0.00    +0.047 C 
ATOM      2  C   UNL     1       0.002  -0.004   0.002  0.00  0.00    -0.009 A 
ATOM      3  C   UNL     1       0.006  -0.685  -1.178  0.00  0.00    +0.008 A 
ATOM      4  C   UNL     1       0.026  -2.087  -1.167  0.00  0.00    +0.019 A 
ATOM      5  C   UNL     1       0.048  -2.758   0.006  0.00  0.00    +0.096 A 
ATOM      6  N   UNL     1       0.050  -2.087   1.194  0.00  0.00    -0.269 N 
ATOM      7  C   UNL     1       0.023  -0.720   1.213  0.00  0.00    +0.122 A 
ATOM      8  N   UNL     1      -0.002  -0.055   2.369  0.00  0.00    -0.329 N 
ATOM      9  C   UNL     1       0.029  -0.705   3.518  0.00  0.00    +0.109 A 
ATOM     10  C   UNL     1       0.108  -2.098   3.561  0.00  0.00    +0.057 A 
ATOM     11  C   UNL     1       0.090  -2.787   2.348  0.00  0.00    +0.263 A 
ATOM     12  O   UNL     1       0.128  -4.008   2.330  0.00  0.00    -0.267 OA
ATOM     13  C   UNL     1       0.240  -2.838   4.851  0.00  0.00    +0.072 C 
ATOM     14  C   UNL     1      -0.229  -2.084   6.089  0.00  0.00    +0.150 C 
ATOM     15  C   UNL     1      -0.878  -0.746   5.732  0.00  0.00    +0.129 C 
ATOM     16  N   UNL     1      -0.049  -0.059   4.747  0.00  0.00    -0.307 N 
ATOM     17  C   UNL     1       0.672   1.167   5.003  0.00  0.00    +0.112 C 
ATOM     18  C   UNL     1      -0.078   2.112   5.920  0.00  0.00    +0.054 C 
ATOM     19  C   UNL     1      -0.756   1.395   7.051  0.00  0.00    -0.041 A 
ATOM     20  C   UNL     1      -1.117   0.080   6.956  0.00  0.00    -0.022 A 
ATOM     21  C   UNL     1      -1.745  -0.519   8.041  0.00  0.00    +0.006 A 
ATOM     22  C   UNL     1      -1.980   0.194   9.198  0.00  0.00    +0.000 A 
ATOM     23  C   UNL     1      -1.587   1.517   9.282  0.00  0.00    +0.000 A 
ATOM     24  C   UNL     1      -1.004   2.102   8.220  0.00  0.00    +0.004 A 
ATOM     25  C   UNL     1      -1.240  -2.930   6.821  0.00  0.00    +0.238 C 
ATOM     26  O   UNL     1      -2.267  -3.236   6.254  0.00  0.00    -0.274 OA
ATOM     27  N   UNL     1      -1.042  -3.355   8.074  0.00  0.00    -0.239 N 
ATOM     28  C   UNL     1       0.069  -3.054   8.762  0.00  0.00    +0.315 C 
ATOM     29  N   UNL     1       1.042  -2.305   8.223  0.00  0.00    -0.225 N 
ATOM     30  C   UNL     1       0.960  -1.821   6.978  0.00  0.00    +0.241 C 
ATOM     31  O   UNL     1       1.873  -1.147   6.551  0.00  0.00    -0.274 OA
ATOM     32  O   UNL     1       0.198  -3.470   9.897  0.00  0.00    -0.252 OA
ATOM     33  H   UNL     1      -1.725  -3.898   8.499  0.00  0.00    +0.159 HD
ATOM     34  H   UNL     1      -0.042   0.914   2.365  0.00  0.00    +0.168 HD
ENDROOT
BRANCH  29  35
ATOM     35  C   UNL     1       2.232  -2.006   9.022  0.00  0.00    +0.121 C 
BRANCH  35  36
ATOM     36  C   UNL     1       3.285  -3.092   8.796  0.00  0.00    +0.001 C 
ATOM     37  C   UNL     1       4.573  -2.716   9.531  0.00  0.00    +0.009 C 
ATOM     38  C   UNL     1       2.763  -4.427   9.331  0.00  0.00    +0.009 C 
ENDBRANCH  35  36
ENDBRANCH  29  35
TORSDOF 2
