REMARK  Name = ZINC13655812
REMARK  4 active torsions:
REMARK  status: ('A' for Active; 'I' for Inactive)
REMARK    1  A    between atoms: C_1  and  C_2
REMARK    2  A    between atoms: C_2  and  C_4
REMARK    3  A    between atoms: C_2  and  N_7
REMARK    4  A    between atoms: C_8  and  C_14
REMARK                            x       y       z     vdW  Elec       q    Type
REMARK                         _______ _______ _______ _____ _____    ______ ____
ROOT
ATOM      1  N   UNL     1      -1.372  -0.511   0.012  0.00  0.00    -0.291 N 
ATOM      2  C   UNL     1      -1.941  -1.311  -0.948  0.00  0.00    +0.163 A 
ATOM      3  H   UNL     1      -4.261  -0.927   1.096  0.00  0.00    +0.191 HD
ATOM      4  N   UNL     1      -3.165  -1.562  -0.611  0.00  0.00    -0.156 NA
ATOM      5  N   UNL     1      -3.425  -0.915   0.605  0.00  0.00    -0.254 N 
ATOM      6  C   UNL     1      -2.293  -0.277   0.969  0.00  0.00    +0.176 A 
ATOM      7  S   UNL     1      -2.068   0.661   2.384  0.00  0.00    -0.011 S 
ENDROOT
BRANCH   2   8
ATOM      8  C   UNL     1      -1.253  -1.813  -2.191  0.00  0.00    +0.220 C 
ATOM      9  C   UNL     1      -1.589  -0.935  -3.383  0.00  0.00    +0.030 C 
ATOM     10  C   UNL     1      -2.209  -1.763  -4.227  0.00  0.00    +0.133 C 
ATOM     11  N   UNL     1      -2.289  -3.008  -3.707  0.00  0.00    -0.162 NA
ATOM     12  N   UNL     1      -1.784  -3.130  -2.584  0.00  0.00    -0.172 NA
ENDBRANCH   2   8
BRANCH   1  14
ATOM     13  C   UNL     1      -0.019   1.526   0.010  0.00  0.00    +0.043 C 
ATOM     14  C   UNL     1       0.002  -0.004   0.002  0.00  0.00    +0.200 C 
BRANCH  14  15
ATOM     15  C   UNL     1       0.731  -0.503   1.223  0.00  0.00    +0.378 C 
ATOM     16  O   UNL     1       0.117  -0.721   2.253  0.00  0.00    -0.244 OA
ATOM     17  O   UNL     1       1.935  -0.690   1.180  0.00  0.00    -0.244 OA
ENDBRANCH  14  15
ENDBRANCH   1  14
TORSDOF 3
