REMARK  Name = ZINC20150271
REMARK  15 active torsions:
REMARK  status: ('A' for Active; 'I' for Inactive)
REMARK    1  A    between atoms: C_1  and  C_2
REMARK    2  A    between atoms: C_2  and  N_3
REMARK    3  A    between atoms: N_3  and  C_4
REMARK    4  A    between atoms: C_4  and  C_5
REMARK    5  A    between atoms: C_6  and  C_8
REMARK    6  A    between atoms: C_8  and  S_9
REMARK    7  A    between atoms: S_9  and  C_10
REMARK    8  A    between atoms: C_11  and  C_30
REMARK    9  A    between atoms: C_12  and  C_25
REMARK   10  A    between atoms: C_15  and  O_17
REMARK   11  A    between atoms: O_17  and  C_18
REMARK   12  A    between atoms: C_18  and  C_19
REMARK   13  A    between atoms: C_19  and  O_20
REMARK   14  A    between atoms: O_20  and  C_21
REMARK   15  A    between atoms: C_22  and  C_24
REMARK                            x       y       z     vdW  Elec       q    Type
REMARK                         _______ _______ _______ _____ _____    ______ ____
ROOT
ATOM      1  C   UNL     1      -3.882  -0.512  -3.937  0.00  0.00    +0.112 C 
ATOM      2  C   UNL     1      -4.745  -0.765  -4.993  0.00  0.00    +0.076 C 
ATOM      3  C   UNL     1      -6.224  -0.521  -4.760  0.00  0.00    +0.137 C 
ATOM      4  C   UNL     1      -6.604  -0.020  -3.378  0.00  0.00    +0.073 C 
ATOM      5  C   UNL     1      -7.904   0.235  -3.049  0.00  0.00    +0.338 C 
ATOM      6  O   UNL     1      -8.227   0.563  -1.782  0.00  0.00    -0.245 OA
ATOM      7  C   UNL     1      -5.570   0.170  -2.456  0.00  0.00    +0.050 C 
ATOM      8  N   UNL     1      -4.319  -0.076  -2.755  0.00  0.00    -0.244 NA
ATOM      9  C   UNL     1      -5.907   0.668  -1.074  0.00  0.00    +0.066 C 
ENDROOT
BRANCH   3  10
ATOM     10  C   UNL     1      -6.959  -1.814  -5.005  0.00  0.00    +0.118 A 
ATOM     11  C   UNL     1      -7.916  -2.012  -5.929  0.00  0.00    +0.045 A 
ATOM     12  C   UNL     1      -8.326  -3.360  -5.812  0.00  0.00    +0.041 A 
ATOM     13  C   UNL     1      -7.595  -3.905  -4.823  0.00  0.00    +0.195 A 
ATOM     14  O   UNL     1      -6.765  -2.966  -4.342  0.00  0.00    -0.467 OA
ENDBRANCH   3  10
BRANCH   2  15
ATOM     15  C   UNL     1      -4.258  -1.239  -6.254  0.00  0.00    +0.099 C 
ATOM     16  N   UNL     1      -3.873  -1.614  -7.254  0.00  0.00    -0.191 NA
ENDBRANCH   2  15
BRANCH   1  17
ATOM     17  S   UNL     1      -2.155  -0.781  -4.162  0.00  0.00    -0.096 S 
BRANCH  17  18
ATOM     18  C   UNL     1      -1.429  -0.339  -2.559  0.00  0.00    +0.171 C 
BRANCH  18  20
ATOM     19  N   UNL     1       0.819  -0.257  -1.531  0.00  0.00    -0.301 N 
ATOM     20  C   UNL     1       0.065  -0.526  -2.615  0.00  0.00    +0.226 C 
ATOM     21  O   UNL     1       0.589  -0.920  -3.636  0.00  0.00    -0.275 OA
BRANCH  19  23
ATOM     22  C   UNL     1       0.120   1.746  -0.315  0.00  0.00    +0.024 C 
ATOM     23  C   UNL     1       0.186   0.218  -0.298  0.00  0.00    +0.104 C 
ENDBRANCH  19  23
BRANCH  19  24
ATOM     24  C   UNL     1       2.272  -0.440  -1.586  0.00  0.00    +0.104 C 
ATOM     25  C   UNL     1       2.623  -1.866  -1.159  0.00  0.00    +0.024 C 
ENDBRANCH  19  24
ENDBRANCH  18  20
ENDBRANCH  17  18
ENDBRANCH   1  17
BRANCH   5  26
ATOM     26  O   UNL     1      -8.866   0.160  -3.991  0.00  0.00    -0.459 OA
BRANCH  26  27
ATOM     27  C   UNL     1     -10.204   0.439  -3.576  0.00  0.00    +0.260 C 
BRANCH  27  28
ATOM     28  C   UNL     1     -11.148   0.304  -4.773  0.00  0.00    +0.200 C 
BRANCH  28  29
ATOM     29  O   UNL     1     -11.165  -1.055  -5.215  0.00  0.00    -0.380 OA
ATOM     30  C   UNL     1     -12.021  -1.291  -6.335  0.00  0.00    +0.194 C 
ENDBRANCH  28  29
ENDBRANCH  27  28
ENDBRANCH  26  27
ENDBRANCH   5  26
TORSDOF 11
