REMARK  Name = ZINC62720600
REMARK  1 active torsions:
REMARK  status: ('A' for Active; 'I' for Inactive)
REMARK    1  A    between atoms: N_11  and  N_12
REMARK                            x       y       z     vdW  Elec       q    Type
REMARK                         _______ _______ _______ _____ _____    ______ ____
ROOT
ATOM      1  C   UNL     1      -0.017   1.389   0.010  0.00  0.00    +0.020 A 
ATOM      2  C   UNL     1       1.159   2.087   0.002  0.00  0.00    +0.013 A 
ATOM      3  C   UNL     1       2.358   1.356  -0.013  0.00  0.00    +0.019 A 
ATOM      4  C   UNL     1       3.620   1.982  -0.021  0.00  0.00    +0.045 A 
ATOM      5  C   UNL     1       4.738   1.205  -0.036  0.00  0.00    +0.129 A 
ATOM      6  N   UNL     1       4.670  -0.120  -0.043  0.00  0.00    -0.236 NA
ATOM      7  C   UNL     1       3.526  -0.775  -0.036  0.00  0.00    +0.158 A 
ATOM      8  C   UNL     1       2.305  -0.060  -0.020  0.00  0.00    +0.113 A 
ATOM      9  N   UNL     1       1.126  -0.680  -0.013  0.00  0.00    -0.251 NA
ATOM     10  C   UNL     1       0.002  -0.004   0.002  0.00  0.00    +0.111 A 
ATOM     11  N   UNL     1       3.519  -2.161  -0.044  0.00  0.00    -0.266 N 
ATOM     12 BR   UNL     1       3.759   3.868  -0.013  0.00  0.00    -0.048 Br
ATOM     13  H   UNL     1       2.676  -2.642  -0.039  0.00  0.00    +0.167 HD
ENDROOT
BRANCH  11  14
ATOM     14  N   UNL     1       4.698  -2.850  -0.060  0.00  0.00    -0.255 NA
ATOM     15  H   UNL     1       5.283  -2.583   0.718  0.00  0.00    +0.140 HD
ATOM     16  H   UNL     1       4.535  -3.845  -0.064  0.00  0.00    +0.140 HD
ENDBRANCH  11  14
TORSDOF 1
