REMARK  Name = ZINC39637424
REMARK  10 active torsions:
REMARK  status: ('A' for Active; 'I' for Inactive)
REMARK    1  A    between atoms: C_1  and  C_2
REMARK    2  A    between atoms: C_4  and  C_11
REMARK    3  A    between atoms: N_5  and  C_7
REMARK    4  A    between atoms: C_7  and  C_8
REMARK    5  A    between atoms: C_7  and  C_9
REMARK    6  A    between atoms: C_7  and  C_10
REMARK    7  A    between atoms: C_15  and  C_24
REMARK    8  A    between atoms: N_26  and  C_27
REMARK    9  A    between atoms: C_32  and  C_37
REMARK   10  A    between atoms: C_34  and  C_36
REMARK                            x       y       z     vdW  Elec       q    Type
REMARK                         _______ _______ _______ _____ _____    ______ ____
ROOT
ATOM      1  C   UNL     1      -0.781  -2.682  -1.698  0.00  0.00    +0.265 C 
ATOM      2  O   UNL     1      -0.987  -2.661  -2.896  0.00  0.00    -0.268 OA
ATOM      3  N   UNL     1      -0.680  -3.860  -1.052  0.00  0.00    -0.295 N 
ATOM      4  C   UNL     1      -0.565  -4.089   0.408  0.00  0.00    +0.121 C 
ATOM      5  C   UNL     1      -1.438  -5.335   0.678  0.00  0.00    +0.100 C 
ATOM      6  C   UNL     1      -1.495  -6.074  -0.669  0.00  0.00    -0.004 C 
ATOM      7  C   UNL     1      -0.666  -5.221  -1.640  0.00  0.00    +0.115 C 
ATOM      8  C   UNL     1      -2.936  -6.170  -1.159  0.00  0.00    -0.010 C 
ATOM      9  C   UNL     1      -2.973  -6.958  -2.471  0.00  0.00    -0.082 C 
ATOM     10  N   UNL     1      -2.419  -8.300  -2.253  0.00  0.00    +0.379 N 
ATOM     11  C   UNL     1      -1.005  -8.202  -1.871  0.00  0.00    -0.082 C 
ATOM     12  C   UNL     1      -0.885  -7.466  -0.534  0.00  0.00    -0.010 C 
ATOM     13  H   UNL     1      -2.934  -8.759  -1.517  0.00  0.00    -0.086 HD
ATOM     14  H   UNL     1      -2.500  -8.838  -3.103  0.00  0.00    -0.086 HD
ENDROOT
BRANCH   1  18
ATOM     15  C   UNL     1       0.063   0.780   1.911  0.00  0.00    +0.067 C 
ATOM     16  C   UNL     1      -0.277   0.102   0.609  0.00  0.00    +0.061 A 
ATOM     17  C   UNL     1      -0.261  -1.274   0.369  0.00  0.00    +0.057 A 
ATOM     18  C   UNL     1      -0.642  -1.420  -0.953  0.00  0.00    +0.124 A 
ATOM     19  N   UNL     1      -0.863  -0.159  -1.429  0.00  0.00    -0.254 N 
ATOM     20  N   UNL     1      -0.647   0.698  -0.497  0.00  0.00    -0.175 NA
BRANCH  19  21
ATOM     21  C   UNL     1      -1.286   0.167  -2.793  0.00  0.00    +0.056 C 
ATOM     22  C   UNL     1      -2.560  -0.610  -3.131  0.00  0.00    +0.036 C 
ATOM     23  C   UNL     1      -1.562   1.668  -2.897  0.00  0.00    +0.036 C 
ATOM     24  C   UNL     1      -0.178  -0.217  -3.776  0.00  0.00    +0.036 C 
ENDBRANCH  19  21
ENDBRANCH   1  18
BRANCH   5  25
ATOM     25  C   UNL     1      -2.822  -4.922   1.111  0.00  0.00    +0.218 C 
ATOM     26  O   UNL     1      -3.307  -3.893   0.691  0.00  0.00    -0.275 OA
ATOM     27  N   UNL     1      -3.519  -5.696   1.966  0.00  0.00    -0.312 N 
ATOM     28  H   UNL     1      -3.106  -6.482   2.356  0.00  0.00    +0.149 HD
BRANCH  27  29
ATOM     29  C   UNL     1      -4.902  -5.350   2.306  0.00  0.00    +0.076 C 
ATOM     30  C   UNL     1      -5.848  -5.940   1.258  0.00  0.00    +0.022 C 
ATOM     31  C   UNL     1      -7.291  -5.579   1.613  0.00  0.00    +0.002 C 
ATOM     32  C   UNL     1      -7.636  -6.150   2.990  0.00  0.00    +0.003 C 
ATOM     33  C   UNL     1      -6.690  -5.559   4.038  0.00  0.00    -0.009 C 
ATOM     34  C   UNL     1      -5.247  -5.921   3.683  0.00  0.00    +0.009 C 
ATOM     35  C   UNL     1      -4.301  -5.330   4.731  0.00  0.00    +0.009 C 
ATOM     36  C   UNL     1      -6.843  -4.037   4.063  0.00  0.00    +0.008 C 
ENDBRANCH  27  29
ENDBRANCH   5  25
TORSDOF 4
