REMARK  Name = ZINC09095710
REMARK  7 active torsions:
REMARK  status: ('A' for Active; 'I' for Inactive)
REMARK    1  A    between atoms: C_1  and  C_2
REMARK    2  A    between atoms: C_5  and  N_9
REMARK    3  A    between atoms: C_12  and  C_36
REMARK    4  A    between atoms: C_13  and  C_35
REMARK    5  A    between atoms: C_14  and  C_16
REMARK    6  A    between atoms: N_18  and  N_19
REMARK    7  A    between atoms: C_20  and  C_21
REMARK                            x       y       z     vdW  Elec       q    Type
REMARK                         _______ _______ _______ _____ _____    ______ ____
ROOT
ATOM      1  C   UNL     1      -4.599   4.185   1.094  0.00  0.00    +0.284 C 
ATOM      2  O   UNL     1      -5.628   3.555   1.244  0.00  0.00    -0.267 OA
ATOM      3  N   UNL     1      -3.408   3.559   1.171  0.00  0.00    -0.202 N 
ATOM      4  H   UNL     1      -2.591   4.046   0.979  0.00  0.00    +0.178 HD
ENDROOT
BRANCH   1  10
ATOM      5  N   UNL     1      -3.501   7.560   0.376  0.00  0.00    -0.195 N 
ATOM      6  C   UNL     1      -4.619   8.311   0.322  0.00  0.00    +0.290 A 
ATOM      7  O   UNL     1      -4.553   9.506   0.092  0.00  0.00    -0.264 OA
ATOM      8  C   UNL     1      -5.917   7.661   0.543  0.00  0.00    +0.123 A 
ATOM      9  C   UNL     1      -5.904   6.292   0.793  0.00  0.00    +0.004 A 
ATOM     10  C   UNL     1      -4.655   5.638   0.826  0.00  0.00    +0.152 A 
ATOM     11  N   UNL     1      -3.540   6.301   0.616  0.00  0.00    -0.158 NA
ATOM     12  C   UNL     1      -7.185   5.533   1.028  0.00  0.00    +0.048 C 
BRANCH   5  17
ATOM     13  C   UNL     1       1.529  10.043  -0.477  0.00  0.00    +0.045 C 
ATOM     14  C   UNL     1       0.193   9.383  -0.251  0.00  0.00    -0.032 A 
ATOM     15  C   UNL     1      -0.068   8.143  -0.804  0.00  0.00    +0.007 A 
ATOM     16  C   UNL     1      -1.289   7.533  -0.593  0.00  0.00    +0.028 A 
ATOM     17  C   UNL     1      -2.261   8.172   0.166  0.00  0.00    +0.071 A 
ATOM     18  C   UNL     1      -1.998   9.418   0.721  0.00  0.00    +0.048 A 
ATOM     19  C   UNL     1      -0.771  10.021   0.511  0.00  0.00    +0.046 A 
ATOM     20 CL   UNL     1      -0.440  11.578   1.204  0.00  0.00    -0.083 Cl
ENDBRANCH   5  17
BRANCH   8  21
ATOM     21  C   UNL     1      -7.141   8.402   0.498  0.00  0.00    +0.105 C 
ATOM     22  N   UNL     1      -8.113   8.990   0.462  0.00  0.00    -0.191 NA
ENDBRANCH   8  21
ENDBRANCH   1  10
BRANCH   3  23
ATOM     23  N   UNL     1      -3.349   2.206   1.528  0.00  0.00    -0.187 NA
ATOM     24  C   UNL     1      -2.195   1.626   1.696  0.00  0.00    +0.139 C 
BRANCH  24  25
ATOM     25  C   UNL     1      -0.963   2.418   1.647  0.00  0.00    +0.010 A 
ATOM     26  C   UNL     1       0.049   2.107   0.716  0.00  0.00    -0.009 A 
ATOM     27  C   UNL     1      -0.098   1.036  -0.183  0.00  0.00    +0.009 A 
ATOM     28  C   UNL     1       0.895   0.764  -1.072  0.00  0.00    +0.001 A 
ATOM     29  C   UNL     1       2.062   1.524  -1.119  0.00  0.00    +0.001 A 
ATOM     30  C   UNL     1       2.265   2.572  -0.279  0.00  0.00    +0.008 A 
ATOM     31  C   UNL     1       1.274   2.906   0.669  0.00  0.00    -0.017 A 
ATOM     32  C   UNL     1       1.451   3.977   1.547  0.00  0.00    +0.017 A 
ATOM     33  C   UNL     1       0.457   4.289   2.475  0.00  0.00    -0.017 A 
ATOM     34  C   UNL     1      -0.774   3.498   2.534  0.00  0.00    -0.009 A 
ATOM     35  C   UNL     1      -1.755   3.840   3.481  0.00  0.00    +0.009 A 
ATOM     36  C   UNL     1      -1.543   4.890   4.319  0.00  0.00    +0.001 A 
ATOM     37  C   UNL     1      -0.372   5.644   4.265  0.00  0.00    +0.001 A 
ATOM     38  C   UNL     1       0.614   5.367   3.373  0.00  0.00    +0.008 A 
ENDBRANCH  24  25
ENDBRANCH   3  23
TORSDOF 5
