REMARK  Name = ZINC09191252
REMARK  8 active torsions:
REMARK  status: ('A' for Active; 'I' for Inactive)
REMARK    1  A    between atoms: C_1  and  C_2
REMARK    2  A    between atoms: C_7  and  N_8
REMARK    3  A    between atoms: C_9  and  O_36
REMARK    4  A    between atoms: C_10  and  C_23
REMARK    5  A    between atoms: N_13  and  C_16
REMARK    6  A    between atoms: C_21  and  C_22
REMARK    7  A    between atoms: C_23  and  C_25
REMARK    8  A    between atoms: C_25  and  C_26
REMARK                            x       y       z     vdW  Elec       q    Type
REMARK                         _______ _______ _______ _____ _____    ______ ____
ROOT
ATOM      1  N   UNL     1      -0.137  -0.007   2.425  0.00  0.00    -0.259 N 
ATOM      2  C   UNL     1      -1.237   0.359   3.143  0.00  0.00    +0.215 A 
ATOM      3  C   UNL     1      -1.060   1.041   4.356  0.00  0.00    +0.142 A 
ATOM      4  C   UNL     1       0.314   1.335   4.785  0.00  0.00    +0.273 A 
ATOM      5  O   UNL     1       0.526   1.928   5.827  0.00  0.00    -0.266 OA
ATOM      6  N   UNL     1       1.336   0.933   4.001  0.00  0.00    -0.255 N 
ATOM      7  C   UNL     1       1.103   0.279   2.851  0.00  0.00    +0.175 A 
ATOM      8  S   UNL     1       2.437  -0.206   1.894  0.00  0.00    -0.012 S 
ENDROOT
BRANCH   1  15
ATOM      9  C   UNL     1      -0.382   1.521   0.037  0.00  0.00    +0.046 C 
ATOM     10  C   UNL     1      -0.429   0.015   0.026  0.00  0.00    -0.026 A 
ATOM     11  C   UNL     1      -0.601  -0.663  -1.165  0.00  0.00    +0.005 A 
ATOM     12  C   UNL     1      -0.638  -2.045  -1.176  0.00  0.00    +0.000 A 
ATOM     13  C   UNL     1      -0.515  -2.753   0.006  0.00  0.00    +0.002 A 
ATOM     14  C   UNL     1      -0.348  -2.080   1.201  0.00  0.00    +0.026 A 
ATOM     15  C   UNL     1      -0.305  -0.692   1.214  0.00  0.00    +0.055 A 
ENDBRANCH   1  15
BRANCH   6  16
ATOM     16  C   UNL     1       2.654   1.202   4.390  0.00  0.00    +0.055 A 
ATOM     17  C   UNL     1       3.271   2.381   3.991  0.00  0.00    +0.026 A 
ATOM     18  C   UNL     1       4.569   2.646   4.381  0.00  0.00    +0.002 A 
ATOM     19  C   UNL     1       5.258   1.734   5.159  0.00  0.00    +0.000 A 
ATOM     20  C   UNL     1       4.649   0.557   5.553  0.00  0.00    +0.005 A 
ATOM     21  C   UNL     1       3.349   0.288   5.171  0.00  0.00    -0.026 A 
ATOM     22  C   UNL     1       2.686  -0.995   5.600  0.00  0.00    +0.046 C 
ENDBRANCH   6  16
BRANCH   3  23
ATOM     23  C   UNL     1      -2.169   1.437   5.137  0.00  0.00    +0.172 C 
ATOM     24  O   UNL     1      -3.296   1.281   4.714  0.00  0.00    -0.292 OA
BRANCH  23  25
ATOM     25  C   UNL     1      -1.952   2.053   6.495  0.00  0.00    +0.069 C 
BRANCH  25  26
ATOM     26  C   UNL     1      -3.305   2.388   7.125  0.00  0.00    -0.033 C 
ATOM     27  C   UNL     1      -3.081   3.114   8.426  0.00  0.00    -0.058 A 
ATOM     28  C   UNL     1      -2.098   4.091   8.476  0.00  0.00    +0.002 A 
ATOM     29  C   UNL     1      -1.861   4.784   9.646  0.00  0.00    +0.000 A 
ATOM     30  C   UNL     1      -2.608   4.503  10.775  0.00  0.00    +0.000 A 
ATOM     31  C   UNL     1      -3.587   3.531  10.727  0.00  0.00    +0.004 A 
ATOM     32  C   UNL     1      -3.824   2.833   9.553  0.00  0.00    -0.048 A 
ATOM     33  C   UNL     1      -4.895   1.773   9.550  0.00  0.00    +0.016 C 
ATOM     34  C   UNL     1      -5.282   1.426   8.112  0.00  0.00    -0.077 C 
ATOM     35  N   UNL     1      -4.052   1.143   7.350  0.00  0.00    +0.384 N 
ATOM     36  H   UNL     1      -3.467   0.486   7.880  0.00  0.00    -0.085 HD
ATOM     37  H   UNL     1      -4.301   0.727   6.445  0.00  0.00    -0.085 HD
ENDBRANCH  25  26
ENDBRANCH  23  25
ENDBRANCH   3  23
BRANCH   2  38
ATOM     38  O   UNL     1      -2.472   0.067   2.698  0.00  0.00    -0.493 OA
ATOM     39  H   UNL     1      -3.216   0.421   3.204  0.00  0.00    +0.294 HD
ENDBRANCH   2  38
TORSDOF 6
