REMARK  Name = ZINC04701599
REMARK  5 active torsions:
REMARK  status: ('A' for Active; 'I' for Inactive)
REMARK    1  A    between atoms: C_1  and  C_2
REMARK    2  A    between atoms: C_2  and  C_20
REMARK    3  A    between atoms: N_3  and  C_4
REMARK    4  A    between atoms: C_9  and  S_17
REMARK    5  A    between atoms: C_11  and  S_14
REMARK                            x       y       z     vdW  Elec       q    Type
REMARK                         _______ _______ _______ _____ _____    ______ ____
ROOT
ATOM      1  C   UNL     1      -0.274   7.973   1.168  0.00  0.00    +0.065 A 
ATOM      2  C   UNL     1      -0.162   7.269   2.382  0.00  0.00    +0.028 A 
ATOM      3  C   UNL     1       0.272   5.984   2.403  0.00  0.00    +0.011 A 
ATOM      4  C   UNL     1       0.618   5.337   1.202  0.00  0.00    -0.014 A 
ATOM      5  C   UNL     1       1.070   4.007   1.199  0.00  0.00    +0.038 A 
ATOM      6  C   UNL     1       1.397   3.408   0.021  0.00  0.00    +0.122 A 
ATOM      7  C   UNL     1       1.296   4.095  -1.187  0.00  0.00    +0.059 A 
ATOM      8  C   UNL     1       0.857   5.383  -1.225  0.00  0.00    +0.129 A 
ATOM      9  C   UNL     1       0.509   6.035  -0.028  0.00  0.00    +0.012 A 
ATOM     10  C   UNL     1       0.059   7.364  -0.032  0.00  0.00    +0.038 A 
ENDROOT
BRANCH   8  11
ATOM     11  S   UNL     1       0.730   6.230  -2.765  0.00  0.00    +0.140 S 
ATOM     12  O   UNL     1       0.994   7.600  -2.497  0.00  0.00    -0.140 OA
ATOM     13  O   UNL     1       1.485   5.478  -3.705  0.00  0.00    -0.140 OA
ATOM     14  O   UNL     1      -0.724   6.146  -3.207  0.00  0.00    -0.043 OA
ENDBRANCH   8  11
BRANCH   6  15
ATOM     15  S   UNL     1       1.963   1.739   0.025  0.00  0.00    +0.140 S 
ATOM     16  O   UNL     1       2.495   1.494   1.320  0.00  0.00    -0.140 OA
ATOM     17  O   UNL     1       2.730   1.568  -1.159  0.00  0.00    -0.140 OA
ATOM     18  O   UNL     1       0.738   0.848  -0.117  0.00  0.00    -0.043 OA
ENDBRANCH   6  15
BRANCH   1  21
ATOM     19  C   UNL     1      -2.463   8.561   2.717  0.00  0.00    +0.066 C 
ATOM     20  C   UNL     1      -1.751   9.602   1.892  0.00  0.00    +0.053 C 
ATOM     21  N   UNL     1      -0.714   9.268   1.173  0.00  0.00    -0.252 NA
BRANCH  20  22
ATOM     22  C   UNL     1      -2.223  10.991   1.896  0.00  0.00    +0.081 A 
ATOM     23  C   UNL     1      -3.326  11.359   2.650  0.00  0.00    +0.028 A 
ATOM     24  C   UNL     1      -3.745  12.713   2.629  0.00  0.00    +0.018 A 
ATOM     25  C   UNL     1      -4.854  13.121   3.385  0.00  0.00    +0.011 A 
ATOM     26  C   UNL     1      -5.255  14.425   3.356  0.00  0.00    +0.001 A 
ATOM     27  C   UNL     1      -4.572  15.354   2.582  0.00  0.00    +0.004 A 
ATOM     28  C   UNL     1      -3.480  14.975   1.831  0.00  0.00    +0.047 A 
ATOM     29  C   UNL     1      -3.052  13.652   1.845  0.00  0.00    +0.139 A 
ATOM     30  O   UNL     1      -1.981  13.285   1.108  0.00  0.00    -0.422 OA
ATOM     31  C   UNL     1      -1.539  12.017   1.097  0.00  0.00    +0.346 A 
ATOM     32  O   UNL     1      -0.571  11.716   0.424  0.00  0.00    -0.244 OA
ENDBRANCH  20  22
ENDBRANCH   1  21
TORSDOF 4
