REMARK  Name = ZINC09040603
REMARK  5 active torsions:
REMARK  status: ('A' for Active; 'I' for Inactive)
REMARK    1  A    between atoms: C_1  and  C_2
REMARK    2  A    between atoms: C_5  and  N_8
REMARK    3  A    between atoms: C_10  and  C_15
REMARK    4  A    between atoms: C_15  and  N_16
REMARK    5  A    between atoms: N_19  and  C_20
REMARK                            x       y       z     vdW  Elec       q    Type
REMARK                         _______ _______ _______ _____ _____    ______ ____
ROOT
ATOM      1  N   UNL     1       0.121  -8.805  -1.092  0.00  0.00    -0.299 N 
ATOM      2  C   UNL     1      -0.444  -9.925  -1.586  0.00  0.00    +0.300 C 
ATOM      3  O   UNL     1      -1.351  -9.843  -2.391  0.00  0.00    -0.253 OA
ATOM      4  N   UNL     1      -0.004 -11.134  -1.187  0.00  0.00    -0.294 N 
ATOM      5  H   UNL     1       0.845  -8.870  -0.450  0.00  0.00    +0.150 HD
ATOM      6  H   UNL     1       0.719 -11.199  -0.544  0.00  0.00    +0.151 HD
ENDROOT
BRANCH   4   7
ATOM      7  C   UNL     1      -0.619 -12.351  -1.724  0.00  0.00    +0.037 C 
ATOM      8  C   UNL     1      -0.450 -12.380  -3.244  0.00  0.00    +0.029 C 
ATOM      9  C   UNL     1      -1.092 -13.650  -3.804  0.00  0.00    -0.008 C 
ATOM     10  C   UNL     1      -0.413 -14.877  -3.193  0.00  0.00    +0.007 C 
ATOM     11  C   UNL     1      -0.582 -14.849  -1.672  0.00  0.00    -0.008 C 
ATOM     12  C   UNL     1       0.060 -13.578  -1.112  0.00  0.00    +0.029 C 
ATOM     13  C   UNL     1      -2.071 -14.864  -1.324  0.00  0.00    +0.007 C 
ATOM     14  C   UNL     1      -2.751 -13.637  -1.936  0.00  0.00    -0.008 C 
ATOM     15  C   UNL     1      -2.582 -13.665  -3.456  0.00  0.00    +0.007 C 
ATOM     16  C   UNL     1      -2.109 -12.366  -1.375  0.00  0.00    +0.029 C 
ENDBRANCH   4   7
BRANCH   1  17
ATOM     17  C   UNL     1      -0.357  -7.490  -1.526  0.00  0.00    +0.111 C 
BRANCH  17  20
ATOM     18  N   UNL     1       0.057  -4.170  -0.021  0.00  0.00    -0.271 N 
ATOM     19  C   UNL     1      -0.056  -4.993  -1.231  0.00  0.00    +0.119 C 
ATOM     20  C   UNL     1       0.447  -6.397  -0.820  0.00  0.00    +0.033 C 
ATOM     21  C   UNL     1       0.167  -6.397   0.700  0.00  0.00    +0.103 C 
ATOM     22  C   UNL     1       0.173  -4.933   1.080  0.00  0.00    +0.220 C 
ATOM     23  O   UNL     1       0.270  -4.509   2.212  0.00  0.00    -0.275 OA
BRANCH  18  28
ATOM     24  C   UNL     1      -0.018   1.503   0.010  0.00  0.00    +0.044 C 
ATOM     25  C   UNL     1       0.002  -0.004   0.002  0.00  0.00    -0.050 A 
ATOM     26  C   UNL     1       0.010  -0.687  -1.200  0.00  0.00    +0.005 A 
ATOM     27  C   UNL     1       0.033  -2.068  -1.211  0.00  0.00    +0.024 A 
ATOM     28  C   UNL     1       0.039  -2.771  -0.013  0.00  0.00    +0.036 A 
ATOM     29  C   UNL     1       0.026  -2.082   1.192  0.00  0.00    +0.024 A 
ATOM     30  C   UNL     1       0.007  -0.701   1.197  0.00  0.00    +0.005 A 
ENDBRANCH  18  28
ENDBRANCH  17  20
ENDBRANCH   1  17
TORSDOF 4
