REMARK  Name = ZINC36765093
REMARK  4 active torsions:
REMARK  status: ('A' for Active; 'I' for Inactive)
REMARK    1  A    between atoms: C_5  and  C_7
REMARK    2  A    between atoms: C_7  and  C_9
REMARK    3  A    between atoms: C_7  and  N_18
REMARK    4  A    between atoms: C_11  and  C_14
REMARK                            x       y       z     vdW  Elec       q    Type
REMARK                         _______ _______ _______ _____ _____    ______ ____
ROOT
ATOM      1  C   UNL     1       1.229  -2.186  -0.022  0.00  0.00    +0.030 C 
ENDROOT
BRANCH   1   6
ATOM      2  C   UNL     1      -0.017   1.378   0.010  0.00  0.00    +0.000 A 
ATOM      3  C   UNL     1       1.171   2.086   0.002  0.00  0.00    +0.001 A 
ATOM      4  C   UNL     1       2.377   1.412  -0.013  0.00  0.00    +0.015 A 
ATOM      5  C   UNL     1       2.397   0.029  -0.021  0.00  0.00    +0.020 A 
ATOM      6  C   UNL     1       1.208  -0.679  -0.013  0.00  0.00    -0.041 A 
ATOM      7  C   UNL     1       0.002  -0.004   0.002  0.00  0.00    +0.003 A 
ATOM      8 BR   UNL     1       4.047  -0.894  -0.042  0.00  0.00    -0.050 Br
ENDBRANCH   1   6
BRANCH   1   9
ATOM      9  C   UNL     1       1.468  -2.677  -1.426  0.00  0.00    +0.162 A 
ATOM     10  N   UNL     1       2.616  -3.188  -1.886  0.00  0.00    -0.190 NA
ATOM     11  C   UNL     1       2.489  -3.515  -3.142  0.00  0.00    +0.332 A 
ATOM     12  O   UNL     1       1.241  -3.219  -3.528  0.00  0.00    -0.329 OA
ATOM     13  N   UNL     1       0.591  -2.677  -2.388  0.00  0.00    -0.062 NA
BRANCH  11  14
ATOM     14  C   UNL     1       3.561  -4.122  -4.010  0.00  0.00    +0.472 C 
ATOM     15  F   UNL     1       3.497  -5.517  -3.924  0.00  0.00    -0.162 F 
ATOM     16  F   UNL     1       3.366  -3.727  -5.338  0.00  0.00    -0.162 F 
ATOM     17  F   UNL     1       4.816  -3.686  -3.574  0.00  0.00    -0.162 F 
ENDBRANCH  11  14
ENDBRANCH   1   9
BRANCH   1  18
ATOM     18  N   UNL     1      -0.061  -2.696   0.461  0.00  0.00    +0.387 N 
ATOM     19  H   UNL     1      -0.222  -2.367   1.402  0.00  0.00    -0.089 HD
ATOM     20  H   UNL     1      -0.800  -2.366  -0.141  0.00  0.00    -0.089 HD
ATOM     21  H   UNL     1      -0.048  -3.705   0.456  0.00  0.00    -0.089 HD
ENDBRANCH   1  18
TORSDOF 4
