REMARK  Name = ZINC38902565
REMARK  14 active torsions:
REMARK  status: ('A' for Active; 'I' for Inactive)
REMARK    1  A    between atoms: C_1  and  C_2
REMARK    2  A    between atoms: C_7  and  C_8
REMARK    3  A    between atoms: C_8  and  S_9
REMARK    4  A    between atoms: S_9  and  C_10
REMARK    5  A    between atoms: C_10  and  C_11
REMARK    6  A    between atoms: C_11  and  N_12
REMARK    7  A    between atoms: C_13  and  C_15
REMARK    8  A    between atoms: N_20  and  C_22
REMARK    9  A    between atoms: C_22  and  C_23
REMARK   10  A    between atoms: C_25  and  C_28
REMARK   11  A    between atoms: C_31  and  C_34
REMARK   12  A    between atoms: C_34  and  C_35
REMARK   13  A    between atoms: C_34  and  C_36
REMARK   14  A    between atoms: C_34  and  C_37
REMARK                            x       y       z     vdW  Elec       q    Type
REMARK                         _______ _______ _______ _____ _____    ______ ____
ROOT
ATOM      1  C   UNL     1      -3.703   3.360   8.444  0.00  0.00    +0.058 C 
ATOM      2  C   UNL     1      -2.916   2.502   9.439  0.00  0.00    +0.009 C 
ATOM      3  C   UNL     1      -2.841   3.234  10.782  0.00  0.00    -0.018 C 
ATOM      4  C   UNL     1      -4.259   3.537  11.271  0.00  0.00    -0.078 C 
ATOM      5  N   UNL     1      -4.949   4.382  10.290  0.00  0.00    +0.386 N 
ATOM      6  C   UNL     1      -5.088   3.660   9.020  0.00  0.00    -0.065 C 
ATOM      7  H   UNL     1      -4.415   5.225  10.138  0.00  0.00    -0.081 HD
ENDROOT
BRANCH   1   9
ATOM      8  N   UNL     1      -2.752   2.243   6.452  0.00  0.00    -0.314 N 
ATOM      9  C   UNL     1      -3.849   2.615   7.142  0.00  0.00    +0.214 C 
ATOM     10  O   UNL     1      -4.953   2.351   6.715  0.00  0.00    -0.276 OA
ATOM     11  H   UNL     1      -1.869   2.454   6.794  0.00  0.00    +0.149 HD
BRANCH   8  12
ATOM     12  C   UNL     1      -2.894   1.519   5.187  0.00  0.00    +0.115 C 
BRANCH  12  13
ATOM     13  C   UNL     1      -1.508   1.218   4.613  0.00  0.00    +0.088 C 
BRANCH  13  14
ATOM     14  S   UNL     1      -1.684   0.321   3.046  0.00  0.00    -0.155 S 
BRANCH  14  15
ATOM     15  C   UNL     1       0.025   0.045   2.504  0.00  0.00    +0.104 C 
BRANCH  15  22
ATOM     16  C   UNL     1      -0.018   1.503   0.010  0.00  0.00    +0.044 C 
ATOM     17  C   UNL     1       0.002  -0.004   0.002  0.00  0.00    -0.046 A 
ATOM     18  C   UNL     1       0.006  -0.689  -1.199  0.00  0.00    +0.003 A 
ATOM     19  C   UNL     1       0.025  -2.071  -1.207  0.00  0.00    +0.000 A 
ATOM     20  C   UNL     1       0.040  -2.768  -0.013  0.00  0.00    +0.000 A 
ATOM     21  C   UNL     1       0.037  -2.084   1.188  0.00  0.00    +0.005 A 
ATOM     22  C   UNL     1       0.023  -0.702   1.195  0.00  0.00    -0.035 A 
ENDBRANCH  15  22
ENDBRANCH  14  15
ENDBRANCH  13  14
ENDBRANCH  12  13
ENDBRANCH   8  12
ENDBRANCH   1   9
BRANCH   5  23
ATOM     23  C   UNL     1      -6.281   4.735  10.799  0.00  0.00    +0.022 C 
BRANCH  23  24
ATOM     24  C   UNL     1      -6.137   5.590  12.032  0.00  0.00    +0.211 A 
ATOM     25  N   UNL     1      -6.071   6.891  12.052  0.00  0.00    -0.193 NA
ATOM     26  C   UNL     1      -5.945   7.326  13.318  0.00  0.00    +0.202 A 
ATOM     27  N   UNL     1      -5.931   6.288  14.118  0.00  0.00    -0.056 NA
ATOM     28  O   UNL     1      -6.061   5.142  13.291  0.00  0.00    -0.340 OA
BRANCH  26  29
ATOM     29  C   UNL     1      -5.839   8.745  13.739  0.00  0.00    +0.022 A 
ATOM     30  C   UNL     1      -5.872   9.761  12.787  0.00  0.00    +0.012 A 
ATOM     31  C   UNL     1      -5.773  11.080  13.184  0.00  0.00    +0.005 A 
ATOM     32  C   UNL     1      -5.641  11.393  14.525  0.00  0.00    -0.042 A 
ATOM     33  C   UNL     1      -5.609  10.388  15.475  0.00  0.00    +0.005 A 
ATOM     34  C   UNL     1      -5.713   9.066  15.089  0.00  0.00    +0.012 A 
BRANCH  32  35
ATOM     35  C   UNL     1      -5.533  12.834  14.952  0.00  0.00    -0.013 C 
ATOM     36  C   UNL     1      -6.788  13.591  14.516  0.00  0.00    +0.015 C 
ATOM     37  C   UNL     1      -5.397  12.905  16.475  0.00  0.00    +0.015 C 
ATOM     38  C   UNL     1      -4.302  13.467  14.301  0.00  0.00    +0.015 C 
ENDBRANCH  32  35
ENDBRANCH  26  29
ENDBRANCH  23  24
ENDBRANCH   5  23
TORSDOF 10
