REMARK  Name = ZINC39746411
REMARK  5 active torsions:
REMARK  status: ('A' for Active; 'I' for Inactive)
REMARK    1  A    between atoms: C_1  and  S_2
REMARK    2  A    between atoms: S_2  and  C_3
REMARK    3  A    between atoms: C_7  and  S_9
REMARK    4  A    between atoms: S_9  and  C_10
REMARK    5  A    between atoms: C_12  and  C_22
REMARK                            x       y       z     vdW  Elec       q    Type
REMARK                         _______ _______ _______ _____ _____    ______ ____
ROOT
ATOM      1  C   UNL     1       2.452   3.240  -5.098  0.00  0.00    +0.170 C 
ATOM      2  C   UNL     1       3.271   3.987  -6.132  0.00  0.00    -0.009 C 
ATOM      3  C   UNL     1       2.825   5.261  -6.495  0.00  0.00    +0.001 A 
ATOM      4  C   UNL     1       3.527   6.025  -7.451  0.00  0.00    +0.010 A 
ATOM      5  C   UNL     1       3.071   7.262  -7.787  0.00  0.00    +0.001 A 
ATOM      6  C   UNL     1       1.922   7.792  -7.205  0.00  0.00    +0.002 A 
ATOM      7  C   UNL     1       1.202   7.103  -6.277  0.00  0.00    +0.024 A 
ATOM      8  C   UNL     1       1.615   5.818  -5.882  0.00  0.00    +0.041 A 
ATOM      9  N   UNL     1       0.907   5.142  -4.971  0.00  0.00    -0.284 N 
ATOM     10  C   UNL     1       1.227   3.935  -4.549  0.00  0.00    +0.235 C 
ATOM     11  O   UNL     1       0.534   3.379  -3.717  0.00  0.00    -0.274 OA
ATOM     12  H   UNL     1       0.115   5.562  -4.601  0.00  0.00    +0.155 HD
ENDROOT
BRANCH   2  13
ATOM     13  C   UNL     1       4.437   3.419  -6.705  0.00  0.00    -0.020 A 
ATOM     14  C   UNL     1       5.693   4.006  -6.480  0.00  0.00    +0.008 A 
ATOM     15  C   UNL     1       6.820   3.447  -7.041  0.00  0.00    +0.001 A 
ATOM     16  C   UNL     1       6.717   2.309  -7.825  0.00  0.00    +0.000 A 
ATOM     17  C   UNL     1       5.483   1.722  -8.052  0.00  0.00    +0.001 A 
ATOM     18  C   UNL     1       4.345   2.262  -7.496  0.00  0.00    +0.008 A 
ENDBRANCH   2  13
BRANCH   1  19
ATOM     19  S   UNL     1       3.542   2.848  -3.701  0.00  0.00    -0.080 S 
BRANCH  19  23
ATOM     20  C   UNL     1       1.462   0.095  -0.847  0.00  0.00    +0.210 C 
ATOM     21  N   UNL     1       0.698   0.509  -2.046  0.00  0.00    -0.244 N 
ATOM     22  N   UNL     1       1.365   1.355  -2.904  0.00  0.00    -0.172 NA
ATOM     23  C   UNL     1       2.575   1.772  -2.695  0.00  0.00    +0.152 C 
ATOM     24  S   UNL     1       3.036   1.000  -1.150  0.00  0.00    -0.063 S 
ATOM     25  H   UNL     1      -0.207   0.205  -2.215  0.00  0.00    +0.170 HD
BRANCH  20  27
ATOM     26  C   UNL     1       0.509   2.456   0.453  0.00  0.00    +0.087 C 
ATOM     27  S   UNL     1       0.658   0.662   0.676  0.00  0.00    -0.130 S 
ENDBRANCH  20  27
ENDBRANCH  19  23
ENDBRANCH   1  19
TORSDOF 4
