REMARK  Name = ZINC39771887
REMARK  14 active torsions:
REMARK  status: ('A' for Active; 'I' for Inactive)
REMARK    1  A    between atoms: C_1  and  C_2
REMARK    2  A    between atoms: C_4  and  C_12
REMARK    3  A    between atoms: C_12  and  C_14
REMARK    4  A    between atoms: C_14  and  C_16
REMARK    5  A    between atoms: C_14  and  S_17
REMARK    6  A    between atoms: S_17  and  C_18
REMARK    7  A    between atoms: C_22  and  C_34
REMARK    8  A    between atoms: N_28  and  C_29
REMARK    9  A    between atoms: C_29  and  C_30
REMARK   10  A    between atoms: C_30  and  C_31
REMARK   11  A    between atoms: C_31  and  O_32
REMARK   12  A    between atoms: O_32  and  C_33
REMARK   13  A    between atoms: C_34  and  O_36
REMARK   14  A    between atoms: O_36  and  C_37
REMARK                            x       y       z     vdW  Elec       q    Type
REMARK                         _______ _______ _______ _____ _____    ______ ____
ROOT
ATOM      1  C   UNL     1       1.483  -1.598  -6.365  0.00  0.00    +0.173 A 
ATOM      2  N   UNL     1       2.685  -1.899  -5.940  0.00  0.00    -0.223 NA
ATOM      3  C   UNL     1       3.610  -2.450  -6.762  0.00  0.00    +0.080 A 
ATOM      4  C   UNL     1       4.892  -2.770  -6.306  0.00  0.00    +0.043 A 
ATOM      5  C   UNL     1       5.808  -3.334  -7.186  0.00  0.00    +0.061 A 
ATOM      6  C   UNL     1       5.453  -3.582  -8.518  0.00  0.00    +0.016 A 
ATOM      7  C   UNL     1       4.204  -3.273  -8.974  0.00  0.00    +0.016 A 
ATOM      8  C   UNL     1       3.269  -2.706  -8.109  0.00  0.00    +0.065 A 
ATOM      9  C   UNL     1       1.911  -2.359  -8.558  0.00  0.00    +0.262 A 
ATOM     10  O   UNL     1       1.557  -2.555  -9.706  0.00  0.00    -0.267 OA
ATOM     11  N   UNL     1       1.069  -1.818  -7.647  0.00  0.00    -0.287 N 
ENDROOT
BRANCH   5  12
ATOM     12  C   UNL     1       7.167  -3.675  -6.712  0.00  0.00    +0.339 C 
ATOM     13  O   UNL     1       7.479  -3.462  -5.558  0.00  0.00    -0.245 OA
BRANCH  12  14
ATOM     14  O   UNL     1       8.059  -4.222  -7.560  0.00  0.00    -0.464 OA
ATOM     15  C   UNL     1       9.352  -4.526  -7.035  0.00  0.00    +0.280 C 
ENDBRANCH  12  14
ENDBRANCH   5  12
BRANCH   1  16
ATOM     16  S   UNL     1       0.344  -0.885  -5.225  0.00  0.00    -0.076 S 
BRANCH  16  17
ATOM     17  C   UNL     1       1.283  -0.772  -3.678  0.00  0.00    +0.122 C 
ATOM     18  C   UNL     1       2.444   0.209  -3.856  0.00  0.00    +0.028 C 
BRANCH  17  19
ATOM     19  C   UNL     1       0.379  -0.286  -2.575  0.00  0.00    +0.175 C 
ATOM     20  O   UNL     1      -0.603   0.377  -2.843  0.00  0.00    -0.291 OA
BRANCH  19  23
ATOM     21  C   UNL     1      -0.379   1.207   0.131  0.00  0.00    +0.035 C 
ATOM     22  C   UNL     1      -0.178  -0.303  -0.015  0.00  0.00    +0.111 C 
ATOM     23  C   UNL     1       0.673  -0.599  -1.231  0.00  0.00    +0.027 C 
ATOM     24  C   UNL     1       1.798  -1.243  -0.749  0.00  0.00    +0.006 A 
ATOM     25  C   UNL     1       2.951  -1.768  -1.380  0.00  0.00    +0.010 A 
ATOM     26  C   UNL     1       3.919  -2.361  -0.646  0.00  0.00    +0.001 A 
ATOM     27  C   UNL     1       3.837  -2.485   0.750  0.00  0.00    +0.002 A 
ATOM     28  C   UNL     1       2.779  -2.018   1.448  0.00  0.00    +0.026 A 
ATOM     29  C   UNL     1       1.679  -1.358   0.725  0.00  0.00    +0.043 A 
ATOM     30  N   UNL     1       0.562  -0.827   1.137  0.00  0.00    -0.377 N 
ATOM     31  H   UNL     1       0.267  -0.785   2.060  0.00  0.00    +0.160 HD
ENDBRANCH  19  23
ENDBRANCH  17  19
ENDBRANCH  16  17
ENDBRANCH   1  16
BRANCH  11  32
ATOM     32  C   UNL     1      -0.295  -1.459  -8.043  0.00  0.00    +0.129 C 
BRANCH  32  33
ATOM     33  C   UNL     1      -0.316  -0.016  -8.552  0.00  0.00    +0.050 C 
BRANCH  33  34
ATOM     34  C   UNL     1      -1.740   0.359  -8.964  0.00  0.00    +0.161 C 
BRANCH  34  35
ATOM     35  O   UNL     1      -1.760   1.706  -9.440  0.00  0.00    -0.383 OA
ATOM     36  C   UNL     1      -3.051   2.159  -9.853  0.00  0.00    +0.193 C 
ENDBRANCH  34  35
ENDBRANCH  33  34
ENDBRANCH  32  33
ENDBRANCH  11  32
TORSDOF 10
