REMARK  Name = ZINC20930159
REMARK  7 active torsions:
REMARK  status: ('A' for Active; 'I' for Inactive)
REMARK    1  A    between atoms: C_1  and  C_2
REMARK    2  A    between atoms: C_7  and  S_8
REMARK    3  A    between atoms: S_8  and  C_11
REMARK    4  A    between atoms: C_11  and  C_13
REMARK    5  A    between atoms: C_11  and  C_14
REMARK    6  A    between atoms: C_14  and  C_15
REMARK    7  A    between atoms: N_20  and  C_23
REMARK                            x       y       z     vdW  Elec       q    Type
REMARK                         _______ _______ _______ _____ _____    ______ ____
ROOT
ATOM      1  C   UNL     1      -1.802   2.953   1.568  0.00  0.00    +0.142 C 
ATOM      2  C   UNL     1      -0.737   4.036   1.756  0.00  0.00    +0.032 C 
ENDROOT
BRANCH   1   3
ATOM      3  S   UNL     1      -1.607   2.189  -0.066  0.00  0.00    +0.000 S 
ATOM      4  O   UNL     1      -1.728   3.173  -1.084  0.00  0.00    -0.169 OA
ATOM      5  O   UNL     1      -2.352   0.981  -0.133  0.00  0.00    -0.169 OA
BRANCH   3  12
ATOM      6  C   UNL     1      -0.450  -0.049   1.598  0.00  0.00    +0.046 C 
ATOM      7  C   UNL     1       0.518   0.646   0.675  0.00  0.00    -0.024 A 
ATOM      8  C   UNL     1       1.841   0.245   0.634  0.00  0.00    +0.032 A 
ATOM      9  C   UNL     1       2.728   0.886  -0.215  0.00  0.00    +0.076 A 
ATOM     10  C   UNL     1       2.287   1.931  -1.025  0.00  0.00    +0.144 A 
ATOM     11  C   UNL     1       0.961   2.326  -0.979  0.00  0.00    +0.074 A 
ATOM     12  C   UNL     1       0.080   1.682  -0.129  0.00  0.00    +0.095 A 
ATOM     13  O   UNL     1       3.167   2.554  -1.853  0.00  0.00    -0.481 OA
ATOM     14  C   UNL     1       4.519   2.652  -1.397  0.00  0.00    +0.325 C 
ATOM     15  C   UNL     1       4.970   1.319  -0.856  0.00  0.00    +0.255 C 
ATOM     16  O   UNL     1       6.134   0.989  -0.945  0.00  0.00    -0.272 OA
ATOM     17  N   UNL     1       4.074   0.495  -0.272  0.00  0.00    -0.280 N 
ATOM     18  H   UNL     1       4.385  -0.470   0.154  0.00  0.00    +0.155 HD
ENDBRANCH   3  12
ENDBRANCH   1   3
BRANCH   1  19
ATOM     19  C   UNL     1      -3.193   3.583   1.673  0.00  0.00    +0.122 C 
BRANCH  19  20
ATOM     20  C   UNL     1      -4.240   2.501   1.611  0.00  0.00    +0.217 C 
ATOM     21  O   UNL     1      -3.907   1.340   1.494  0.00  0.00    -0.276 OA
ATOM     22  N   UNL     1      -5.547   2.822   1.686  0.00  0.00    -0.299 N 
ATOM     23  C   UNL     1      -5.972   4.222   1.834  0.00  0.00    +0.123 C 
ATOM     24  C   UNL     1      -7.024   4.523   0.754  0.00  0.00    +0.103 C 
ATOM     25  N   UNL     1      -8.105   3.534   0.842  0.00  0.00    -0.296 NA
ATOM     26  C   UNL     1      -7.612   2.179   0.561  0.00  0.00    +0.103 C 
ATOM     27  C   UNL     1      -6.585   1.782   1.627  0.00  0.00    +0.123 C 
BRANCH  25  28
ATOM     28  C   UNL     1      -9.215   3.885  -0.055  0.00  0.00    +0.057 C 
ATOM     29  C   UNL     1      -8.706   3.950  -1.496  0.00  0.00    +0.019 C 
ATOM     30  C   UNL     1      -9.861   4.317  -2.429  0.00  0.00    +0.002 C 
ATOM     31  C   UNL     1     -10.429   5.680  -2.027  0.00  0.00    +0.000 C 
ATOM     32  C   UNL     1     -10.938   5.615  -0.586  0.00  0.00    +0.002 C 
ATOM     33  C   UNL     1      -9.783   5.248   0.347  0.00  0.00    +0.019 C 
ENDBRANCH  25  28
ENDBRANCH  19  20
ENDBRANCH   1  19
TORSDOF 5
