REMARK  Name = ZINC13678923
REMARK  6 active torsions:
REMARK  status: ('A' for Active; 'I' for Inactive)
REMARK    1  A    between atoms: C_1  and  O_2
REMARK    2  A    between atoms: O_2  and  C_3
REMARK    3  A    between atoms: C_8  and  N_9
REMARK    4  A    between atoms: C_10  and  C_12
REMARK    5  A    between atoms: N_15  and  S_23
REMARK    6  A    between atoms: S_23  and  C_26
REMARK                            x       y       z     vdW  Elec       q    Type
REMARK                         _______ _______ _______ _____ _____    ______ ____
ROOT
ATOM      1  C   UNL     1       6.092  -0.690  -0.279  0.00  0.00    +0.278 C 
ATOM      2  C   UNL     1       6.119  -1.463  -1.605  0.00  0.00    +0.186 C 
ATOM      3  N   UNL     1       7.433  -2.120  -1.710  0.00  0.00    -0.195 N 
ATOM      4  C   UNL     1       8.565  -1.387  -1.322  0.00  0.00    +0.093 A 
ATOM      5  C   UNL     1       9.832  -1.837  -1.655  0.00  0.00    +0.028 A 
ATOM      6  C   UNL     1      10.945  -1.115  -1.264  0.00  0.00    +0.002 A 
ATOM      7  C   UNL     1      10.792   0.054  -0.542  0.00  0.00    +0.004 A 
ATOM      8  C   UNL     1       9.530   0.509  -0.208  0.00  0.00    +0.047 A 
ATOM      9  C   UNL     1       8.409  -0.208  -0.597  0.00  0.00    +0.144 A 
ATOM     10  O   UNL     1       7.171   0.247  -0.267  0.00  0.00    -0.476 OA
ENDROOT
BRANCH   1  12
ATOM     11  N   UNL     1       3.630  -0.644  -0.041  0.00  0.00    -0.279 N 
ATOM     12  C   UNL     1       4.783   0.045  -0.149  0.00  0.00    +0.260 C 
ATOM     13  O   UNL     1       4.767   1.258  -0.142  0.00  0.00    -0.271 OA
ATOM     14  H   UNL     1       3.649  -1.611   0.034  0.00  0.00    +0.155 HD
BRANCH  11  20
ATOM     15  C   UNL     1       1.289  -0.540   0.567  0.00  0.00    +0.141 A 
ATOM     16  C   UNL     1       0.080   0.135   0.568  0.00  0.00    +0.049 A 
ATOM     17  C   UNL     1      -0.019   1.378  -0.031  0.00  0.00    +0.024 A 
ATOM     18  C   UNL     1       1.088   1.950  -0.632  0.00  0.00    +0.043 A 
ATOM     19  C   UNL     1       2.299   1.282  -0.636  0.00  0.00    +0.047 A 
ATOM     20  C   UNL     1       2.405   0.035  -0.037  0.00  0.00    +0.077 A 
ATOM     21 CL   UNL     1       0.957   3.510  -1.381  0.00  0.00    -0.083 Cl
BRANCH  15  23
ATOM     22  C   UNL     1       0.203  -2.291   1.755  0.00  0.00    +0.277 C 
ATOM     23  O   UNL     1       1.387  -1.763   1.155  0.00  0.00    -0.493 OA
ENDBRANCH  15  23
ENDBRANCH  11  20
ENDBRANCH   1  12
BRANCH   3  24
ATOM     24  S   UNL     1       7.568  -3.675  -2.266  0.00  0.00    +0.075 S 
ATOM     25  O   UNL     1       8.720  -4.229  -1.645  0.00  0.00    -0.150 OA
ATOM     26  O   UNL     1       6.280  -4.263  -2.145  0.00  0.00    -0.150 OA
BRANCH  24  27
ATOM     27  C   UNL     1       7.920  -3.583  -3.990  0.00  0.00    +0.109 A 
ATOM     28  C   UNL     1       6.886  -3.569  -4.907  0.00  0.00    +0.030 A 
ATOM     29  C   UNL     1       7.161  -3.491  -6.259  0.00  0.00    +0.022 A 
ATOM     30  C   UNL     1       8.473  -3.439  -6.695  0.00  0.00    +0.041 A 
ATOM     31  C   UNL     1       9.508  -3.458  -5.778  0.00  0.00    +0.022 A 
ATOM     32  C   UNL     1       9.231  -3.530  -4.426  0.00  0.00    +0.030 A 
ATOM     33 CL   UNL     1       8.820  -3.348  -8.394  0.00  0.00    -0.084 Cl
ENDBRANCH  24  27
ENDBRANCH   3  24
TORSDOF 5
