REMARK  Name = ZINC09544810
REMARK  9 active torsions:
REMARK  status: ('A' for Active; 'I' for Inactive)
REMARK    1  A    between atoms: C_1  and  C_2
REMARK    2  A    between atoms: C_2  and  C_3
REMARK    3  A    between atoms: C_3  and  C_4
REMARK    4  A    between atoms: C_7  and  C_10
REMARK    5  A    between atoms: C_10  and  C_12
REMARK    6  A    between atoms: C_10  and  N_53
REMARK    7  A    between atoms: C_17  and  C_18
REMARK    8  A    between atoms: C_17  and  N_53
REMARK    9  A    between atoms: N_20  and  C_21
REMARK                            x       y       z     vdW  Elec       q    Type
REMARK                         _______ _______ _______ _____ _____    ______ ____
ROOT
ATOM      1  N   UNL     1      -1.732   3.572   5.668  0.00  0.00    +0.392 N 
ATOM      2  H   UNL     1      -1.588   4.552   5.396  0.00  0.00    -0.084 HD
ATOM      3  H   UNL     1      -0.844   3.062   5.595  0.00  0.00    -0.084 HD
ENDROOT
BRANCH   1   4
ATOM      4  C   UNL     1      -2.722   2.958   4.762  0.00  0.00    -0.003 C 
BRANCH   4   8
ATOM      5  C   UNL     1      -0.731   1.565   1.249  0.00  0.00    -0.047 A 
ATOM      6  C   UNL     1      -0.364   2.769   1.820  0.00  0.00    +0.004 A 
ATOM      7  C   UNL     1      -1.012   3.223   2.954  0.00  0.00    +0.002 A 
ATOM      8  C   UNL     1      -2.019   2.467   3.523  0.00  0.00    -0.057 A 
ATOM      9  C   UNL     1      -2.383   1.260   2.955  0.00  0.00    +0.002 A 
ATOM     10  C   UNL     1      -1.738   0.809   1.818  0.00  0.00    +0.004 A 
BRANCH   5  11
ATOM     11  C   UNL     1      -0.028   1.073   0.010  0.00  0.00    +0.035 C 
BRANCH  11  13
ATOM     12  C   UNL     1      -0.049   1.086  -2.488  0.00  0.00    +0.004 C 
ATOM     13  C   UNL     1      -0.763   1.585  -1.230  0.00  0.00    +0.001 C 
ENDBRANCH  11  13
ENDBRANCH   5  11
ENDBRANCH   4   8
BRANCH   4  14
ATOM     14  C   UNL     1      -3.758   3.983   4.380  0.00  0.00    -0.020 A 
ATOM     15  C   UNL     1      -5.097   3.829   4.232  0.00  0.00    +0.010 A 
ATOM     16  C   UNL     1      -5.862   4.923   3.874  0.00  0.00    +0.008 A 
ATOM     17  C   UNL     1      -5.250   6.115   3.672  0.00  0.00    +0.045 A 
ATOM     18  S   UNL     1      -3.541   5.713   3.996  0.00  0.00    -0.103 S 
ENDBRANCH   4  14
ENDBRANCH   1   4
BRANCH   1  19
ATOM     19  C   UNL     1      -2.212   3.520   7.062  0.00  0.00    +0.016 C 
BRANCH  19  20
ATOM     20  C   UNL     1      -1.183   4.154   7.962  0.00  0.00    +0.200 C 
ATOM     21  O   UNL     1      -0.159   4.602   7.491  0.00  0.00    -0.278 OA
ATOM     22  N   UNL     1      -1.401   4.223   9.290  0.00  0.00    -0.287 N 
ATOM     23  H   UNL     1      -2.247   3.926   9.659  0.00  0.00    +0.155 HD
BRANCH  22  24
ATOM     24  C   UNL     1      -0.404   4.723  10.138  0.00  0.00    +0.035 A 
ATOM     25  C   UNL     1      -0.246   4.191  11.413  0.00  0.00    +0.025 A 
ATOM     26  C   UNL     1       0.737   4.676  12.251  0.00  0.00    +0.029 A 
ATOM     27  C   UNL     1       1.563   5.706  11.826  0.00  0.00    +0.067 A 
ATOM     28  C   UNL     1       1.403   6.247  10.548  0.00  0.00    +0.069 A 
ATOM     29  C   UNL     1       0.418   5.753   9.707  0.00  0.00    +0.051 A 
ATOM     30  N   UNL     1       2.362   7.247  10.412  0.00  0.00    -0.306 N 
ATOM     31  H   UNL     1       2.495   7.802   9.627  0.00  0.00    +0.170 HD
ATOM     32  C   UNL     1       3.073   7.314  11.553  0.00  0.00    +0.325 A 
ATOM     33  O   UNL     1       3.990   8.085  11.764  0.00  0.00    -0.247 OA
ATOM     34  N   UNL     1       2.615   6.397  12.426  0.00  0.00    -0.306 N 
ATOM     35  H   UNL     1       2.959   6.243  13.320  0.00  0.00    +0.170 HD
ENDBRANCH  22  24
ENDBRANCH  19  20
ENDBRANCH   1  19
TORSDOF 8
