REMARK  Name = ZINC04489104
REMARK  3 active torsions:
REMARK  status: ('A' for Active; 'I' for Inactive)
REMARK    1  A    between atoms: C_8  and  C_9
REMARK    2  A    between atoms: C_10  and  N_23
REMARK    3  A    between atoms: C_17  and  C_19
REMARK                            x       y       z     vdW  Elec       q    Type
REMARK                         _______ _______ _______ _____ _____    ______ ____
ROOT
ATOM      1  C   UNL     1       0.002  -0.004   0.002  0.00  0.00    +0.081 A 
ATOM      2  C   UNL     1       1.240  -0.654  -0.013  0.00  0.00    +0.133 A 
ATOM      3  N   UNL     1       2.408   0.088  -0.020  0.00  0.00    -0.193 N 
ATOM      4  C   UNL     1       2.291   1.452  -0.012  0.00  0.00    +0.201 A 
ATOM      5  N   UNL     1       1.159   2.109   0.002  0.00  0.00    -0.182 NA
ATOM      6  C   UNL     1      -0.018   1.470   0.010  0.00  0.00    +0.283 A 
ATOM      7  O   UNL     1      -1.072   2.087   0.018  0.00  0.00    -0.265 OA
ATOM      8  S   UNL     1       3.991   1.984  -0.025  0.00  0.00    -0.024 S 
ATOM      9  C   UNL     1       4.743   0.365  -0.040  0.00  0.00    +0.205 A 
ATOM     10  N   UNL     1       3.708  -0.416  -0.035  0.00  0.00    -0.152 NA
ENDROOT
BRANCH   1  18
ATOM     11  C   UNL     1      -5.406  -2.528   0.860  0.00  0.00    +0.001 A 
ATOM     12  C   UNL     1      -6.023  -1.881   1.923  0.00  0.00    +0.002 A 
ATOM     13  C   UNL     1      -5.393  -0.852   2.583  0.00  0.00    +0.028 A 
ATOM     14  C   UNL     1      -4.115  -0.446   2.183  0.00  0.00    +0.072 A 
ATOM     15  C   UNL     1      -3.497  -1.105   1.098  0.00  0.00    +0.009 A 
ATOM     16  C   UNL     1      -4.147  -2.146   0.448  0.00  0.00    +0.010 A 
ATOM     17  C   UNL     1      -2.185  -0.449   0.944  0.00  0.00    +0.003 C 
ATOM     18  C   UNL     1      -1.197  -0.740   0.010  0.00  0.00    +0.026 C 
ATOM     19  C   UNL     1      -2.154   0.546   1.951  0.00  0.00    +0.120 C 
ATOM     20  N   UNL     1      -3.270   0.512   2.631  0.00  0.00    -0.254 NA
ENDBRANCH   1  18
BRANCH   9  21
ATOM     21  C   UNL     1       6.205  -0.001  -0.057  0.00  0.00    +0.442 C 
ATOM     22  F   UNL     1       6.644  -0.107  -1.380  0.00  0.00    -0.164 F 
ATOM     23  F   UNL     1       6.941   0.990   0.602  0.00  0.00    -0.164 F 
ATOM     24  F   UNL     1       6.386  -1.226   0.595  0.00  0.00    -0.164 F 
ENDBRANCH   9  21
BRANCH   2  25
ATOM     25  N   UNL     1       1.297  -2.018  -0.022  0.00  0.00    -0.342 N 
ATOM     26  H   UNL     1       2.271  -2.528  -0.034  0.00  0.00    +0.144 HD
ATOM     27  H   UNL     1       0.367  -2.607  -0.016  0.00  0.00    +0.144 HD
ENDBRANCH   2  25
TORSDOF 3
