REMARK  Name = ZINC38994452
REMARK  7 active torsions:
REMARK  status: ('A' for Active; 'I' for Inactive)
REMARK    1  A    between atoms: C_4  and  C_7
REMARK    2  A    between atoms: C_9  and  C_13
REMARK    3  A    between atoms: C_17  and  S_21
REMARK    4  A    between atoms: N_19  and  N_20
REMARK    5  A    between atoms: S_21  and  C_22
REMARK    6  A    between atoms: C_22  and  C_23
REMARK    7  A    between atoms: N_25  and  C_26
REMARK                            x       y       z     vdW  Elec       q    Type
REMARK                         _______ _______ _______ _____ _____    ______ ____
ROOT
ATOM      1  C   UNL     1       5.780  -3.004  -1.290  0.00  0.00    +0.185 C 
ATOM      2  N   UNL     1       5.590  -2.133  -2.479  0.00  0.00    -0.234 NA
ATOM      3  N   UNL     1       6.534  -2.697  -3.458  0.00  0.00    -0.228 NA
ATOM      4  C   UNL     1       7.715  -3.082  -2.653  0.00  0.00    +0.214 C 
ATOM      5  N   UNL     1       7.235  -3.283  -1.268  0.00  0.00    -0.197 NA
ATOM      6  H   UNL     1       5.821  -1.174  -2.266  0.00  0.00    +0.143 HD
ATOM      7  H   UNL     1       6.780  -2.013  -4.158  0.00  0.00    +0.143 HD
ENDROOT
BRANCH   1  10
ATOM      8  C   UNL     1       3.724  -0.710   0.027  0.00  0.00    +0.091 C 
ATOM      9  C   UNL     1       3.854  -2.051   0.002  0.00  0.00    +0.034 C 
ATOM     10  C   UNL     1       5.357  -2.270  -0.016  0.00  0.00    +0.187 C 
ATOM     11  N   UNL     1       5.896  -0.900   0.003  0.00  0.00    -0.176 NA
ATOM     12  N   UNL     1       4.946  -0.115   0.020  0.00  0.00    -0.154 NA
BRANCH   8  16
ATOM     13  C   UNL     1       0.014   1.366   0.097  0.00  0.00    +0.000 A 
ATOM     14  C   UNL     1       1.201   2.076   0.093  0.00  0.00    +0.001 A 
ATOM     15  C   UNL     1       2.408   1.408   0.070  0.00  0.00    +0.010 A 
ATOM     16  C   UNL     1       2.430   0.014   0.052  0.00  0.00    +0.002 A 
ATOM     17  C   UNL     1       1.231  -0.696   0.056  0.00  0.00    +0.010 A 
ATOM     18  C   UNL     1       0.029  -0.017   0.079  0.00  0.00    +0.001 A 
ENDBRANCH   8  16
ENDBRANCH   1  10
BRANCH   5  19
ATOM     19  N   UNL     1       7.922  -2.394  -0.345  0.00  0.00    -0.264 NA
ATOM     20  H   UNL     1       8.913  -2.584  -0.330  0.00  0.00    +0.137 HD
ATOM     21  H   UNL     1       7.743  -1.428  -0.572  0.00  0.00    +0.137 HD
ENDBRANCH   5  19
BRANCH   4  22
ATOM     22  S   UNL     1       8.426  -4.624  -3.292  0.00  0.00    -0.115 S 
BRANCH  22  23
ATOM     23  C   UNL     1       7.065  -5.817  -3.175  0.00  0.00    +0.168 C 
BRANCH  23  24
ATOM     24  C   UNL     1       7.527  -7.159  -3.681  0.00  0.00    +0.227 C 
ATOM     25  O   UNL     1       8.664  -7.297  -4.081  0.00  0.00    -0.275 OA
ATOM     26  N   UNL     1       6.678  -8.206  -3.689  0.00  0.00    -0.283 N 
ATOM     27  H   UNL     1       5.790  -8.113  -3.310  0.00  0.00    +0.155 HD
BRANCH  26  28
ATOM     28  C   UNL     1       7.078  -9.427  -4.245  0.00  0.00    +0.069 A 
ATOM     29  C   UNL     1       8.397  -9.844  -4.133  0.00  0.00    +0.026 A 
ATOM     30  C   UNL     1       8.789 -11.050  -4.682  0.00  0.00    +0.002 A 
ATOM     31  C   UNL     1       7.869 -11.842  -5.343  0.00  0.00    +0.003 A 
ATOM     32  C   UNL     1       6.553 -11.431  -5.458  0.00  0.00    +0.040 A 
ATOM     33  C   UNL     1       6.153 -10.228  -4.905  0.00  0.00    +0.144 A 
ATOM     34  F   UNL     1       4.867  -9.829  -5.012  0.00  0.00    -0.204 F 
ENDBRANCH  26  28
ENDBRANCH  23  24
ENDBRANCH  22  23
ENDBRANCH   4  22
TORSDOF 7
