REMARK  Name = ZINC24337252
REMARK  13 active torsions:
REMARK  status: ('A' for Active; 'I' for Inactive)
REMARK    1  A    between atoms: C_1  and  C_2
REMARK    2  A    between atoms: C_2  and  C_3
REMARK    3  A    between atoms: C_3  and  N_4
REMARK    4  A    between atoms: N_4  and  C_5
REMARK    5  A    between atoms: N_4  and  C_16
REMARK    6  A    between atoms: C_5  and  C_6
REMARK    7  A    between atoms: C_9  and  C_11
REMARK    8  A    between atoms: C_16  and  C_17
REMARK    9  A    between atoms: N_19  and  C_20
REMARK   10  A    between atoms: C_21  and  C_33
REMARK   11  A    between atoms: C_22  and  C_32
REMARK   12  A    between atoms: C_23  and  C_31
REMARK   13  A    between atoms: N_24  and  C_25
REMARK                            x       y       z     vdW  Elec       q    Type
REMARK                         _______ _______ _______ _____ _____    ______ ____
ROOT
ATOM      1  C   UNL     1       4.590   1.512   3.611  0.00  0.00    +0.202 C 
ATOM      2  O   UNL     1       4.065   1.158   4.646  0.00  0.00    -0.278 OA
ATOM      3  N   UNL     1       5.851   1.986   3.623  0.00  0.00    -0.272 N 
ATOM      4  H   UNL     1       6.302   2.371   2.697  0.00  0.00    +0.156 HD
ENDROOT
BRANCH   3   5
ATOM      5  C   UNL     1       6.581   1.987   4.803  0.00  0.00    +0.123 A 
ATOM      6  C   UNL     1       6.555   1.002   5.780  0.00  0.00    +0.095 A 
ATOM      7  C   UNL     1       7.485   1.446   6.825  0.00  0.00    -0.011 A 
ATOM      8  C   UNL     1       7.988   2.623   6.420  0.00  0.00    +0.022 A 
ATOM      9  N   UNL     1       7.452   2.949   5.202  0.00  0.00    -0.329 N 
ATOM     10  C   UNL     1       8.991   3.452   7.181  0.00  0.00    +0.064 C 
ATOM     11  C   UNL     1       7.812   0.721   8.106  0.00  0.00    +0.047 C 
BRANCH   9  12
ATOM     12  C   UNL     1       7.769   4.162   4.444  0.00  0.00    +0.089 C 
ATOM     13  C   UNL     1       6.475   4.906   4.108  0.00  0.00    +0.025 C 
ATOM     14  C   UNL     1       6.806   6.172   3.316  0.00  0.00    +0.002 C 
ATOM     15  C   UNL     1       7.525   5.790   2.020  0.00  0.00    +0.000 C 
ATOM     16  C   UNL     1       8.819   5.045   2.356  0.00  0.00    +0.002 C 
ATOM     17  C   UNL     1       8.488   3.779   3.148  0.00  0.00    +0.025 C 
ENDBRANCH   9  12
BRANCH   6  18
ATOM     18  C   UNL     1       5.778  -0.201   5.772  0.00  0.00    +0.103 C 
ATOM     19  N   UNL     1       5.162  -1.155   5.765  0.00  0.00    -0.191 NA
ENDBRANCH   6  18
ENDBRANCH   3   5
BRANCH   1  20
ATOM     20  C   UNL     1       3.830   1.422   2.313  0.00  0.00    +0.020 C 
BRANCH  20  21
ATOM     21  N   UNL     1       2.443   1.021   2.584  0.00  0.00    +0.391 N 
ATOM     22  H   UNL     1       2.461   0.249   3.368  0.00  0.00    -0.080 HD
BRANCH  21  23
ATOM     23  C   UNL     1       1.822   0.435   1.388  0.00  0.00    -0.078 C 
BRANCH  23  25
ATOM     24  C   UNL     1       1.719  -1.588  -0.074  0.00  0.00    +0.002 C 
ATOM     25  C   UNL     1       2.357  -0.983   1.178  0.00  0.00    -0.022 C 
ENDBRANCH  23  25
ENDBRANCH  21  23
BRANCH  21  26
ATOM     26  C   UNL     1       1.655   2.155   3.084  0.00  0.00    +0.021 C 
BRANCH  26  27
ATOM     27  C   UNL     1       0.321   1.659   3.580  0.00  0.00    +0.202 A 
ATOM     28  N   UNL     1       0.048   1.268   4.793  0.00  0.00    -0.114 NA
ATOM     29  N   UNL     1      -1.186   0.912   4.864  0.00  0.00    -0.107 NA
ATOM     30  C   UNL     1      -1.750   1.066   3.686  0.00  0.00    +0.255 A 
ATOM     31  O   UNL     1      -0.803   1.543   2.851  0.00  0.00    -0.422 OA
BRANCH  30  32
ATOM     32  C   UNL     1      -3.149   0.773   3.342  0.00  0.00    +0.076 A 
ATOM     33  C   UNL     1      -4.159   0.280   4.147  0.00  0.00    +0.021 A 
ATOM     34  C   UNL     1      -5.404   0.091   3.594  0.00  0.00    +0.008 A 
ATOM     35  C   UNL     1      -5.599   0.380   2.281  0.00  0.00    +0.046 A 
ATOM     36  S   UNL     1      -3.986   0.954   1.775  0.00  0.00    -0.092 S 
ENDBRANCH  30  32
ENDBRANCH  26  27
ENDBRANCH  21  26
ENDBRANCH  20  21
ENDBRANCH   1  20
TORSDOF 10
