REMARK  Name = ZINC12716169
REMARK  7 active torsions:
REMARK  status: ('A' for Active; 'I' for Inactive)
REMARK    1  A    between atoms: C_1  and  C_2
REMARK    2  A    between atoms: C_6  and  C_8
REMARK    3  A    between atoms: C_8  and  N_9
REMARK    4  A    between atoms: C_10  and  C_12
REMARK    5  A    between atoms: C_12  and  C_13
REMARK    6  A    between atoms: C_20  and  C_21
REMARK    7  A    between atoms: C_20  and  N_59
REMARK                            x       y       z     vdW  Elec       q    Type
REMARK                         _______ _______ _______ _____ _____    ______ ____
ROOT
ATOM      1  C   UNL     1      -2.952  -3.892   4.496  0.00  0.00    +0.089 C 
ENDROOT
BRANCH   1   2
ATOM      2  C   UNL     1      -2.939  -4.749   5.763  0.00  0.00    +0.028 C 
ATOM      3  C   UNL     1      -2.057  -5.947   5.546  0.00  0.00    +0.200 C 
ATOM      4  O   UNL     1      -2.128  -6.536   4.489  0.00  0.00    -0.278 OA
ATOM      5  N   UNL     1      -1.198  -6.389   6.470  0.00  0.00    -0.318 N 
ATOM      6  C   UNL     1      -1.010  -5.730   7.760  0.00  0.00    +0.085 C 
ATOM      7  C   UNL     1      -2.197  -4.812   8.057  0.00  0.00    -0.058 C 
ATOM      8  H   UNL     1      -0.676  -7.183   6.275  0.00  0.00    +0.149 HD
ATOM      9  N   UNL     1      -2.411  -3.945   6.881  0.00  0.00    +0.391 N 
ATOM     10  H   UNL     1      -1.513  -3.531   6.602  0.00  0.00    -0.080 HD
BRANCH   9  11
ATOM     11  C   UNL     1      -3.359  -2.858   7.216  0.00  0.00    -0.039 C 
BRANCH  11  12
ATOM     12  C   UNL     1      -2.659  -1.853   8.094  0.00  0.00    -0.029 A 
ATOM     13  C   UNL     1      -2.870  -1.863   9.460  0.00  0.00    +0.004 A 
ATOM     14  C   UNL     1      -2.224  -0.945  10.266  0.00  0.00    +0.000 A 
ATOM     15  C   UNL     1      -1.374  -0.009   9.706  0.00  0.00    +0.003 A 
ATOM     16  C   UNL     1      -1.165   0.006   8.340  0.00  0.00    +0.038 A 
ATOM     17  C   UNL     1      -1.808  -0.917   7.532  0.00  0.00    +0.125 A 
ATOM     18  F   UNL     1      -1.606  -0.903   6.196  0.00  0.00    -0.205 F 
ENDBRANCH  11  12
ENDBRANCH   9  11
ENDBRANCH   1   2
BRANCH   1  20
ATOM     19  N   UNL     1      -1.305  -2.710   3.078  0.00  0.00    -0.308 N 
ATOM     20  C   UNL     1      -1.558  -3.395   4.211  0.00  0.00    +0.212 C 
ATOM     21  O   UNL     1      -0.664  -3.612   5.001  0.00  0.00    -0.276 OA
ATOM     22  H   UNL     1      -2.020  -2.537   2.446  0.00  0.00    +0.149 HD
BRANCH  19  23
ATOM     23  C   UNL     1       0.050  -2.228   2.801  0.00  0.00    +0.180 C 
BRANCH  23  29
ATOM     24  C   UNL     1      -0.439   1.949   0.308  0.00  0.00    +0.066 C 
ATOM     25  C   UNL     1      -0.168   0.467   0.323  0.00  0.00    +0.045 A 
ATOM     26  C   UNL     1       0.080  -0.214  -0.864  0.00  0.00    -0.005 A 
ATOM     27  C   UNL     1       0.332  -1.567  -0.804  0.00  0.00    +0.048 A 
ATOM     28  N   UNL     1       0.310  -2.172   0.379  0.00  0.00    -0.235 NA
ATOM     29  C   UNL     1       0.064  -1.498   1.482  0.00  0.00    +0.146 A 
ATOM     30  N   UNL     1      -0.171  -0.201   1.463  0.00  0.00    -0.235 NA
ATOM     31  C   UNL     1       0.633  -2.390  -2.026  0.00  0.00    +0.056 C 
ATOM     32  C   UNL     1       0.179  -1.653  -3.289  0.00  0.00    +0.006 C 
ATOM     33  C   UNL     1       0.767  -0.237  -3.257  0.00  0.00    +0.005 C 
ATOM     34  C   UNL     1       0.063   0.554  -2.155  0.00  0.00    +0.039 C 
ENDBRANCH  23  29
ENDBRANCH  19  23
ENDBRANCH   1  20
TORSDOF 6
