REMARK  Name = ZINC11665713
REMARK  9 active torsions:
REMARK  status: ('A' for Active; 'I' for Inactive)
REMARK    1  A    between atoms: C_1  and  C_2
REMARK    2  A    between atoms: C_2  and  O_3
REMARK    3  A    between atoms: O_3  and  C_4
REMARK    4  A    between atoms: C_4  and  C_5
REMARK    5  A    between atoms: C_5  and  N_6
REMARK    6  A    between atoms: N_15  and  C_16
REMARK    7  A    between atoms: C_16  and  C_18
REMARK    8  A    between atoms: N_23  and  S_24
REMARK    9  A    between atoms: S_24  and  C_27
REMARK                            x       y       z     vdW  Elec       q    Type
REMARK                         _______ _______ _______ _____ _____    ______ ____
ROOT
ATOM      1  N   UNL     1       2.144  11.370  -2.237  0.00  0.00    -0.317 N 
ATOM      2  C   UNL     1       2.339  12.546  -1.535  0.00  0.00    +0.093 A 
ATOM      3  C   UNL     1       3.208  13.609  -1.838  0.00  0.00    +0.148 A 
ATOM      4  C   UNL     1       3.276  14.715  -1.023  0.00  0.00    +0.040 A 
ATOM      5  C   UNL     1       2.495  14.816   0.117  0.00  0.00    +0.004 A 
ATOM      6  C   UNL     1       1.632  13.784   0.438  0.00  0.00    +0.017 A 
ATOM      7  C   UNL     1       1.562  12.678  -0.376  0.00  0.00    +0.042 A 
ATOM      8  S   UNL     1       0.618  11.175  -0.346  0.00  0.00    -0.052 S 
ATOM      9  C   UNL     1       1.252  10.449  -1.788  0.00  0.00    +0.167 A 
ATOM     10  N   UNL     1       0.936   9.273  -2.328  0.00  0.00    -0.155 NA
ATOM     11  F   UNL     1       3.984  13.543  -2.942  0.00  0.00    -0.203 F 
ENDROOT
BRANCH  10  12
ATOM     12  C   UNL     1       0.031   8.495  -1.744  0.00  0.00    +0.257 C 
ATOM     13  O   UNL     1      -0.509   8.857  -0.716  0.00  0.00    -0.272 OA
BRANCH  12  14
ATOM     14  C   UNL     1      -0.327   7.165  -2.355  0.00  0.00    +0.168 C 
ATOM     15  C   UNL     1      -0.938   7.376  -3.757  0.00  0.00    +0.031 C 
ATOM     16  C   UNL     1      -2.065   6.311  -3.810  0.00  0.00    +0.019 C 
ATOM     17  C   UNL     1      -2.561   6.310  -2.342  0.00  0.00    +0.110 C 
ATOM     18  N   UNL     1      -1.343   6.494  -1.532  0.00  0.00    -0.164 NA
BRANCH  18  19
ATOM     19  S   UNL     1      -1.154   6.028   0.045  0.00  0.00    +0.068 S 
ATOM     20  O   UNL     1      -2.457   5.961   0.608  0.00  0.00    -0.152 OA
ATOM     21  O   UNL     1      -0.129   6.847   0.591  0.00  0.00    -0.152 OA
BRANCH  19  22
ATOM     22  C   UNL     1      -0.527   4.381   0.031  0.00  0.00    +0.144 A 
ATOM     23  C   UNL     1       0.760   3.958   0.016  0.00  0.00    +0.038 A 
ATOM     24  C   UNL     1       1.021   2.600   0.006  0.00  0.00    +0.030 A 
ATOM     25  C   UNL     1      -0.021   1.732   0.012  0.00  0.00    +0.080 A 
ATOM     26  S   UNL     1      -1.423   2.837   0.023  0.00  0.00    -0.057 S 
ATOM     27 CL   UNL     1       0.002  -0.004   0.002  0.00  0.00    -0.076 Cl
ENDBRANCH  19  22
ENDBRANCH  18  19
ENDBRANCH  12  14
ENDBRANCH  10  12
BRANCH   1  28
ATOM     28  C   UNL     1       2.899  11.118  -3.466  0.00  0.00    +0.152 C 
BRANCH  28  29
ATOM     29  C   UNL     1       2.120  11.663  -4.665  0.00  0.00    +0.181 C 
BRANCH  29  30
ATOM     30  O   UNL     1       2.857  11.417  -5.864  0.00  0.00    -0.378 OA
BRANCH  30  32
ATOM     31  C   UNL     1       3.088  11.574  -8.265  0.00  0.00    +0.034 C 
ATOM     32  C   UNL     1       2.214  11.890  -7.049  0.00  0.00    +0.156 C 
ENDBRANCH  30  32
ENDBRANCH  29  30
ENDBRANCH  28  29
ENDBRANCH   1  28
TORSDOF 8
