REMARK  Name = ZINC45192152
REMARK  9 active torsions:
REMARK  status: ('A' for Active; 'I' for Inactive)
REMARK    1  A    between atoms: C_1  and  O_2
REMARK    2  A    between atoms: O_2  and  C_3
REMARK    3  A    between atoms: C_10  and  C_13
REMARK    4  A    between atoms: C_13  and  C_14
REMARK    5  A    between atoms: C_20  and  C_23
REMARK    6  A    between atoms: C_23  and  N_24
REMARK    7  A    between atoms: N_24  and  C_25
REMARK    8  A    between atoms: C_25  and  C_26
REMARK    9  A    between atoms: C_30  and  C_32
REMARK                            x       y       z     vdW  Elec       q    Type
REMARK                         _______ _______ _______ _____ _____    ______ ____
ROOT
ATOM      1  C   UNL     1      -4.558   2.277   1.459  0.00  0.00    +0.220 C 
ATOM      2  O   UNL     1      -4.594   1.489   2.381  0.00  0.00    -0.275 OA
ATOM      3  N   UNL     1      -4.483   3.600   1.705  0.00  0.00    -0.297 N 
ATOM      4  C   UNL     1      -4.444   4.574   0.603  0.00  0.00    +0.136 C 
ATOM      5  C   UNL     1      -3.265   5.525   0.840  0.00  0.00    +0.179 C 
ATOM      6  O   UNL     1      -3.353   6.064   2.161  0.00  0.00    -0.375 OA
ATOM      7  C   UNL     1      -3.259   5.085   3.200  0.00  0.00    +0.119 C 
ATOM      8  C   UNL     1      -4.444   4.112   3.084  0.00  0.00    +0.137 C 
ENDROOT
BRANCH   1   9
ATOM      9  C   UNL     1      -4.597   1.776   0.038  0.00  0.00    +0.136 C 
BRANCH   9  17
ATOM     10  C   UNL     1      -1.197  -0.636   0.010  0.00  0.00    +0.215 A 
ATOM     11  C   UNL     1      -1.232  -2.036   0.009  0.00  0.00    +0.068 A 
ATOM     12  C   UNL     1      -2.431  -2.686   0.017  0.00  0.00    +0.015 A 
ATOM     13  C   UNL     1      -3.609  -1.913   0.027  0.00  0.00    +0.001 A 
ATOM     14  C   UNL     1      -4.876  -2.517   0.037  0.00  0.00    +0.013 A 
ATOM     15  C   UNL     1      -5.993  -1.739   0.047  0.00  0.00    +0.039 A 
ATOM     16  C   UNL     1      -5.895  -0.347   0.047  0.00  0.00    +0.129 A 
ATOM     17  C   UNL     1      -4.680   0.271   0.038  0.00  0.00    +0.023 A 
ATOM     18  C   UNL     1      -3.506  -0.500   0.028  0.00  0.00    +0.081 A 
ATOM     19  N   UNL     1      -2.300   0.081   0.025  0.00  0.00    -0.213 NA
ATOM     20  F   UNL     1      -7.021   0.399   0.056  0.00  0.00    -0.205 F 
BRANCH  10  22
ATOM     21  C   UNL     1      -0.017   1.425   0.010  0.00  0.00    +0.279 C 
ATOM     22  O   UNL     1       0.002  -0.004   0.002  0.00  0.00    -0.480 OA
ENDBRANCH  10  22
ENDBRANCH   9  17
ENDBRANCH   1   9
BRANCH   7  23
ATOM     23  C   UNL     1      -3.301   5.780   4.562  0.00  0.00    -0.049 C 
BRANCH  23  24
ATOM     24  N   UNL     1      -2.174   6.716   4.669  0.00  0.00    +0.384 N 
ATOM     25  H   UNL     1      -1.306   6.210   4.577  0.00  0.00    -0.085 HD
ATOM     26  H   UNL     1      -2.240   7.407   3.937  0.00  0.00    -0.085 HD
BRANCH  24  27
ATOM     27  C   UNL     1      -2.214   7.384   5.977  0.00  0.00    -0.026 C 
BRANCH  27  28
ATOM     28  C   UNL     1      -1.058   8.344   6.087  0.00  0.00    +0.025 A 
ATOM     29  C   UNL     1      -1.246   9.677   5.773  0.00  0.00    +0.021 A 
ATOM     30  C   UNL     1      -0.179  10.558   5.876  0.00  0.00    +0.004 A 
ATOM     31  C   UNL     1       1.046  10.067   6.292  0.00  0.00    +0.028 A 
ATOM     32  C   UNL     1       1.165   8.711   6.593  0.00  0.00    +0.072 A 
ATOM     33  N   UNL     1       0.118   7.902   6.486  0.00  0.00    -0.254 NA
BRANCH  32  34
ATOM     34  C   UNL     1       2.470   8.169   7.040  0.00  0.00    +0.007 A 
ATOM     35  C   UNL     1       2.643   6.802   7.241  0.00  0.00    +0.017 A 
ATOM     36  C   UNL     1       3.848   6.346   7.649  0.00  0.00    +0.046 A 
ATOM     37  S   UNL     1       4.802   7.850   7.767  0.00  0.00    -0.104 S 
ATOM     38  C   UNL     1       3.535   9.000   7.259  0.00  0.00    +0.055 A 
ENDBRANCH  32  34
ENDBRANCH  27  28
ENDBRANCH  24  27
ENDBRANCH  23  24
ENDBRANCH   7  23
TORSDOF 8
