REMARK  Name = ZINC40010982
REMARK  13 active torsions:
REMARK  status: ('A' for Active; 'I' for Inactive)
REMARK    1  A    between atoms: C_1  and  C_2
REMARK    2  A    between atoms: C_5  and  C_36
REMARK    3  A    between atoms: C_10  and  C_14
REMARK    4  A    between atoms: C_18  and  O_34
REMARK    5  A    between atoms: C_19  and  O_32
REMARK    6  A    between atoms: N_24  and  C_25
REMARK    7  A    between atoms: C_25  and  N_27
REMARK    8  A    between atoms: N_27  and  C_28
REMARK    9  A    between atoms: C_28  and  C_29
REMARK   10  A    between atoms: C_29  and  O_30
REMARK   11  A    between atoms: O_30  and  C_31
REMARK   12  A    between atoms: O_32  and  C_33
REMARK   13  A    between atoms: O_34  and  C_35
REMARK                            x       y       z     vdW  Elec       q    Type
REMARK                         _______ _______ _______ _____ _____    ______ ____
ROOT
ATOM      1  C   UNL     1      -1.205  -0.612   4.536  0.00  0.00    +0.121 C 
ATOM      2  C   UNL     1      -1.122  -1.303   5.874  0.00  0.00    -0.019 A 
ATOM      3  C   UNL     1       0.068  -1.198   6.583  0.00  0.00    +0.055 A 
ATOM      4  C   UNL     1       0.204  -1.800   7.820  0.00  0.00    +0.162 A 
ATOM      5  C   UNL     1      -0.863  -2.515   8.357  0.00  0.00    +0.162 A 
ATOM      6  C   UNL     1      -2.043  -2.619   7.647  0.00  0.00    +0.053 A 
ATOM      7  C   UNL     1      -2.175  -2.018   6.400  0.00  0.00    -0.037 A 
ATOM      8  C   UNL     1      -3.482  -2.200   5.675  0.00  0.00    +0.054 C 
ATOM      9  C   UNL     1      -3.660  -1.130   4.598  0.00  0.00    +0.112 C 
ATOM     10  N   UNL     1      -2.409  -1.054   3.826  0.00  0.00    -0.304 N 
ENDROOT
BRANCH   1  20
ATOM     11  C   UNL     1       0.019  -5.345   2.960  0.00  0.00    +0.044 C 
ATOM     12  C   UNL     1       1.145  -4.625   3.656  0.00  0.00    -0.042 A 
ATOM     13  C   UNL     1       2.234  -5.306   4.097  0.00  0.00    +0.004 A 
ATOM     14  C   UNL     1       3.285  -4.656   4.743  0.00  0.00    +0.005 A 
ATOM     15  C   UNL     1       3.289  -3.316   4.971  0.00  0.00    -0.029 A 
ATOM     16  C   UNL     1       2.208  -2.518   4.554  0.00  0.00    +0.043 A 
ATOM     17  N   UNL     1       2.223  -1.204   4.783  0.00  0.00    -0.284 N 
ATOM     18  C   UNL     1       1.242  -0.397   4.418  0.00  0.00    +0.226 C 
ATOM     19  O   UNL     1       1.312   0.795   4.654  0.00  0.00    -0.275 OA
ATOM     20  C   UNL     1       0.032  -0.960   3.706  0.00  0.00    +0.123 C 
ATOM     21  C   UNL     1       0.011  -2.453   3.444  0.00  0.00    -0.002 C 
ATOM     22  C   UNL     1       1.087  -3.177   3.864  0.00  0.00    -0.004 A 
ATOM     23  C   UNL     1       4.460  -2.681   5.676  0.00  0.00    +0.045 C 
ATOM     24  H   UNL     1       2.990  -0.823   5.238  0.00  0.00    +0.155 HD
ENDBRANCH   1  20
BRANCH  10  25
ATOM     25  C   UNL     1      -2.373  -1.377   2.518  0.00  0.00    +0.133 C 
ATOM     26  S   UNL     1      -0.878  -1.404   1.684  0.00  0.00    -0.019 S 
BRANCH  25  27
ATOM     27  N   UNL     1      -3.513  -1.679   1.866  0.00  0.00    -0.324 N 
ATOM     28  H   UNL     1      -4.367  -1.594   2.318  0.00  0.00    +0.148 HD
BRANCH  27  29
ATOM     29  C   UNL     1      -3.463  -2.136   0.475  0.00  0.00    +0.131 C 
BRANCH  29  30
ATOM     30  C   UNL     1      -4.884  -2.408  -0.024  0.00  0.00    +0.178 C 
BRANCH  30  31
ATOM     31  O   UNL     1      -5.621  -1.184  -0.054  0.00  0.00    -0.381 OA
ATOM     32  C   UNL     1      -6.968  -1.328  -0.508  0.00  0.00    +0.194 C 
ENDBRANCH  30  31
ENDBRANCH  29  30
ENDBRANCH  27  29
ENDBRANCH  25  27
ENDBRANCH  10  25
BRANCH   5  33
ATOM     33  O   UNL     1      -0.743  -3.107   9.576  0.00  0.00    -0.491 OA
ATOM     34  C   UNL     1      -1.880  -3.824  10.062  0.00  0.00    +0.277 C 
ENDBRANCH   5  33
BRANCH   4  35
ATOM     35  O   UNL     1       1.373  -1.695   8.507  0.00  0.00    -0.491 OA
ATOM     36  C   UNL     1       2.423  -0.946   7.891  0.00  0.00    +0.277 C 
ENDBRANCH   4  35
TORSDOF 8
