REMARK  Name = ZINC53255284
REMARK  5 active torsions:
REMARK  status: ('A' for Active; 'I' for Inactive)
REMARK    1  A    between atoms: C_3  and  S_15
REMARK    2  A    between atoms: C_6  and  N_7
REMARK    3  A    between atoms: N_7  and  C_8
REMARK    4  A    between atoms: C_8  and  C_9
REMARK    5  A    between atoms: S_15  and  C_18
REMARK                            x       y       z     vdW  Elec       q    Type
REMARK                         _______ _______ _______ _____ _____    ______ ____
ROOT
ATOM      1  C   UNL     1      -0.017   1.385   0.010  0.00  0.00    +0.025 A 
ATOM      2  C   UNL     1       1.171   2.090   0.002  0.00  0.00    +0.029 A 
ATOM      3  C   UNL     1       2.377   1.415  -0.013  0.00  0.00    +0.098 A 
ATOM      4  C   UNL     1       2.400   0.032  -0.021  0.00  0.00    +0.029 A 
ATOM      5  C   UNL     1       1.216  -0.679  -0.014  0.00  0.00    +0.025 A 
ATOM      6  C   UNL     1       0.002  -0.004   0.002  0.00  0.00    +0.027 A 
ENDROOT
BRANCH   3   7
ATOM      7  S   UNL     1       3.890   2.319  -0.024  0.00  0.00    +0.091 S 
ATOM      8  O   UNL     1       4.828   1.448  -0.641  0.00  0.00    -0.161 OA
ATOM      9  O   UNL     1       3.562   3.567  -0.618  0.00  0.00    -0.161 OA
BRANCH   7  10
ATOM     10  C   UNL     1       4.308   2.549   1.726  0.00  0.00    +0.526 C 
ATOM     11  F   UNL     1       4.456   1.300   2.338  0.00  0.00    -0.150 F 
ATOM     12  F   UNL     1       5.506   3.264   1.829  0.00  0.00    -0.150 F 
ATOM     13  F   UNL     1       3.284   3.261   2.360  0.00  0.00    -0.150 F 
ENDBRANCH   7  10
ENDBRANCH   3   7
BRANCH   6  14
ATOM     14  N   UNL     1      -1.197  -0.720   0.010  0.00  0.00    -0.345 N 
ATOM     15  H   UNL     1      -2.044  -0.248   0.021  0.00  0.00    +0.146 HD
BRANCH  14  16
ATOM     16  C   UNL     1      -1.175  -2.185   0.002  0.00  0.00    +0.086 C 
BRANCH  16  17
ATOM     17  C   UNL     1      -2.610  -2.717   0.013  0.00  0.00    -0.055 C 
ATOM     18  C   UNL     1      -2.614  -4.254   0.206  0.00  0.00    -0.016 C 
ATOM     19  C   UNL     1      -4.025  -4.490   0.807  0.00  0.00    -0.021 C 
ATOM     20  C   UNL     1      -4.239  -3.244   1.691  0.00  0.00    -0.082 C 
ATOM     21  N   UNL     1      -3.346  -2.185   1.180  0.00  0.00    +0.382 N 
ATOM     22  H   UNL     1      -2.693  -1.916   1.900  0.00  0.00    -0.085 HD
ATOM     23  H   UNL     1      -3.892  -1.384   0.901  0.00  0.00    -0.085 HD
ENDBRANCH  16  17
ENDBRANCH  14  16
ENDBRANCH   6  14
TORSDOF 5
