REMARK  Name = ZINC39696296
REMARK  7 active torsions:
REMARK  status: ('A' for Active; 'I' for Inactive)
REMARK    1  A    between atoms: C_1  and  C_2
REMARK    2  A    between atoms: C_2  and  C_3
REMARK    3  A    between atoms: C_6  and  C_9
REMARK    4  A    between atoms: C_9  and  C_11
REMARK    5  A    between atoms: C_9  and  N_12
REMARK    6  A    between atoms: C_13  and  C_15
REMARK    7  A    between atoms: C_26  and  C_28
REMARK                            x       y       z     vdW  Elec       q    Type
REMARK                         _______ _______ _______ _____ _____    ______ ____
ROOT
ATOM      1  C   UNL     1       1.741  -4.909   6.808  0.00  0.00    +0.100 C 
ATOM      2  C   UNL     1       0.923  -5.725   5.782  0.00  0.00    +0.121 C 
ATOM      3  N   UNL     1       1.757  -6.917   5.502  0.00  0.00    -0.295 N 
ATOM      4  C   UNL     1       2.328  -7.286   6.820  0.00  0.00    +0.115 C 
ATOM      5  C   UNL     1       2.659  -5.937   7.490  0.00  0.00    -0.004 C 
ATOM      6  C   UNL     1       2.361  -6.003   8.985  0.00  0.00    -0.010 C 
ATOM      7  C   UNL     1       3.325  -6.989   9.650  0.00  0.00    -0.082 C 
ATOM      8  N   UNL     1       4.708  -6.551   9.425  0.00  0.00    +0.379 N 
ATOM      9  C   UNL     1       5.015  -6.581   7.990  0.00  0.00    -0.082 C 
ATOM     10  C   UNL     1       4.122  -5.577   7.254  0.00  0.00    -0.010 C 
ATOM     11  C   UNL     1       1.952  -7.529   4.317  0.00  0.00    +0.265 C 
ATOM     12  O   UNL     1       1.492  -7.047   3.301  0.00  0.00    -0.268 OA
ATOM     13  H   UNL     1       4.823  -5.611   9.773  0.00  0.00    -0.086 HD
ATOM     14  H   UNL     1       5.338  -7.168   9.915  0.00  0.00    -0.086 HD
ENDROOT
BRANCH  11  15
ATOM     15  C   UNL     1       2.729  -8.791   4.253  0.00  0.00    +0.126 A 
ATOM     16  C   UNL     1       3.023  -9.351   3.002  0.00  0.00    +0.033 A 
ATOM     17  C   UNL     1       3.738 -10.512   2.929  0.00  0.00    +0.012 A 
ATOM     18  C   UNL     1       4.159 -11.111   4.131  0.00  0.00    +0.000 A 
ATOM     19  C   UNL     1       4.898 -12.305   4.131  0.00  0.00    +0.010 A 
ATOM     20  C   UNL     1       5.288 -12.856   5.313  0.00  0.00    +0.001 A 
ATOM     21  C   UNL     1       4.965 -12.251   6.527  0.00  0.00    +0.002 A 
ATOM     22  C   UNL     1       4.251 -11.094   6.566  0.00  0.00    +0.028 A 
ATOM     23  C   UNL     1       3.828 -10.493   5.365  0.00  0.00    +0.072 A 
ATOM     24  N   UNL     1       3.132  -9.357   5.374  0.00  0.00    -0.242 NA
ENDBRANCH  11  15
BRANCH   1  26
ATOM     25  N   UNL     1       2.846  -2.697   6.732  0.00  0.00    -0.308 N 
ATOM     26  C   UNL     1       2.561  -3.857   6.107  0.00  0.00    +0.219 C 
ATOM     27  O   UNL     1       2.965  -4.053   4.981  0.00  0.00    -0.275 OA
ATOM     28  H   UNL     1       2.523  -2.540   7.633  0.00  0.00    +0.149 HD
BRANCH  25  29
ATOM     29  C   UNL     1       3.644  -1.674   6.051  0.00  0.00    +0.100 C 
ATOM     30  C   UNL     1       5.131  -1.974   6.245  0.00  0.00    +0.033 C 
BRANCH  29  34
ATOM     31  C   UNL     1       2.737   2.164   7.692  0.00  0.00    -0.048 A 
ATOM     32  C   UNL     1       2.923   2.021   6.330  0.00  0.00    +0.004 A 
ATOM     33  C   UNL     1       3.216   0.779   5.799  0.00  0.00    +0.006 A 
ATOM     34  C   UNL     1       3.325  -0.320   6.630  0.00  0.00    -0.027 A 
ATOM     35  C   UNL     1       3.140  -0.177   7.993  0.00  0.00    +0.006 A 
ATOM     36  C   UNL     1       2.850   1.066   8.524  0.00  0.00    +0.004 A 
BRANCH  31  38
ATOM     37  C   UNL     1       3.718   4.241   8.626  0.00  0.00    +0.009 C 
ATOM     38  C   UNL     1       2.417   3.518   8.272  0.00  0.00    +0.032 C 
ENDBRANCH  31  38
ENDBRANCH  29  34
ENDBRANCH  25  29
ENDBRANCH   1  26
TORSDOF 5
