REMARK  Name = ZINC32558490
REMARK  9 active torsions:
REMARK  status: ('A' for Active; 'I' for Inactive)
REMARK    1  A    between atoms: C_1  and  C_2
REMARK    2  A    between atoms: C_2  and  C_3
REMARK    3  A    between atoms: C_3  and  C_4
REMARK    4  A    between atoms: C_4  and  C_31
REMARK    5  A    between atoms: N_7  and  C_11
REMARK    6  A    between atoms: C_11  and  C_12
REMARK    7  A    between atoms: C_18  and  C_20
REMARK    8  A    between atoms: C_31  and  C_32
REMARK    9  A    between atoms: C_32  and  C_33
REMARK                            x       y       z     vdW  Elec       q    Type
REMARK                         _______ _______ _______ _____ _____    ______ ____
ROOT
ATOM      1  C   UNL     1      -2.093   0.054   2.239  0.00  0.00    +0.234 C 
ATOM      2  O   UNL     1      -1.084  -0.341   2.784  0.00  0.00    -0.274 OA
ATOM      3  N   UNL     1      -2.255  -0.122   0.913  0.00  0.00    -0.293 N 
ATOM      4  C   UNL     1      -3.427   0.306   0.126  0.00  0.00    +0.108 C 
ATOM      5  C   UNL     1      -3.434  -0.624  -1.113  0.00  0.00    +0.021 C 
ATOM      6  C   UNL     1      -1.916  -0.769  -1.401  0.00  0.00    +0.029 C 
ATOM      7  C   UNL     1      -1.294  -0.773   0.011  0.00  0.00    +0.106 C 
ENDROOT
BRANCH   7   8
ATOM      8  C   UNL     1       0.002  -0.004   0.002  0.00  0.00    -0.023 A 
ATOM      9  C   UNL     1      -0.017   1.378   0.010  0.00  0.00    +0.009 A 
ATOM     10  C   UNL     1       1.169   2.091   0.002  0.00  0.00    +0.050 A 
ATOM     11  C   UNL     1       2.377   1.413  -0.013  0.00  0.00    +0.162 A 
ATOM     12  C   UNL     1       2.396   0.026  -0.021  0.00  0.00    +0.162 A 
ATOM     13  C   UNL     1       1.207  -0.684  -0.013  0.00  0.00    +0.055 A 
ATOM     14  O   UNL     1       3.591  -0.632  -0.038  0.00  0.00    -0.488 OA
ATOM     15  C   UNL     1       4.380  -0.524   1.149  0.00  0.00    +0.232 C 
ATOM     16  C   UNL     1       5.208   0.751   1.132  0.00  0.00    +0.082 C 
ATOM     17  C   UNL     1       4.345   2.002   1.164  0.00  0.00    +0.232 C 
ATOM     18  O   UNL     1       3.554   2.104  -0.021  0.00  0.00    -0.488 OA
ENDBRANCH   7   8
BRANCH   1  19
ATOM     19  C   UNL     1      -3.165   0.742   3.045  0.00  0.00    +0.213 C 
BRANCH  19  23
ATOM     20  C   UNL     1      -2.415   0.350   6.661  0.00  0.00    +0.113 C 
ATOM     21  C   UNL     1      -3.033  -0.138   5.366  0.00  0.00    +0.247 C 
ATOM     22  O   UNL     1      -3.650  -1.167   5.192  0.00  0.00    -0.273 OA
ATOM     23  N   UNL     1      -2.753   0.809   4.449  0.00  0.00    -0.215 N 
ATOM     24  C   UNL     1      -2.058   1.821   4.981  0.00  0.00    +0.310 C 
ATOM     25  O   UNL     1      -1.693   2.794   4.351  0.00  0.00    -0.252 OA
ATOM     26  N   UNL     1      -1.808   1.640   6.290  0.00  0.00    -0.285 N 
ATOM     27  H   UNL     1      -1.279   2.237   7.048  0.00  0.00    +0.151 HD
BRANCH  20  28
ATOM     28  C   UNL     1      -1.345  -0.626   7.154  0.00  0.00    +0.035 C 
BRANCH  28  30
ATOM     29  C   UNL     1       0.825  -1.729   6.590  0.00  0.00    +0.004 C 
ATOM     30  C   UNL     1      -0.245  -0.753   6.098  0.00  0.00    -0.001 C 
ENDBRANCH  28  30
ENDBRANCH  20  28
BRANCH  20  31
ATOM     31  C   UNL     1      -3.492   0.550   7.729  0.00  0.00    +0.035 C 
BRANCH  31  32
ATOM     32  C   UNL     1      -4.575   1.488   7.192  0.00  0.00    -0.001 C 
ATOM     33  C   UNL     1      -5.652   1.687   8.261  0.00  0.00    +0.004 C 
ENDBRANCH  31  32
ENDBRANCH  20  31
ENDBRANCH  19  23
ENDBRANCH   1  19
TORSDOF 7
