REMARK  Name = ZINC01116411
REMARK  7 active torsions:
REMARK  status: ('A' for Active; 'I' for Inactive)
REMARK    1  A    between atoms: C_1  and  C_2
REMARK    2  A    between atoms: C_2  and  C_3
REMARK    3  A    between atoms: C_2  and  O_4
REMARK    4  A    between atoms: O_4  and  C_5
REMARK    5  A    between atoms: C_5  and  C_7
REMARK    6  A    between atoms: C_10  and  N_13
REMARK    7  A    between atoms: C_26  and  C_29
REMARK                            x       y       z     vdW  Elec       q    Type
REMARK                         _______ _______ _______ _____ _____    ______ ____
ROOT
ATOM      1  N   UNL     1      -0.780  -3.617   2.562  0.00  0.00    -0.210 N 
ATOM      2  C   UNL     1       0.419  -3.601   1.886  0.00  0.00    +0.231 C 
ATOM      3  O   UNL     1       1.442  -4.193   2.157  0.00  0.00    -0.274 OA
ATOM      4  C   UNL     1       0.185  -2.705   0.781  0.00  0.00    +0.103 C 
ATOM      5  C   UNL     1       1.048  -2.091  -0.286  0.00  0.00    +0.062 C 
ATOM      6  C   UNL     1       1.058  -0.566  -0.114  0.00  0.00    -0.035 A 
ATOM      7  C   UNL     1       2.221   0.163  -0.133  0.00  0.00    +0.004 A 
ATOM      8  C   UNL     1       2.149   1.545  -0.045  0.00  0.00    +0.000 A 
ATOM      9  C   UNL     1       0.929   2.187   0.060  0.00  0.00    +0.000 A 
ATOM     10  C   UNL     1      -0.247   1.445   0.100  0.00  0.00    +0.004 A 
ATOM     11  C   UNL     1      -0.159   0.090   0.035  0.00  0.00    -0.035 A 
ATOM     12  C   UNL     1      -1.357  -0.869   0.213  0.00  0.00    +0.065 C 
ATOM     13  C   UNL     1      -0.789  -1.659   1.396  0.00  0.00    +0.068 C 
ATOM     14  C   UNL     1      -1.641  -2.630   2.158  0.00  0.00    +0.234 C 
ATOM     15  O   UNL     1      -2.833  -2.557   2.370  0.00  0.00    -0.274 OA
ATOM     16  C   UNL     1      -0.050  -0.726   2.357  0.00  0.00    +0.022 C 
ATOM     17  C   UNL     1      -1.253  -1.682  -1.072  0.00  0.00    -0.035 A 
ATOM     18  C   UNL     1      -0.013  -2.210  -1.420  0.00  0.00    -0.035 A 
ATOM     19  C   UNL     1       0.225  -2.782  -2.627  0.00  0.00    +0.004 A 
ATOM     20  C   UNL     1      -0.832  -2.884  -3.528  0.00  0.00    +0.000 A 
ATOM     21  C   UNL     1      -2.085  -2.417  -3.176  0.00  0.00    +0.000 A 
ATOM     22  C   UNL     1      -2.304  -1.815  -1.946  0.00  0.00    +0.004 A 
ENDROOT
BRANCH   1  26
ATOM     23  C   UNL     1      -1.701  -6.389   5.537  0.00  0.00    +0.059 A 
ATOM     24  C   UNL     1      -0.460  -6.436   4.895  0.00  0.00    +0.017 A 
ATOM     25  C   UNL     1      -0.160  -5.519   3.913  0.00  0.00    +0.025 A 
ATOM     26  C   UNL     1      -1.089  -4.547   3.559  0.00  0.00    +0.044 A 
ATOM     27  C   UNL     1      -2.322  -4.493   4.200  0.00  0.00    +0.025 A 
ATOM     28  C   UNL     1      -2.632  -5.410   5.178  0.00  0.00    +0.017 A 
BRANCH  23  29
ATOM     29  C   UNL     1      -2.026  -7.369   6.590  0.00  0.00    +0.339 C 
ATOM     30  O   UNL     1      -1.215  -8.219   6.900  0.00  0.00    -0.245 OA
BRANCH  29  31
ATOM     31  O   UNL     1      -3.223  -7.322   7.207  0.00  0.00    -0.458 OA
BRANCH  31  33
ATOM     32  C   UNL     1      -4.423  -7.739   9.285  0.00  0.00    +0.052 C 
ATOM     33  C   UNL     1      -3.474  -8.318   8.234  0.00  0.00    +0.171 C 
ATOM     34  C   UNL     1      -4.112  -9.556   7.598  0.00  0.00    +0.052 C 
ENDBRANCH  31  33
ENDBRANCH  29  31
ENDBRANCH  23  29
ENDBRANCH   1  26
TORSDOF 4
