REMARK  Name = ZINC40099887
REMARK  17 active torsions:
REMARK  status: ('A' for Active; 'I' for Inactive)
REMARK    1  A    between atoms: C_1  and  C_2
REMARK    2  A    between atoms: C_5  and  C_9
REMARK    3  A    between atoms: C_9  and  C_11
REMARK    4  A    between atoms: N_15  and  C_31
REMARK    5  A    between atoms: C_16  and  C_18
REMARK    6  A    between atoms: C_21  and  O_26
REMARK    7  A    between atoms: C_22  and  O_24
REMARK    8  A    between atoms: O_24  and  C_25
REMARK    9  A    between atoms: O_26  and  C_27
REMARK   10  A    between atoms: C_27  and  C_28
REMARK   11  A    between atoms: C_28  and  C_29
REMARK   12  A    between atoms: C_28  and  C_30
REMARK   13  A    between atoms: C_31  and  C_32
REMARK   14  A    between atoms: C_32  and  O_33
REMARK   15  A    between atoms: O_33  and  C_34
REMARK   16  A    between atoms: C_34  and  C_35
REMARK   17  A    between atoms: C_35  and  O_36
REMARK                            x       y       z     vdW  Elec       q    Type
REMARK                         _______ _______ _______ _____ _____    ______ ____
ROOT
ATOM      1  C   UNL     1      -0.499  -5.816   1.506  0.00  0.00    +0.076 C 
ATOM      2  C   UNL     1      -0.407  -7.158   1.661  0.00  0.00    +0.249 C 
ATOM      3  C   UNL     1       0.112  -7.455   3.012  0.00  0.00    +0.288 C 
ATOM      4  O   UNL     1       0.308  -8.570   3.454  0.00  0.00    -0.266 OA
ATOM      5  N   UNL     1       0.336  -6.309   3.681  0.00  0.00    -0.281 N 
ATOM      6  C   UNL     1      -0.019  -5.194   2.796  0.00  0.00    +0.145 C 
ATOM      7  O   UNL     1      -0.738  -8.079   0.727  0.00  0.00    -0.282 OA
ENDROOT
BRANCH   6   8
ATOM      8  C   UNL     1       1.187  -4.329   2.537  0.00  0.00    -0.019 A 
ATOM      9  C   UNL     1       2.350  -4.895   2.049  0.00  0.00    +0.009 A 
ATOM     10  C   UNL     1       3.459  -4.106   1.809  0.00  0.00    +0.050 A 
ATOM     11  C   UNL     1       3.407  -2.744   2.058  0.00  0.00    +0.162 A 
ATOM     12  C   UNL     1       2.236  -2.174   2.549  0.00  0.00    +0.162 A 
ATOM     13  C   UNL     1       1.127  -2.970   2.782  0.00  0.00    +0.055 A 
BRANCH  12  14
ATOM     14  O   UNL     1       2.180  -0.837   2.795  0.00  0.00    -0.491 OA
ATOM     15  C   UNL     1       0.983  -0.338   3.394  0.00  0.00    +0.277 C 
ENDBRANCH  12  14
BRANCH  11  16
ATOM     16  O   UNL     1       4.498  -1.966   1.824  0.00  0.00    -0.488 OA
BRANCH  16  17
ATOM     17  C   UNL     1       5.626  -2.598   1.216  0.00  0.00    +0.232 C 
BRANCH  17  18
ATOM     18  C   UNL     1       6.778  -1.595   1.114  0.00  0.00    +0.020 C 
ATOM     19  C   UNL     1       7.240  -1.205   2.519  0.00  0.00    +0.010 C 
ATOM     20  C   UNL     1       7.942  -2.232   0.352  0.00  0.00    +0.010 C 
ENDBRANCH  17  18
ENDBRANCH  16  17
ENDBRANCH  11  16
ENDBRANCH   6   8
BRANCH   1  21
ATOM     21  C   UNL     1      -0.969  -5.104   0.313  0.00  0.00    +0.195 C 
ATOM     22  O   UNL     1      -0.365  -5.214  -0.738  0.00  0.00    -0.287 OA
BRANCH  21  27
ATOM     23  C   UNL     1      -5.665  -1.788   0.597  0.00  0.00    +0.047 C 
ATOM     24  C   UNL     1      -4.436  -2.656   0.524  0.00  0.00    -0.015 A 
ATOM     25  C   UNL     1      -3.684  -2.689  -0.638  0.00  0.00    +0.007 A 
ATOM     26  C   UNL     1      -2.558  -3.481  -0.712  0.00  0.00    +0.012 A 
ATOM     27  C   UNL     1      -2.175  -4.253   0.388  0.00  0.00    +0.025 A 
ATOM     28  C   UNL     1      -2.936  -4.216   1.557  0.00  0.00    +0.050 A 
ATOM     29  C   UNL     1      -4.060  -3.414   1.621  0.00  0.00    +0.127 A 
ATOM     30  F   UNL     1      -4.795  -3.373   2.754  0.00  0.00    -0.205 F 
ENDBRANCH  21  27
ENDBRANCH   1  21
BRANCH   5  31
ATOM     31  C   UNL     1       0.851  -6.195   5.048  0.00  0.00    +0.137 C 
BRANCH  31  32
ATOM     32  C   UNL     1       2.381  -6.209   5.020  0.00  0.00    +0.179 C 
BRANCH  32  33
ATOM     33  O   UNL     1       2.868  -4.867   4.957  0.00  0.00    -0.376 OA
BRANCH  33  34
ATOM     34  C   UNL     1       4.288  -4.759   5.075  0.00  0.00    +0.187 C 
BRANCH  34  35
ATOM     35  C   UNL     1       4.679  -3.284   5.189  0.00  0.00    +0.184 C 
BRANCH  35  36
ATOM     36  O   UNL     1       4.127  -2.736   6.387  0.00  0.00    -0.393 OA
ATOM     37  H   UNL     1       4.271  -1.785   6.487  0.00  0.00    +0.209 HD
ENDBRANCH  35  36
ENDBRANCH  34  35
ENDBRANCH  33  34
ENDBRANCH  32  33
ENDBRANCH  31  32
ENDBRANCH   5  31
TORSDOF 13
