REMARK  Name = ZINC10335591
REMARK  9 active torsions:
REMARK  status: ('A' for Active; 'I' for Inactive)
REMARK    1  A    between atoms: C_1  and  N_49
REMARK    2  A    between atoms: C_2  and  N_49
REMARK    3  A    between atoms: C_3  and  C_5
REMARK    4  A    between atoms: C_3  and  C_19
REMARK    5  A    between atoms: C_3  and  N_49
REMARK    6  A    between atoms: C_5  and  N_6
REMARK    7  A    between atoms: N_6  and  S_7
REMARK    8  A    between atoms: S_7  and  C_10
REMARK    9  A    between atoms: C_13  and  N_16
REMARK                            x       y       z     vdW  Elec       q    Type
REMARK                         _______ _______ _______ _____ _____    ______ ____
ROOT
ATOM      1  C   UNL     1      -0.250  -0.075   0.084  0.00  0.00    -0.022 C 
ENDROOT
BRANCH   1   2
ATOM      2  C   UNL     1       0.114  -0.759  -1.208  0.00  0.00    -0.052 A 
ATOM      3  C   UNL     1      -0.486  -0.387  -2.372  0.00  0.00    +0.002 A 
ATOM      4  C   UNL     1      -0.162  -1.008  -3.576  0.00  0.00    +0.001 A 
ATOM      5  C   UNL     1       0.764  -2.005  -3.624  0.00  0.00    +0.008 A 
ATOM      6  C   UNL     1       1.404  -2.416  -2.443  0.00  0.00    -0.018 A 
ATOM      7  C   UNL     1       1.079  -1.781  -1.219  0.00  0.00    -0.016 A 
ATOM      8  C   UNL     1       1.724  -2.188  -0.038  0.00  0.00    +0.009 A 
ATOM      9  C   UNL     1       2.653  -3.181  -0.087  0.00  0.00    +0.001 A 
ATOM     10  C   UNL     1       2.977  -3.802  -1.292  0.00  0.00    +0.001 A 
ATOM     11  C   UNL     1       2.366  -3.441  -2.453  0.00  0.00    +0.008 A 
ENDBRANCH   1   2
BRANCH   1  14
ATOM     12  C   UNL     1       2.006   0.562   0.691  0.00  0.00    -0.096 C 
ATOM     13  C   UNL     1       0.735   1.929  -0.852  0.00  0.00    -0.096 C 
ATOM     14  N   UNL     1       0.659   1.062   0.343  0.00  0.00    +0.381 N 
ATOM     15  H   UNL     1       0.293   1.610   1.130  0.00  0.00    -0.082 HD
ENDBRANCH   1  14
BRANCH   1  16
ATOM     16  C   UNL     1      -1.684   0.451  -0.004  0.00  0.00    +0.095 C 
BRANCH  16  17
ATOM     17  N   UNL     1      -1.997   1.219   1.204  0.00  0.00    -0.191 NA
ATOM     18  H   UNL     1      -1.428   1.147   1.986  0.00  0.00    +0.148 HD
BRANCH  17  19
ATOM     19  S   UNL     1      -3.323   2.211   1.234  0.00  0.00    +0.058 S 
ATOM     20  O   UNL     1      -3.370   2.787   2.532  0.00  0.00    -0.153 OA
ATOM     21  O   UNL     1      -3.268   2.998   0.053  0.00  0.00    -0.153 OA
BRANCH  19  22
ATOM     22  C   UNL     1      -4.746   1.182   1.088  0.00  0.00    +0.105 A 
ATOM     23  C   UNL     1      -5.259   0.885  -0.161  0.00  0.00    +0.031 A 
ATOM     24  C   UNL     1      -6.373   0.074  -0.277  0.00  0.00    +0.034 A 
ATOM     25  C   UNL     1      -6.980  -0.431   0.858  0.00  0.00    +0.126 A 
ATOM     26  C   UNL     1      -6.470  -0.130   2.107  0.00  0.00    +0.034 A 
ATOM     27  C   UNL     1      -5.354   0.677   2.222  0.00  0.00    +0.031 A 
BRANCH  25  28
ATOM     28  N   UNL     1      -8.175  -1.295   0.735  0.00  0.00    +0.056 N 
ATOM     29  O   UNL     1      -8.710  -1.741   1.734  0.00  0.00    -0.126 OA
ATOM     30  O   UNL     1      -8.624  -1.560  -0.366  0.00  0.00    -0.126 OA
ENDBRANCH  25  28
ENDBRANCH  19  22
ENDBRANCH  17  19
ENDBRANCH  16  17
ENDBRANCH   1  16
TORSDOF 7
