REMARK  Name = ZINC22283451
REMARK  4 active torsions:
REMARK  status: ('A' for Active; 'I' for Inactive)
REMARK    1  A    between atoms: C_9  and  S_11
REMARK    2  A    between atoms: S_11  and  C_12
REMARK    3  A    between atoms: C_12  and  C_13
REMARK    4  A    between atoms: C_26  and  C_28
REMARK                            x       y       z     vdW  Elec       q    Type
REMARK                         _______ _______ _______ _____ _____    ______ ____
ROOT
ATOM      1  C   UNL     1       0.002  -0.004   0.002  0.00  0.00    +0.231 C 
ATOM      2  O   UNL     1      -1.040  -0.625   0.009  0.00  0.00    -0.274 OA
ATOM      3  N   UNL     1      -0.016   1.344   0.009  0.00  0.00    -0.257 N 
ATOM      4  C   UNL     1       1.181   2.074   0.002  0.00  0.00    +0.058 A 
ATOM      5  C   UNL     1       1.965   2.133  -1.138  0.00  0.00    +0.025 A 
ATOM      6  C   UNL     1       3.130   2.877  -1.134  0.00  0.00    +0.002 A 
ATOM      7  C   UNL     1       3.514   3.564   0.003  0.00  0.00    +0.002 A 
ATOM      8  C   UNL     1       2.741   3.503   1.148  0.00  0.00    +0.025 A 
ATOM      9  C   UNL     1       1.579   2.750   1.155  0.00  0.00    +0.055 A 
ATOM     10  N   UNL     1       0.810   2.628   2.318  0.00  0.00    -0.284 N 
ATOM     11  C   UNL     1      -0.528   2.809   2.277  0.00  0.00    +0.219 C 
ATOM     12  O   UNL     1      -1.193   2.619   3.274  0.00  0.00    -0.275 OA
ATOM     13  C   UNL     1      -1.200   3.246   1.002  0.00  0.00    +0.128 C 
ATOM     14  C   UNL     1      -1.286   2.072   0.019  0.00  0.00    +0.194 C 
ATOM     15  H   UNL     1       1.294   2.383   3.275  0.00  0.00    +0.155 HD
ENDROOT
BRANCH  14  16
ATOM     16  C   UNL     1      -1.580   2.600  -1.386  0.00  0.00    +0.409 C 
ATOM     17  F   UNL     1      -1.664   1.527  -2.280  0.00  0.00    -0.169 F 
ATOM     18  F   UNL     1      -2.794   3.296  -1.378  0.00  0.00    -0.169 F 
ATOM     19  F   UNL     1      -0.552   3.461  -1.785  0.00  0.00    -0.169 F 
ENDBRANCH  14  16
BRANCH   1  20
ATOM     20  C   UNL     1       1.317  -0.740  -0.015  0.00  0.00    +0.172 C 
BRANCH  20  21
ATOM     21  S   UNL     1       1.011  -2.524  -0.021  0.00  0.00    -0.090 S 
BRANCH  21  30
ATOM     22  C   UNL     1       7.693  -3.190  -0.015  0.00  0.00    +0.000 A 
ATOM     23  C   UNL     1       7.245  -1.968   0.457  0.00  0.00    +0.002 A 
ATOM     24  C   UNL     1       5.900  -1.674   0.443  0.00  0.00    +0.028 A 
ATOM     25  C   UNL     1       4.976  -2.609  -0.048  0.00  0.00    +0.070 A 
ATOM     26  C   UNL     1       5.437  -3.837  -0.515  0.00  0.00    -0.012 A 
ATOM     27  C   UNL     1       6.791  -4.118  -0.498  0.00  0.00    +0.006 A 
ATOM     28  C   UNL     1       4.487  -4.883  -1.039  0.00  0.00    +0.113 C 
ATOM     29  S   UNL     1       2.969  -4.855  -0.045  0.00  0.00    -0.094 S 
ATOM     30  C   UNL     1       2.669  -3.119  -0.040  0.00  0.00    +0.132 C 
ATOM     31  N   UNL     1       3.657  -2.269  -0.045  0.00  0.00    -0.234 NA
ENDBRANCH  21  30
ENDBRANCH  20  21
ENDBRANCH   1  20
TORSDOF 4
