REMARK  Name = ZINC41268345
REMARK  7 active torsions:
REMARK  status: ('A' for Active; 'I' for Inactive)
REMARK    1  A    between atoms: C_1  and  C_2
REMARK    2  A    between atoms: C_5  and  N_9
REMARK    3  A    between atoms: C_6  and  C_8
REMARK    4  A    between atoms: C_15  and  C_17
REMARK    5  A    between atoms: N_20  and  C_23
REMARK    6  A    between atoms: C_23  and  C_24
REMARK    7  A    between atoms: C_27  and  C_29
REMARK                            x       y       z     vdW  Elec       q    Type
REMARK                         _______ _______ _______ _____ _____    ______ ____
ROOT
ATOM      1  C   UNL     1       1.418  -8.702  -1.355  0.00  0.00    +0.072 C 
ATOM      2  C   UNL     1       2.158  -8.232  -2.611  0.00  0.00    -0.006 C 
ATOM      3  C   UNL     1       3.449  -9.038  -2.768  0.00  0.00    -0.077 C 
ATOM      4  N   UNL     1       3.126 -10.465  -2.894  0.00  0.00    +0.386 N 
ATOM      5  C   UNL     1       2.481 -10.940  -1.664  0.00  0.00    -0.077 C 
ATOM      6  C   UNL     1       1.153 -10.207  -1.464  0.00  0.00    -0.006 C 
ATOM      7  H   UNL     1       2.501 -10.600  -3.674  0.00  0.00    -0.081 HD
ENDROOT
BRANCH   1  14
ATOM      8  N   UNL     1      -0.245  -4.955   1.356  0.00  0.00    -0.327 N 
ATOM      9  C   UNL     1      -1.461  -5.558   0.792  0.00  0.00    +0.124 C 
ATOM     10  C   UNL     1      -1.179  -5.966  -0.659  0.00  0.00    +0.126 C 
ATOM     11  N   UNL     1       0.075  -6.732  -0.696  0.00  0.00    -0.298 N 
ATOM     12  C   UNL     1       1.291  -6.130  -0.132  0.00  0.00    +0.126 C 
ATOM     13  C   UNL     1       1.009  -5.720   1.314  0.00  0.00    +0.124 C 
ATOM     14  C   UNL     1       0.108  -7.967  -1.236  0.00  0.00    +0.219 C 
ATOM     15  O   UNL     1      -0.916  -8.485  -1.628  0.00  0.00    -0.275 OA
BRANCH   8  20
ATOM     16  C   UNL     1      -0.387   0.237   3.631  0.00  0.00    +0.044 C 
ATOM     17  C   UNL     1      -0.349  -1.143   3.026  0.00  0.00    -0.050 A 
ATOM     18  C   UNL     1      -0.077  -1.298   1.679  0.00  0.00    +0.005 A 
ATOM     19  C   UNL     1      -0.042  -2.562   1.122  0.00  0.00    +0.023 A 
ATOM     20  C   UNL     1      -0.280  -3.676   1.916  0.00  0.00    +0.033 A 
ATOM     21  C   UNL     1      -0.552  -3.516   3.269  0.00  0.00    -0.029 A 
ATOM     22  C   UNL     1      -0.581  -2.250   3.821  0.00  0.00    +0.008 A 
ATOM     23  C   UNL     1      -0.811  -4.722   4.134  0.00  0.00    +0.045 C 
ENDBRANCH   8  20
ENDBRANCH   1  14
BRANCH   4  24
ATOM     24  C   UNL     1       4.361 -11.226  -3.122  0.00  0.00    +0.021 C 
BRANCH  24  25
ATOM     25  C   UNL     1       4.021 -12.673  -3.374  0.00  0.00    +0.202 A 
ATOM     26  N   UNL     1       3.782 -13.216  -4.535  0.00  0.00    -0.114 NA
ATOM     27  N   UNL     1       3.526 -14.468  -4.379  0.00  0.00    -0.107 NA
ATOM     28  C   UNL     1       3.593 -14.767  -3.103  0.00  0.00    +0.248 A 
ATOM     29  O   UNL     1       3.913 -13.636  -2.443  0.00  0.00    -0.422 OA
BRANCH  28  30
ATOM     30  C   UNL     1       3.365 -16.099  -2.501  0.00  0.00    +0.039 A 
ATOM     31  C   UNL     1       3.465 -16.270  -1.120  0.00  0.00    +0.014 A 
ATOM     32  C   UNL     1       3.251 -17.514  -0.565  0.00  0.00    +0.021 A 
ATOM     33  C   UNL     1       2.938 -18.592  -1.375  0.00  0.00    +0.041 A 
ATOM     34  C   UNL     1       2.839 -18.429  -2.747  0.00  0.00    +0.021 A 
ATOM     35  C   UNL     1       3.045 -17.188  -3.313  0.00  0.00    +0.014 A 
ATOM     36 CL   UNL     1       2.671 -20.156  -0.669  0.00  0.00    -0.084 Cl
ENDBRANCH  28  30
ENDBRANCH  24  25
ENDBRANCH   4  24
TORSDOF 5
