REMARK  Name = ZINC12659095
REMARK  10 active torsions:
REMARK  status: ('A' for Active; 'I' for Inactive)
REMARK    1  A    between atoms: C_1  and  C_2
REMARK    2  A    between atoms: C_2  and  C_36
REMARK    3  A    between atoms: C_7  and  C_18
REMARK    4  A    between atoms: C_7  and  C_19
REMARK    5  A    between atoms: C_20  and  C_21
REMARK    6  A    between atoms: C_21  and  N_70
REMARK    7  A    between atoms: C_22  and  C_23
REMARK    8  A    between atoms: C_22  and  N_70
REMARK    9  A    between atoms: C_29  and  C_30
REMARK   10  A    between atoms: C_29  and  N_70
REMARK                            x       y       z     vdW  Elec       q    Type
REMARK                         _______ _______ _______ _____ _____    ______ ____
ROOT
ATOM      1  C   UNL     1      -1.015   4.059  -1.791  0.00  0.00    -0.070 C 
ATOM      2  C   UNL     1      -1.824   4.213  -2.628  0.00  0.00    -0.118 C 
ENDROOT
BRANCH   1   8
ATOM      3  C   UNL     1       2.888   3.465   2.780  0.00  0.00    +0.056 C 
ATOM      4  C   UNL     1       1.603   2.674   3.034  0.00  0.00    +0.111 C 
ATOM      5  C   UNL     1       0.658   2.802   1.842  0.00  0.00    +0.066 C 
ATOM      6  C   UNL     1       1.248   2.148   0.594  0.00  0.00    +0.014 C 
ATOM      7  C   UNL     1       0.271   2.373  -0.568  0.00  0.00    +0.048 C 
ATOM      8  C   UNL     1      -0.001   3.867  -0.741  0.00  0.00    +0.127 C 
ATOM      9  O   UNL     1      -0.476   4.434   0.486  0.00  0.00    -0.353 OA
ATOM     10  C   UNL     1       0.452   4.293   1.556  0.00  0.00    +0.161 C 
ATOM     11  C   UNL     1      -0.008   4.961   2.818  0.00  0.00    +0.023 A 
ATOM     12  C   UNL     1      -0.700   6.156   2.747  0.00  0.00    +0.010 A 
ATOM     13  C   UNL     1      -1.123   6.787   3.901  0.00  0.00    +0.001 A 
ATOM     14  C   UNL     1      -0.854   6.222   5.134  0.00  0.00    +0.004 A 
ATOM     15  C   UNL     1      -0.167   5.028   5.211  0.00  0.00    +0.046 A 
ATOM     16  C   UNL     1       0.260   4.386   4.052  0.00  0.00    +0.127 A 
ATOM     17  O   UNL     1       0.923   3.208   4.174  0.00  0.00    -0.486 OA
ATOM     18  C   UNL     1       1.293   4.573  -1.153  0.00  0.00    +0.056 C 
ATOM     19  C   UNL     1       1.941   1.202   3.275  0.00  0.00    +0.056 C 
ENDBRANCH   1   8
BRANCH   2  20
ATOM     20  C   UNL     1      -2.838   4.405  -3.678  0.00  0.00    +0.013 C 
BRANCH  20  21
ATOM     21  N   UNL     1      -3.107   5.851  -3.821  0.00  0.00    +0.392 N 
ATOM     22  H   UNL     1      -3.319   6.244  -2.896  0.00  0.00    -0.080 HD
BRANCH  21  23
ATOM     23  C   UNL     1      -1.918   6.534  -4.373  0.00  0.00    -0.041 C 
BRANCH  23  24
ATOM     24  C   UNL     1      -2.072   8.019  -4.163  0.00  0.00    -0.064 A 
ATOM     25  C   UNL     1      -2.552   8.815  -5.187  0.00  0.00    +0.002 A 
ATOM     26  C   UNL     1      -2.699  10.176  -4.993  0.00  0.00    +0.000 A 
ATOM     27  C   UNL     1      -2.354  10.742  -3.780  0.00  0.00    +0.000 A 
ATOM     28  C   UNL     1      -1.869   9.947  -2.758  0.00  0.00    +0.000 A 
ATOM     29  C   UNL     1      -1.729   8.585  -2.950  0.00  0.00    +0.002 A 
ENDBRANCH  23  24
ENDBRANCH  21  23
BRANCH  21  30
ATOM     30  C   UNL     1      -4.269   6.063  -4.710  0.00  0.00    -0.041 C 
BRANCH  30  31
ATOM     31  C   UNL     1      -5.527   5.728  -3.949  0.00  0.00    -0.064 A 
ATOM     32  C   UNL     1      -6.089   4.470  -4.063  0.00  0.00    +0.002 A 
ATOM     33  C   UNL     1      -7.239   4.162  -3.361  0.00  0.00    +0.000 A 
ATOM     34  C   UNL     1      -7.834   5.115  -2.555  0.00  0.00    +0.000 A 
ATOM     35  C   UNL     1      -7.275   6.374  -2.446  0.00  0.00    +0.000 A 
ATOM     36  C   UNL     1      -6.121   6.681  -3.143  0.00  0.00    +0.002 A 
ENDBRANCH  30  31
ENDBRANCH  21  30
ENDBRANCH  20  21
ENDBRANCH   2  20
TORSDOF 7
