REMARK  Name = ZINC23857910
REMARK  11 active torsions:
REMARK  status: ('A' for Active; 'I' for Inactive)
REMARK    1  A    between atoms: C_1  and  N_2
REMARK    2  A    between atoms: C_9  and  C_11
REMARK    3  A    between atoms: C_11  and  C_13
REMARK    4  A    between atoms: C_11  and  N_30
REMARK    5  A    between atoms: C_13  and  N_14
REMARK    6  A    between atoms: C_15  and  C_17
REMARK    7  A    between atoms: C_19  and  O_28
REMARK    8  A    between atoms: C_20  and  O_26
REMARK    9  A    between atoms: C_22  and  N_23
REMARK   10  A    between atoms: O_26  and  C_27
REMARK   11  A    between atoms: O_28  and  C_29
REMARK                            x       y       z     vdW  Elec       q    Type
REMARK                         _______ _______ _______ _____ _____    ______ ____
ROOT
ATOM      1  C   UNL     1      -3.420   6.733   0.504  0.00  0.00    -0.020 C 
ENDROOT
BRANCH   1  10
ATOM      2  C   UNL     1      -0.265   3.635   5.224  0.00  0.00    +0.129 C 
ATOM      3  N   UNL     1      -0.562   3.165   3.864  0.00  0.00    -0.332 N 
ATOM      4  C   UNL     1       0.681   2.977   3.085  0.00  0.00    +0.109 C 
ATOM      5  C   UNL     1       0.230   3.291   1.640  0.00  0.00    +0.056 C 
ATOM      6  C   UNL     1      -0.959   4.208   1.850  0.00  0.00    -0.025 A 
ATOM      7  C   UNL     1      -1.366   4.085   3.174  0.00  0.00    +0.033 A 
ATOM      8  C   UNL     1      -2.448   4.839   3.623  0.00  0.00    +0.023 A 
ATOM      9  C   UNL     1      -3.106   5.691   2.760  0.00  0.00    +0.004 A 
ATOM     10  C   UNL     1      -2.697   5.802   1.444  0.00  0.00    -0.059 A 
ATOM     11  C   UNL     1      -1.621   5.059   0.991  0.00  0.00    +0.007 A 
ENDBRANCH   1  10
BRANCH   1  12
ATOM     12  N   UNL     1      -3.571   8.049   1.139  0.00  0.00    +0.385 N 
ATOM     13  C   UNL     1      -2.430   8.346   2.013  0.00  0.00    -0.078 C 
ATOM     14  C   UNL     1      -2.549   9.778   2.541  0.00  0.00    -0.019 C 
ATOM     15  C   UNL     1      -3.861   9.923   3.316  0.00  0.00    -0.004 C 
ATOM     16  C   UNL     1      -5.031   9.561   2.397  0.00  0.00    -0.019 C 
ATOM     17  C   UNL     1      -4.840   8.136   1.874  0.00  0.00    -0.078 C 
ATOM     18  H   UNL     1      -3.592   8.809   0.344  0.00  0.00    -0.081 HD
ENDBRANCH   1  12
BRANCH   1  19
ATOM     19  C   UNL     1      -4.802   6.160   0.183  0.00  0.00    +0.094 C 
BRANCH  19  20
ATOM     20  N   UNL     1      -5.547   7.115  -0.641  0.00  0.00    -0.313 N 
ATOM     21  C   UNL     1      -6.758   6.782  -1.130  0.00  0.00    +0.246 C 
ATOM     22  O   UNL     1      -7.232   5.689  -0.887  0.00  0.00    -0.270 OA
ATOM     23  H   UNL     1      -5.118   8.104  -0.860  0.00  0.00    +0.149 HD
BRANCH  21  24
ATOM     24  C   UNL     1      -7.509   7.744  -1.960  0.00  0.00    +0.070 A 
ATOM     25  C   UNL     1      -6.915   8.949  -2.345  0.00  0.00    +0.064 A 
ATOM     26  C   UNL     1      -7.619   9.843  -3.127  0.00  0.00    +0.162 A 
ATOM     27  C   UNL     1      -8.925   9.549  -3.520  0.00  0.00    +0.164 A 
ATOM     28  C   UNL     1      -9.516   8.355  -3.131  0.00  0.00    +0.082 A 
ATOM     29  C   UNL     1      -8.817   7.455  -2.356  0.00  0.00    +0.142 A 
BRANCH  29  30
ATOM     30  N   UNL     1      -9.451   6.183  -1.944  0.00  0.00    +0.057 N 
ATOM     31  O   UNL     1      -9.994   5.476  -2.775  0.00  0.00    -0.126 OA
ATOM     32  O   UNL     1      -9.429   5.842  -0.775  0.00  0.00    -0.126 OA
ENDBRANCH  29  30
BRANCH  27  33
ATOM     33  O   UNL     1      -9.618  10.431  -4.284  0.00  0.00    -0.491 OA
ATOM     34  C   UNL     1     -10.950  10.066  -4.651  0.00  0.00    +0.277 C 
ENDBRANCH  27  33
BRANCH  26  35
ATOM     35  O   UNL     1      -7.042  11.014  -3.510  0.00  0.00    -0.491 OA
ATOM     36  C   UNL     1      -5.702  11.250  -3.072  0.00  0.00    +0.277 C 
ENDBRANCH  26  35
ENDBRANCH  21  24
ENDBRANCH  19  20
ENDBRANCH   1  19
TORSDOF 8
