REMARK  Name = ZINC60392707
REMARK  5 active torsions:
REMARK  status: ('A' for Active; 'I' for Inactive)
REMARK    1  A    between atoms: C_1  and  C_2
REMARK    2  A    between atoms: N_6  and  C_11
REMARK    3  A    between atoms: C_7  and  C_10
REMARK    4  A    between atoms: C_20  and  N_22
REMARK    5  A    between atoms: N_22  and  C_23
REMARK                            x       y       z     vdW  Elec       q    Type
REMARK                         _______ _______ _______ _____ _____    ______ ____
ROOT
ATOM      1  C   UNL     1       2.343  -3.437  -0.038  0.00  0.00    +0.032 A 
ATOM      2  C   UNL     1       2.943  -3.821   1.155  0.00  0.00    +0.023 A 
ATOM      3  C   UNL     1       3.990  -4.724   1.137  0.00  0.00    +0.006 A 
ATOM      4  C   UNL     1       4.433  -5.241  -0.061  0.00  0.00    -0.031 A 
ATOM      5  C   UNL     1       3.843  -4.867  -1.262  0.00  0.00    +0.037 A 
ATOM      6  C   UNL     1       2.786  -3.961  -1.243  0.00  0.00    +0.046 A 
ATOM      7  N   UNL     1       4.462  -5.522  -2.328  0.00  0.00    -0.286 N 
ATOM      8  C   UNL     1       5.454  -6.331  -1.921  0.00  0.00    +0.207 C 
ATOM      9  O   UNL     1       6.160  -7.018  -2.628  0.00  0.00    -0.277 OA
ATOM     10  C   UNL     1       5.527  -6.224  -0.412  0.00  0.00    +0.049 C 
ATOM     11  H   UNL     1       4.206  -5.405  -3.256  0.00  0.00    +0.155 HD
ENDROOT
BRANCH   1  16
ATOM     12  C   UNL     1      -0.018   1.525   0.042  0.00  0.00    +0.007 C 
ATOM     13  C   UNL     1       0.002  -0.004   0.017  0.00  0.00    -0.011 C 
ATOM     14  C   UNL     1       0.730  -0.484  -1.241  0.00  0.00    +0.022 C 
ATOM     15  C   UNL     1       0.718  -2.015  -1.280  0.00  0.00    +0.105 C 
ATOM     16  N   UNL     1       1.285  -2.525  -0.024  0.00  0.00    -0.327 N 
ATOM     17  C   UNL     1       0.718  -2.056   1.248  0.00  0.00    +0.071 C 
ATOM     18  C   UNL     1       0.730  -0.524   1.259  0.00  0.00    +0.025 C 
ATOM     19  C   UNL     1      -0.719  -2.562   1.387  0.00  0.00    +0.028 C 
ENDBRANCH   1  16
BRANCH  10  20
ATOM     20  N   UNL     1       5.265  -7.529   0.210  0.00  0.00    +0.388 N 
ATOM     21  C   UNL     1       6.398  -8.428  -0.046  0.00  0.00    -0.099 C 
ATOM     22  H   UNL     1       5.149  -7.410   1.205  0.00  0.00    -0.085 HD
ATOM     23  H   UNL     1       4.425  -7.926  -0.182  0.00  0.00    -0.085 HD
ENDBRANCH  10  20
TORSDOF 2
