REMARK  Name = ZINC59489390
REMARK  17 active torsions:
REMARK  status: ('A' for Active; 'I' for Inactive)
REMARK    1  A    between atoms: C_1  and  C_2
REMARK    2  A    between atoms: C_2  and  C_3
REMARK    3  A    between atoms: C_3  and  C_4
REMARK    4  A    between atoms: C_4  and  C_5
REMARK    5  A    between atoms: C_5  and  C_6
REMARK    6  A    between atoms: C_6  and  O_7
REMARK    7  A    between atoms: O_7  and  C_8
REMARK    8  A    between atoms: C_11  and  N_14
REMARK    9  A    between atoms: C_18  and  S_22
REMARK   10  A    between atoms: S_22  and  C_23
REMARK   11  A    between atoms: N_25  and  N_26
REMARK   12  A    between atoms: C_27  and  C_28
REMARK   13  A    between atoms: C_27  and  C_29
REMARK   14  A    between atoms: C_30  and  C_31
REMARK   15  A    between atoms: C_34  and  N_37
REMARK   16  A    between atoms: N_37  and  C_38
REMARK   17  A    between atoms: N_37  and  C_39
REMARK                            x       y       z     vdW  Elec       q    Type
REMARK                         _______ _______ _______ _____ _____    ______ ____
ROOT
ATOM      1  S   UNL     1       4.959 -12.694   4.796  0.00  0.00    -0.078 S 
ENDROOT
BRANCH   1   6
ATOM      2  N   UNL     1       2.753  -9.864   4.172  0.00  0.00    -0.209 N 
ATOM      3  C   UNL     1       2.160 -10.721   3.331  0.00  0.00    +0.228 C 
ATOM      4  O   UNL     1       1.497 -10.411   2.365  0.00  0.00    -0.275 OA
ATOM      5  C   UNL     1       2.451 -12.137   3.778  0.00  0.00    +0.120 C 
ATOM      6  C   UNL     1       3.323 -11.948   5.036  0.00  0.00    +0.149 C 
ATOM      7  C   UNL     1       3.438 -10.444   5.164  0.00  0.00    +0.240 C 
ATOM      8  O   UNL     1       4.052  -9.859   6.030  0.00  0.00    -0.274 OA
BRANCH   2  12
ATOM      9  C   UNL     1       2.498  -5.723   3.725  0.00  0.00    +0.121 A 
ATOM     10  C   UNL     1       3.740  -6.341   3.773  0.00  0.00    +0.047 A 
ATOM     11  C   UNL     1       3.824  -7.711   3.922  0.00  0.00    +0.027 A 
ATOM     12  C   UNL     1       2.667  -8.471   4.022  0.00  0.00    +0.044 A 
ATOM     13  C   UNL     1       1.425  -7.853   3.973  0.00  0.00    +0.027 A 
ATOM     14  C   UNL     1       1.341  -6.482   3.830  0.00  0.00    +0.047 A 
BRANCH   9  15
ATOM     15  O   UNL     1       2.415  -4.374   3.579  0.00  0.00    -0.492 OA
BRANCH  15  16
ATOM     16  C   UNL     1       3.646  -3.656   3.477  0.00  0.00    +0.229 C 
BRANCH  16  17
ATOM     17  C   UNL     1       3.353  -2.162   3.320  0.00  0.00    +0.041 C 
BRANCH  17  18
ATOM     18  C   UNL     1       4.671  -1.393   3.210  0.00  0.00    +0.003 C 
BRANCH  18  19
ATOM     19  C   UNL     1       4.378   0.100   3.053  0.00  0.00    -0.000 C 
BRANCH  19  21
ATOM     20  C   UNL     1       5.404   2.363   2.786  0.00  0.00    +0.004 C 
ATOM     21  C   UNL     1       5.697   0.870   2.943  0.00  0.00    -0.003 C 
ENDBRANCH  19  21
ENDBRANCH  18  19
ENDBRANCH  17  18
ENDBRANCH  16  17
ENDBRANCH  15  16
ENDBRANCH   9  15
ENDBRANCH   2  12
ENDBRANCH   1   6
BRANCH   1  22
ATOM     22  C   UNL     1       5.744 -12.511   6.363  0.00  0.00    +0.146 C 
ATOM     23  N   UNL     1       5.110 -11.936   7.348  0.00  0.00    -0.380 N 
ATOM     24  N   UNL     1       7.027 -12.976   6.549  0.00  0.00    -0.217 N 
ATOM     25  H   UNL     1       5.542 -11.835   8.210  0.00  0.00    +0.158 HD
ATOM     26  H   UNL     1       7.498 -13.404   5.817  0.00  0.00    +0.176 HD
ATOM     27  H   UNL     1       4.207 -11.608   7.217  0.00  0.00    +0.158 HD
BRANCH  24  28
ATOM     28  N   UNL     1       7.651 -12.831   7.795  0.00  0.00    -0.186 NA
ATOM     29  C   UNL     1       8.864 -13.271   7.970  0.00  0.00    +0.056 C 
ATOM     30  C   UNL     1       9.597 -13.936   6.833  0.00  0.00    +0.067 C 
BRANCH  29  31
ATOM     31  C   UNL     1       9.496 -13.124   9.231  0.00  0.00    +0.025 C 
ATOM     32  C   UNL     1       8.840 -12.529  10.249  0.00  0.00    +0.010 C 
BRANCH  32  33
ATOM     33  C   UNL     1       9.496 -12.377  11.557  0.00  0.00    -0.025 A 
ATOM     34  C   UNL     1      10.801 -12.843  11.746  0.00  0.00    +0.010 A 
ATOM     35  C   UNL     1      11.411 -12.699  12.972  0.00  0.00    +0.023 A 
ATOM     36  C   UNL     1      10.731 -12.090  14.022  0.00  0.00    +0.029 A 
ATOM     37  C   UNL     1       9.433 -11.625  13.839  0.00  0.00    +0.023 A 
ATOM     38  C   UNL     1       8.818 -11.760  12.614  0.00  0.00    +0.010 A 
BRANCH  36  39
ATOM     39  N   UNL     1      11.352 -11.946  15.263  0.00  0.00    -0.336 N 
ATOM     40  C   UNL     1      12.759 -12.322  15.425  0.00  0.00    +0.129 C 
ATOM     41  C   UNL     1      10.598 -11.419  16.403  0.00  0.00    +0.129 C 
ENDBRANCH  36  39
ENDBRANCH  32  33
ENDBRANCH  29  31
ENDBRANCH  24  28
ENDBRANCH   1  22
TORSDOF 13
