REMARK  Name = ZINC28161634
REMARK  8 active torsions:
REMARK  status: ('A' for Active; 'I' for Inactive)
REMARK    1  A    between atoms: C_1  and  C_2
REMARK    2  A    between atoms: C_2  and  C_3
REMARK    3  A    between atoms: C_2  and  C_4
REMARK    4  A    between atoms: C_7  and  C_10
REMARK    5  A    between atoms: C_13  and  C_33
REMARK    6  A    between atoms: C_20  and  C_23
REMARK    7  A    between atoms: C_23  and  C_24
REMARK    8  A    between atoms: N_26  and  C_27
REMARK                            x       y       z     vdW  Elec       q    Type
REMARK                         _______ _______ _______ _____ _____    ______ ____
ROOT
ATOM      1  C   UNL     1       6.145  -0.420  -0.053  0.00  0.00    +0.136 C 
ATOM      2  C   UNL     1       4.944   0.546  -0.033  0.00  0.00    +0.087 C 
ATOM      3  C   UNL     1       3.740  -0.368  -0.014  0.00  0.00    +0.075 C 
ATOM      4  N   UNL     1       4.133  -1.598  -0.029  0.00  0.00    -0.181 NA
ATOM      5  N   UNL     1       5.518  -1.752  -0.052  0.00  0.00    -0.195 N 
ATOM      6  C   UNL     1       6.183  -2.942  -0.071  0.00  0.00    +0.170 C 
ATOM      7  N   UNL     1       7.495  -3.148  -0.092  0.00  0.00    -0.157 NA
ATOM      8  C   UNL     1       8.054  -4.326  -0.109  0.00  0.00    +0.252 C 
ATOM      9  O   UNL     1       9.261  -4.472  -0.129  0.00  0.00    -0.272 OA
ATOM     10  C   UNL     1       7.090  -5.506  -0.103  0.00  0.00    +0.150 C 
ATOM     11  S   UNL     1       5.496  -4.592  -0.064  0.00  0.00    -0.078 S 
ENDROOT
BRANCH   1  15
ATOM     12  C   UNL     1       8.569   0.101   3.426  0.00  0.00    -0.045 A 
ATOM     13  C   UNL     1       8.990   0.601   2.208  0.00  0.00    +0.004 A 
ATOM     14  C   UNL     1       8.206   0.433   1.082  0.00  0.00    +0.006 A 
ATOM     15  C   UNL     1       7.000  -0.237   1.174  0.00  0.00    -0.025 A 
ATOM     16  C   UNL     1       6.576  -0.733   2.393  0.00  0.00    +0.006 A 
ATOM     17  C   UNL     1       7.362  -0.568   3.518  0.00  0.00    +0.004 A 
BRANCH  12  19
ATOM     18  C   UNL     1       8.642   1.075   5.705  0.00  0.00    +0.012 C 
ATOM     19  C   UNL     1       9.424   0.285   4.653  0.00  0.00    +0.013 C 
ATOM     20  C   UNL     1       9.803  -1.084   5.220  0.00  0.00    +0.012 C 
ENDBRANCH  12  19
ENDBRANCH   1  15
BRANCH   3  21
ATOM     21  C   UNL     1       2.342   0.074   0.011  0.00  0.00    +0.035 A 
ATOM     22  C   UNL     1       1.186  -0.688   0.023  0.00  0.00    +0.017 A 
ATOM     23  C   UNL     1      -0.025  -0.036   0.046  0.00  0.00    +0.008 A 
ATOM     24  C   UNL     1      -0.050   1.322   0.055  0.00  0.00    +0.046 A 
ATOM     25  S   UNL     1       1.686   1.734   0.031  0.00  0.00    -0.095 S 
ENDBRANCH   3  21
BRANCH  10  26
ATOM     26  C   UNL     1       7.228  -6.346  -1.374  0.00  0.00    +0.120 C 
BRANCH  26  27
ATOM     27  C   UNL     1       6.347  -7.565  -1.268  0.00  0.00    +0.219 C 
ATOM     28  O   UNL     1       5.676  -7.744  -0.274  0.00  0.00    -0.275 OA
ATOM     29  N   UNL     1       6.306  -8.456  -2.279  0.00  0.00    -0.285 N 
ATOM     30  H   UNL     1       6.855  -8.257  -3.211  0.00  0.00    +0.155 HD
BRANCH  29  31
ATOM     31  C   UNL     1       5.564  -9.635  -2.142  0.00  0.00    +0.033 A 
ATOM     32  C   UNL     1       6.014 -10.812  -2.727  0.00  0.00    +0.023 A 
ATOM     33  C   UNL     1       5.284 -11.975  -2.584  0.00  0.00    +0.002 A 
ATOM     34  C   UNL     1       4.099 -11.966  -1.871  0.00  0.00    +0.000 A 
ATOM     35  C   UNL     1       3.645 -10.794  -1.293  0.00  0.00    +0.002 A 
ATOM     36  C   UNL     1       4.375  -9.629  -1.426  0.00  0.00    +0.023 A 
ENDBRANCH  29  31
ENDBRANCH  26  27
ENDBRANCH  10  26
TORSDOF 6
