REMARK  Name = ZINC39206206
REMARK  9 active torsions:
REMARK  status: ('A' for Active; 'I' for Inactive)
REMARK    1  A    between atoms: C_1  and  C_2
REMARK    2  A    between atoms: C_2  and  C_3
REMARK    3  A    between atoms: C_3  and  C_4
REMARK    4  A    between atoms: C_6  and  C_21
REMARK    5  A    between atoms: C_8  and  C_16
REMARK    6  A    between atoms: C_9  and  N_15
REMARK    7  A    between atoms: C_16  and  O_18
REMARK    8  A    between atoms: O_18  and  C_19
REMARK    9  A    between atoms: C_19  and  C_20
REMARK                            x       y       z     vdW  Elec       q    Type
REMARK                         _______ _______ _______ _____ _____    ______ ____
ROOT
ATOM      1  C   UNL     1      -1.394  -2.030   0.010  0.00  0.00    +0.069 C 
ATOM      2  C   UNL     1      -1.478  -2.785   1.079  0.00  0.00    +0.029 C 
ATOM      3  C   UNL     1      -1.449  -2.498   2.555  0.00  0.00    +0.094 C 
ATOM      4  C   UNL     1      -0.576  -3.581   3.162  0.00  0.00    +0.105 C 
ATOM      5  C   UNL     1      -0.153  -4.642   2.438  0.00  0.00    +0.191 C 
ATOM      6  O   UNL     1      -0.401  -4.875   1.138  0.00  0.00    -0.449 OA
ATOM      7  C   UNL     1      -1.528  -4.219   0.551  0.00  0.00    +0.343 C 
ATOM      8  N   UNL     1      -1.363  -4.018  -0.892  0.00  0.00    -0.138 NA
ATOM      9  N   UNL     1      -1.327  -2.800  -1.106  0.00  0.00    -0.155 NA
ENDROOT
BRANCH   3  10
ATOM     10  C   UNL     1      -2.841  -2.565   3.127  0.00  0.00    -0.034 A 
ATOM     11  C   UNL     1      -3.566  -3.740   3.046  0.00  0.00    +0.004 A 
ATOM     12  C   UNL     1      -4.843  -3.802   3.570  0.00  0.00    +0.001 A 
ATOM     13  C   UNL     1      -5.396  -2.690   4.176  0.00  0.00    +0.014 A 
ATOM     14  C   UNL     1      -4.672  -1.515   4.258  0.00  0.00    +0.014 A 
ATOM     15  C   UNL     1      -3.392  -1.455   3.738  0.00  0.00    +0.019 A 
ATOM     16  I   UNL     1      -5.511   0.171   5.176  0.00  0.00    -0.044 I 
ENDBRANCH   3  10
BRANCH   5  17
ATOM     17  N   UNL     1       0.605  -5.573   3.095  0.00  0.00    -0.329 N 
ATOM     18  H   UNL     1       0.746  -5.495   4.052  0.00  0.00    +0.145 HD
ATOM     19  H   UNL     1       1.000  -6.311   2.605  0.00  0.00    +0.145 HD
ENDBRANCH   5  17
BRANCH   4  20
ATOM     20  C   UNL     1      -0.198  -3.479   4.509  0.00  0.00    +0.341 C 
ATOM     21  O   UNL     1       0.712  -2.736   4.832  0.00  0.00    -0.245 OA
BRANCH  20  22
ATOM     22  O   UNL     1      -0.843  -4.205   5.448  0.00  0.00    -0.462 OA
BRANCH  22  23
ATOM     23  C   UNL     1      -0.405  -4.051   6.800  0.00  0.00    +0.229 C 
ATOM     24  C   UNL     1      -1.247  -4.945   7.713  0.00  0.00    +0.048 C 
ENDBRANCH  22  23
ENDBRANCH  20  22
ENDBRANCH   4  20
BRANCH   1  25
ATOM     25  C   UNL     1      -1.381  -0.523   0.019  0.00  0.00    +0.057 C 
BRANCH  25  27
ATOM     26  C   UNL     1       0.079   1.504   0.002  0.00  0.00    +0.004 C 
ATOM     27  C   UNL     1       0.066  -0.025  -0.007  0.00  0.00    +0.003 C 
ENDBRANCH  25  27
ENDBRANCH   1  25
TORSDOF 7
