REMARK  Name = ZINC12247525
REMARK  7 active torsions:
REMARK  status: ('A' for Active; 'I' for Inactive)
REMARK    1  A    between atoms: C_1  and  C_2
REMARK    2  A    between atoms: C_4  and  C_8
REMARK    3  A    between atoms: C_5  and  C_7
REMARK    4  A    between atoms: C_13  and  C_16
REMARK    5  A    between atoms: C_16  and  C_31
REMARK    6  A    between atoms: N_19  and  C_23
REMARK    7  A    between atoms: C_23  and  C_24
REMARK                            x       y       z     vdW  Elec       q    Type
REMARK                         _______ _______ _______ _____ _____    ______ ____
ROOT
ATOM      1  C   UNL     1       2.984  -0.982  -0.854  0.00  0.00    +0.142 C 
ATOM      2  C   UNL     1       4.075  -1.504  -1.767  0.00  0.00    +0.252 C 
ATOM      3  O   UNL     1       4.247  -2.651  -2.121  0.00  0.00    -0.272 OA
ATOM      4  N   UNL     1       4.815  -0.429  -2.103  0.00  0.00    -0.220 N 
ATOM      5  C   UNL     1       4.348   0.688  -1.535  0.00  0.00    +0.310 C 
ATOM      6  O   UNL     1       4.848   1.785  -1.689  0.00  0.00    -0.252 OA
ATOM      7  N   UNL     1       3.261   0.463  -0.774  0.00  0.00    -0.281 N 
ATOM      8  H   UNL     1       2.757   1.123  -0.273  0.00  0.00    +0.152 HD
ENDROOT
BRANCH   1  14
ATOM      9  C   UNL     1      -0.549  -3.013  -4.475  0.00  0.00    +0.250 C 
ATOM     10  O   UNL     1      -0.540  -2.479  -5.568  0.00  0.00    -0.270 OA
ATOM     11  N   UNL     1      -0.165  -2.321  -3.384  0.00  0.00    -0.297 N 
ATOM     12  C   UNL     1       0.170  -0.894  -3.482  0.00  0.00    +0.108 C 
ATOM     13  C   UNL     1       1.565  -0.673  -2.888  0.00  0.00    +0.025 C 
ATOM     14  C   UNL     1       1.603  -1.232  -1.463  0.00  0.00    +0.029 C 
ATOM     15  C   UNL     1       1.324  -2.736  -1.496  0.00  0.00    +0.025 C 
ATOM     16  C   UNL     1      -0.073  -2.980  -2.074  0.00  0.00    +0.108 C 
BRANCH   9  20
ATOM     17  C   UNL     1      -2.600  -7.334  -2.700  0.00  0.00    +0.086 C 
ATOM     18  C   UNL     1      -1.891  -6.308  -3.546  0.00  0.00    +0.103 A 
ATOM     19  C   UNL     1      -1.723  -5.016  -3.226  0.00  0.00    +0.057 A 
ATOM     20  C   UNL     1      -0.982  -4.415  -4.344  0.00  0.00    +0.078 A 
ATOM     21  C   UNL     1      -0.782  -5.427  -5.238  0.00  0.00    +0.114 A 
ATOM     22  O   UNL     1      -1.326  -6.542  -4.741  0.00  0.00    -0.464 OA
ATOM     23  C   UNL     1      -0.067  -5.307  -6.559  0.00  0.00    +0.087 C 
ENDBRANCH   9  20
ENDBRANCH   1  14
BRANCH   1  24
ATOM     24  C   UNL     1       3.083  -1.618   0.509  0.00  0.00    +0.003 A 
ATOM     25  C   UNL     1       3.402  -2.961   0.635  0.00  0.00    +0.009 A 
ATOM     26  C   UNL     1       3.483  -3.503   1.909  0.00  0.00    +0.020 A 
ATOM     27  C   UNL     1       3.244  -2.692   3.002  0.00  0.00    +0.111 A 
ATOM     28  N   UNL     1       2.943  -1.418   2.844  0.00  0.00    -0.263 NA
ATOM     29  C   UNL     1       2.863  -0.868   1.648  0.00  0.00    +0.117 A 
ENDBRANCH   1  24
BRANCH   4  30
ATOM     30  C   UNL     1       5.987  -0.478  -2.981  0.00  0.00    +0.153 C 
BRANCH  30  31
ATOM     31  C   UNL     1       5.553  -0.272  -4.410  0.00  0.00    -0.029 A 
ATOM     32  C   UNL     1       5.215  -1.359  -5.193  0.00  0.00    +0.008 A 
ATOM     33  C   UNL     1       4.812  -1.171  -6.501  0.00  0.00    +0.038 A 
ATOM     34  C   UNL     1       4.757   0.107  -7.031  0.00  0.00    +0.123 A 
ATOM     35  C   UNL     1       5.101   1.195  -6.247  0.00  0.00    +0.038 A 
ATOM     36  C   UNL     1       5.498   1.005  -4.937  0.00  0.00    +0.008 A 
ATOM     37  F   UNL     1       4.368   0.292  -8.311  0.00  0.00    -0.205 F 
ENDBRANCH  30  31
ENDBRANCH   4  30
TORSDOF 5
