REMARK  Name = ZINC36578163
REMARK  16 active torsions:
REMARK  status: ('A' for Active; 'I' for Inactive)
REMARK    1  A    between atoms: C_1  and  C_2
REMARK    2  A    between atoms: C_2  and  C_3
REMARK    3  A    between atoms: C_3  and  N_4
REMARK    4  A    between atoms: N_4  and  C_5
REMARK    5  A    between atoms: C_5  and  C_7
REMARK    6  A    between atoms: C_5  and  C_16
REMARK    7  A    between atoms: N_18  and  C_19
REMARK    8  A    between atoms: C_19  and  C_20
REMARK    9  A    between atoms: C_19  and  C_21
REMARK   10  A    between atoms: C_19  and  C_22
REMARK   11  A    between atoms: C_22  and  C_23
REMARK   12  A    between atoms: C_23  and  C_24
REMARK   13  A    between atoms: C_23  and  C_25
REMARK   14  A    between atoms: C_23  and  C_26
REMARK   15  A    between atoms: C_27  and  C_29
REMARK   16  A    between atoms: C_32  and  N_35
REMARK                            x       y       z     vdW  Elec       q    Type
REMARK                         _______ _______ _______ _____ _____    ______ ____
ROOT
ATOM      1  C   UNL     1      -0.914  -3.760  -0.162  0.00  0.00    +0.193 C 
ENDROOT
BRANCH   1   2
ATOM      2  C   UNL     1       0.178  -2.859   0.354  0.00  0.00    -0.015 A 
ATOM      3  C   UNL     1       0.170  -1.513   0.037  0.00  0.00    +0.010 A 
ATOM      4  C   UNL     1       1.170  -0.683   0.509  0.00  0.00    +0.050 A 
ATOM      5  C   UNL     1       2.183  -1.199   1.300  0.00  0.00    +0.166 A 
ATOM      6  C   UNL     1       2.192  -2.554   1.619  0.00  0.00    +0.167 A 
ATOM      7  C   UNL     1       1.183  -3.379   1.148  0.00  0.00    +0.055 A 
ATOM      8  O   UNL     1       3.281  -2.812   2.401  0.00  0.00    -0.453 OA
ATOM      9  C   UNL     1       4.159  -1.686   2.219  0.00  0.00    +0.466 C 
ATOM     10  O   UNL     1       3.267  -0.607   1.882  0.00  0.00    -0.453 OA
ENDBRANCH   1   2
BRANCH   1  11
ATOM     11  C   UNL     1      -1.635  -4.393   1.000  0.00  0.00    +0.239 C 
ATOM     12  O   UNL     1      -2.809  -4.156   1.188  0.00  0.00    -0.273 OA
ATOM     13  N   UNL     1      -0.973  -5.222   1.832  0.00  0.00    -0.308 N 
ATOM     14  H   UNL     1      -0.034  -5.412   1.682  0.00  0.00    +0.149 HD
BRANCH  13  15
ATOM     15  C   UNL     1      -1.673  -5.838   2.962  0.00  0.00    +0.030 C 
ATOM     16  C   UNL     1      -1.825  -4.813   4.088  0.00  0.00    +0.031 C 
ATOM     17  C   UNL     1      -3.058  -6.307   2.510  0.00  0.00    +0.031 C 
BRANCH  15  18
ATOM     18  C   UNL     1      -0.869  -7.037   3.468  0.00  0.00    +0.031 C 
BRANCH  18  19
ATOM     19  C   UNL     1      -0.310  -7.816   2.276  0.00  0.00    -0.036 C 
ATOM     20  C   UNL     1       1.074  -7.272   1.915  0.00  0.00    +0.010 C 
ATOM     21  C   UNL     1      -0.196  -9.297   2.644  0.00  0.00    +0.010 C 
ATOM     22  C   UNL     1      -1.248  -7.658   1.078  0.00  0.00    +0.010 C 
ENDBRANCH  18  19
ENDBRANCH  15  18
ENDBRANCH  13  15
ENDBRANCH   1  11
BRANCH   1  23
ATOM     23  N   UNL     1      -1.863  -2.972  -0.954  0.00  0.00    -0.282 N 
ATOM     24  C   UNL     1      -1.618  -2.735  -2.258  0.00  0.00    +0.247 C 
ATOM     25  O   UNL     1      -2.425  -2.118  -2.925  0.00  0.00    -0.270 OA
BRANCH  24  26
ATOM     26  C   UNL     1      -0.368  -3.226  -2.877  0.00  0.00    +0.037 A 
ATOM     27  C   UNL     1       0.701  -3.626  -2.074  0.00  0.00    +0.015 A 
ATOM     28  C   UNL     1       1.864  -4.084  -2.658  0.00  0.00    +0.033 A 
ATOM     29  C   UNL     1       1.972  -4.146  -4.036  0.00  0.00    +0.126 A 
ATOM     30  C   UNL     1       0.916  -3.751  -4.838  0.00  0.00    +0.033 A 
ATOM     31  C   UNL     1      -0.255  -3.297  -4.266  0.00  0.00    +0.015 A 
BRANCH  29  32
ATOM     32  N   UNL     1       3.223  -4.638  -4.656  0.00  0.00    +0.056 N 
ATOM     33  O   UNL     1       4.148  -4.984  -3.958  0.00  0.00    -0.126 OA
ATOM     34  O   UNL     1       3.320  -4.694  -5.859  0.00  0.00    -0.126 OA
ENDBRANCH  29  32
ENDBRANCH  24  26
BRANCH  23  35
ATOM     35  C   UNL     1      -3.077  -2.443  -0.328  0.00  0.00    +0.109 C 
BRANCH  35  37
ATOM     36  C   UNL     1      -5.560  -2.696  -0.216  0.00  0.00    +0.005 C 
ATOM     37  C   UNL     1      -4.307  -3.021  -1.032  0.00  0.00    +0.016 C 
ENDBRANCH  35  37
ENDBRANCH  23  35
ENDBRANCH   1  23
TORSDOF 10
