REMARK  Name = ZINC39856012
REMARK  7 active torsions:
REMARK  status: ('A' for Active; 'I' for Inactive)
REMARK    1  A    between atoms: C_1  and  C_2
REMARK    2  A    between atoms: C_6  and  C_7
REMARK    3  A    between atoms: N_9  and  C_10
REMARK    4  A    between atoms: C_15  and  N_16
REMARK    5  A    between atoms: C_20  and  C_28
REMARK    6  A    between atoms: C_20  and  C_29
REMARK    7  A    between atoms: N_23  and  N_24
REMARK                            x       y       z     vdW  Elec       q    Type
REMARK                         _______ _______ _______ _____ _____    ______ ____
ROOT
ATOM      1  C   UNL     1      -0.026   1.501   0.010  0.00  0.00    +0.048 C 
ATOM      2  C   UNL     1       0.011  -0.006   0.002  0.00  0.00    +0.009 A 
ATOM      3  C   UNL     1       0.034  -0.840  -1.122  0.00  0.00    +0.043 A 
ATOM      4  C   UNL     1       0.063  -2.138  -0.673  0.00  0.00    +0.116 A 
ATOM      5  O   UNL     1       0.063  -2.113   0.658  0.00  0.00    -0.454 OA
ATOM      6  C   UNL     1       0.036  -0.832   1.091  0.00  0.00    +0.193 A 
ATOM      7  C   UNL     1       0.088  -3.327  -1.600  0.00  0.00    +0.081 C 
ATOM      8  C   UNL     1      -0.432  -2.909  -2.977  0.00  0.00    -0.023 C 
ATOM      9  C   UNL     1       0.329  -1.683  -3.493  0.00  0.00    +0.064 C 
ATOM     10  C   UNL     1       0.032  -0.513  -2.566  0.00  0.00    +0.073 C 
ATOM     11  N   UNL     1      -0.206   0.682  -3.009  0.00  0.00    -0.175 NA
ATOM     12  C   UNL     1      -0.247  -4.067  -3.959  0.00  0.00    +0.011 C 
ATOM     13  C   UNL     1      -1.921  -2.571  -2.873  0.00  0.00    +0.011 C 
ENDROOT
BRANCH  11  14
ATOM     14  N   UNL     1      -0.196   0.934  -4.387  0.00  0.00    -0.248 N 
ATOM     15  C   UNL     1      -0.447   2.196  -4.854  0.00  0.00    +0.187 C 
ATOM     16  N   UNL     1      -0.437   2.436  -6.165  0.00  0.00    -0.370 N 
ATOM     17  N   UNL     1      -0.702   3.185  -3.998  0.00  0.00    -0.370 N 
ATOM     18  H   UNL     1      -0.010   0.214  -5.010  0.00  0.00    +0.192 HD
ATOM     19  H   UNL     1      -0.615   3.330  -6.497  0.00  0.00    +0.159 HD
ATOM     20  H   UNL     1      -0.709   3.011  -3.044  0.00  0.00    +0.159 HD
ATOM     21  H   UNL     1      -0.880   4.080  -4.330  0.00  0.00    +0.159 HD
ATOM     22  H   UNL     1      -0.251   1.716  -6.788  0.00  0.00    +0.159 HD
ENDBRANCH  11  14
BRANCH   6  23
ATOM     23  C   UNL     1       0.030  -0.401   2.493  0.00  0.00    +0.284 C 
ATOM     24  O   UNL     1       0.001   0.784   2.766  0.00  0.00    -0.266 OA
ATOM     25  N   UNL     1       0.056  -1.319   3.480  0.00  0.00    -0.277 N 
ATOM     26  H   UNL     1      -0.002  -2.263   3.266  0.00  0.00    +0.155 HD
BRANCH  25  27
ATOM     27  C   UNL     1       0.168  -0.910   4.813  0.00  0.00    +0.064 A 
ATOM     28  C   UNL     1       0.760   0.309   5.119  0.00  0.00    +0.025 A 
ATOM     29  C   UNL     1       0.869   0.710   6.436  0.00  0.00    +0.002 A 
ATOM     30  C   UNL     1       0.389  -0.100   7.449  0.00  0.00    +0.002 A 
ATOM     31  C   UNL     1      -0.201  -1.314   7.147  0.00  0.00    +0.034 A 
ATOM     32  C   UNL     1      -0.318  -1.718   5.832  0.00  0.00    +0.147 A 
BRANCH  32  33
ATOM     33  N   UNL     1      -0.956  -3.014   5.509  0.00  0.00    +0.058 N 
ATOM     34  O   UNL     1      -1.458  -3.676   6.387  0.00  0.00    -0.126 OA
ATOM     35  O   UNL     1      -0.974  -3.411   4.367  0.00  0.00    -0.126 OA
ENDBRANCH  32  33
ENDBRANCH  25  27
ENDBRANCH   6  23
TORSDOF 4
