REMARK  Name = ZINC65183022
REMARK  9 active torsions:
REMARK  status: ('A' for Active; 'I' for Inactive)
REMARK    1  A    between atoms: C_1  and  C_2
REMARK    2  A    between atoms: C_2  and  C_3
REMARK    3  A    between atoms: C_3  and  C_5
REMARK    4  A    between atoms: C_3  and  C_11
REMARK    5  A    between atoms: N_13  and  C_14
REMARK    6  A    between atoms: N_13  and  C_15
REMARK    7  A    between atoms: C_15  and  C_16
REMARK    8  A    between atoms: C_16  and  C_17
REMARK    9  A    between atoms: C_20  and  C_23
REMARK                            x       y       z     vdW  Elec       q    Type
REMARK                         _______ _______ _______ _____ _____    ______ ____
ROOT
ATOM      1  C   UNL     1      -0.694   2.463   6.111  0.00  0.00    +0.139 C 
ATOM      2  N   UNL     1      -1.974   2.527   6.187  0.00  0.00    -0.072 NA
ATOM      3  O   UNL     1      -2.385   2.970   7.466  0.00  0.00    -0.367 OA
ATOM      4  C   UNL     1      -1.184   3.188   8.224  0.00  0.00    +0.318 C 
ATOM      5  N   UNL     1      -0.100   2.837   7.293  0.00  0.00    -0.291 N 
ATOM      6  H   UNL     1       0.852   2.866   7.478  0.00  0.00    +0.151 HD
ENDROOT
BRANCH   4   7
ATOM      7  C   UNL     1      -1.080   4.654   8.650  0.00  0.00    +0.165 C 
ATOM      8  C   UNL     1       0.175   4.871   9.467  0.00  0.00    +0.012 C 
ATOM      9  C   UNL     1      -0.238   5.301  10.681  0.00  0.00    -0.002 A 
ATOM     10  C   UNL     1       0.486   5.679  11.900  0.00  0.00    +0.029 A 
ATOM     11  C   UNL     1      -0.218   6.080  12.984  0.00  0.00    +0.042 A 
ATOM     12  C   UNL     1      -1.620   6.141  12.971  0.00  0.00    +0.022 A 
ATOM     13  C   UNL     1      -2.354   5.809  11.888  0.00  0.00    +0.027 A 
ATOM     14  C   UNL     1      -1.717   5.375  10.693  0.00  0.00    +0.043 A 
ATOM     15  N   UNL     1      -2.200   5.005   9.530  0.00  0.00    -0.373 N 
ATOM     16 CL   UNL     1       0.634   6.527  14.428  0.00  0.00    -0.084 Cl
ATOM     17  H   UNL     1      -3.140   4.970   9.292  0.00  0.00    +0.160 HD
ENDBRANCH   4   7
BRANCH   1  18
ATOM     18  C   UNL     1       0.061   2.027   4.883  0.00  0.00    +0.094 C 
BRANCH  18  19
ATOM     19  C   UNL     1      -0.930   1.689   3.767  0.00  0.00    +0.115 C 
BRANCH  19  22
ATOM     20  C   UNL     1       0.104  -0.037   2.393  0.00  0.00    +0.223 C 
ATOM     21  O   UNL     1      -0.154  -0.844   3.260  0.00  0.00    -0.275 OA
ATOM     22  N   UNL     1      -0.195   1.265   2.573  0.00  0.00    -0.304 N 
ATOM     23  C   UNL     1       0.214   2.255   1.574  0.00  0.00    +0.132 C 
BRANCH  20  24
ATOM     24  C   UNL     1       0.761  -0.489   1.114  0.00  0.00    +0.105 C 
BRANCH  24  25
ATOM     25  C   UNL     1       2.254  -0.541   1.307  0.00  0.00    -0.036 A 
ATOM     26  C   UNL     1       2.799  -1.373   2.268  0.00  0.00    +0.004 A 
ATOM     27  C   UNL     1       4.169  -1.421   2.445  0.00  0.00    +0.000 A 
ATOM     28  C   UNL     1       4.995  -0.637   1.660  0.00  0.00    +0.000 A 
ATOM     29  C   UNL     1       4.450   0.193   0.698  0.00  0.00    +0.000 A 
ATOM     30  C   UNL     1       3.081   0.238   0.518  0.00  0.00    +0.004 A 
ENDBRANCH  24  25
BRANCH  24  32
ATOM     31  C   UNL     1      -1.245  -1.801   0.407  0.00  0.00    +0.005 C 
ATOM     32  C   UNL     1       0.246  -1.881   0.741  0.00  0.00    +0.014 C 
ENDBRANCH  24  32
ENDBRANCH  20  24
ENDBRANCH  19  22
ENDBRANCH  18  19
ENDBRANCH   1  18
TORSDOF 7
