REMARK  Name = ZINC21781465
REMARK  13 active torsions:
REMARK  status: ('A' for Active; 'I' for Inactive)
REMARK    1  A    between atoms: C_1  and  C_2
REMARK    2  A    between atoms: C_2  and  O_3
REMARK    3  A    between atoms: O_3  and  C_4
REMARK    4  A    between atoms: C_4  and  C_6
REMARK    5  A    between atoms: C_12  and  C_24
REMARK    6  A    between atoms: C_12  and  C_25
REMARK    7  A    between atoms: N_13  and  C_16
REMARK    8  A    between atoms: C_21  and  C_22
REMARK    9  A    between atoms: N_27  and  C_28
REMARK   10  A    between atoms: C_28  and  C_29
REMARK   11  A    between atoms: C_29  and  C_30
REMARK   12  A    between atoms: C_30  and  C_31
REMARK   13  A    between atoms: C_30  and  C_32
REMARK                            x       y       z     vdW  Elec       q    Type
REMARK                         _______ _______ _______ _____ _____    ______ ____
ROOT
ATOM      1  C   UNL     1      -5.629   2.083   1.529  0.00  0.00    +0.170 A 
ATOM      2  C   UNL     1      -4.881   3.274   1.675  0.00  0.00    +0.069 A 
ATOM      3  C   UNL     1      -3.606   2.929   1.380  0.00  0.00    +0.125 A 
ATOM      4  N   UNL     1      -3.599   1.581   1.088  0.00  0.00    -0.256 N 
ATOM      5  N   UNL     1      -4.787   1.125   1.173  0.00  0.00    -0.164 NA
ATOM      6  C   UNL     1      -2.351   0.882   0.757  0.00  0.00    +0.179 C 
ATOM      7  C   UNL     1      -1.388   1.859   0.085  0.00  0.00    +0.135 C 
ATOM      8  N   UNL     1      -1.282   3.126   0.801  0.00  0.00    -0.250 N 
ATOM      9  C   UNL     1      -2.370   3.728   1.338  0.00  0.00    +0.270 C 
ATOM     10  O   UNL     1      -2.328   4.868   1.763  0.00  0.00    -0.268 OA
ATOM     11  C   UNL     1      -1.879   2.135  -1.338  0.00  0.00    +0.044 C 
ENDROOT
BRANCH   8  12
ATOM     12  C   UNL     1      -0.029   3.732   0.937  0.00  0.00    +0.041 A 
ATOM     13  C   UNL     1       0.374   4.706   0.033  0.00  0.00    +0.025 A 
ATOM     14  C   UNL     1       1.612   5.303   0.169  0.00  0.00    +0.022 A 
ATOM     15  C   UNL     1       2.450   4.931   1.206  0.00  0.00    +0.041 A 
ATOM     16  C   UNL     1       2.051   3.961   2.108  0.00  0.00    +0.025 A 
ATOM     17  C   UNL     1       0.812   3.364   1.979  0.00  0.00    -0.028 A 
ATOM     18  C   UNL     1       0.376   2.311   2.965  0.00  0.00    +0.046 C 
ATOM     19 CL   UNL     1       4.005   5.685   1.375  0.00  0.00    -0.084 Cl
ENDBRANCH   8  12
BRANCH   7  20
ATOM     20  C   UNL     1      -0.022   1.225   0.013  0.00  0.00    +0.239 C 
ATOM     21  O   UNL     1       0.145   0.098   0.426  0.00  0.00    -0.273 OA
ATOM     22  N   UNL     1       1.011   1.910  -0.516  0.00  0.00    -0.313 N 
ATOM     23  H   UNL     1       0.843   2.897  -0.970  0.00  0.00    +0.149 HD
BRANCH  22  24
ATOM     24  C   UNL     1       2.360   1.338  -0.486  0.00  0.00    +0.104 C 
BRANCH  24  25
ATOM     25  C   UNL     1       3.340   2.310  -1.146  0.00  0.00    +0.022 C 
BRANCH  25  26
ATOM     26  C   UNL     1       4.749   1.713  -1.115  0.00  0.00    -0.016 C 
ATOM     27  C   UNL     1       4.787   0.451  -1.979  0.00  0.00    +0.007 C 
ATOM     28  C   UNL     1       5.748   2.735  -1.661  0.00  0.00    +0.007 C 
ENDBRANCH  25  26
ENDBRANCH  24  25
ENDBRANCH  22  24
ENDBRANCH   7  20
BRANCH   1  29
ATOM     29  C   UNL     1      -7.083   1.934   1.737  0.00  0.00    +0.359 C 
ATOM     30  O   UNL     1      -7.751   2.894   2.065  0.00  0.00    -0.243 OA
BRANCH  29  31
ATOM     31  O   UNL     1      -7.669   0.733   1.563  0.00  0.00    -0.460 OA
BRANCH  31  33
ATOM     32  C   UNL     1      -9.584  -0.770   1.541  0.00  0.00    +0.048 C 
ATOM     33  C   UNL     1      -9.102   0.661   1.785  0.00  0.00    +0.229 C 
ENDBRANCH  31  33
ENDBRANCH  29  31
ENDBRANCH   1  29
TORSDOF 8
