REMARK  Name = ZINC22937421
REMARK  10 active torsions:
REMARK  status: ('A' for Active; 'I' for Inactive)
REMARK    1  A    between atoms: C_1  and  O_2
REMARK    2  A    between atoms: O_2  and  C_3
REMARK    3  A    between atoms: C_6  and  N_9
REMARK    4  A    between atoms: N_12  and  C_15
REMARK    5  A    between atoms: C_15  and  C_16
REMARK    6  A    between atoms: C_16  and  N_17
REMARK    7  A    between atoms: N_17  and  C_18
REMARK    8  A    between atoms: C_18  and  C_20
REMARK    9  A    between atoms: C_18  and  C_27
REMARK   10  A    between atoms: C_30  and  C_32
REMARK                            x       y       z     vdW  Elec       q    Type
REMARK                         _______ _______ _______ _____ _____    ______ ____
ROOT
ATOM      1  N   UNL     1       2.702  -5.993   9.641  0.00  0.00    +0.390 N 
ATOM      2  H   UNL     1       3.221  -5.432  10.300  0.00  0.00    -0.084 HD
ATOM      3  H   UNL     1       1.714  -5.893   9.819  0.00  0.00    -0.084 HD
ENDROOT
BRANCH   1   4
ATOM      4  C   UNL     1       3.002  -5.543   8.275  0.00  0.00    -0.066 C 
BRANCH   4   5
ATOM      5  C   UNL     1       2.601  -4.075   8.121  0.00  0.00    +0.065 C 
BRANCH   5   9
ATOM      6  N   UNL     1       2.540  -2.503   4.230  0.00  0.00    -0.327 N 
ATOM      7  C   UNL     1       3.246  -1.720   5.256  0.00  0.00    +0.120 C 
ATOM      8  C   UNL     1       2.753  -2.169   6.636  0.00  0.00    +0.103 C 
ATOM      9  N   UNL     1       2.901  -3.626   6.755  0.00  0.00    -0.301 NA
ATOM     10  C   UNL     1       2.062  -4.328   5.774  0.00  0.00    +0.103 C 
ATOM     11  C   UNL     1       2.522  -3.968   4.362  0.00  0.00    +0.120 C 
BRANCH   6  15
ATOM     12  C   UNL     1       0.625  -0.619   1.043  0.00  0.00    +0.120 A 
ATOM     13  C   UNL     1       0.698  -2.003   1.087  0.00  0.00    +0.047 A 
ATOM     14  C   UNL     1       1.333  -2.628   2.143  0.00  0.00    +0.027 A 
ATOM     15  C   UNL     1       1.897  -1.870   3.160  0.00  0.00    +0.030 A 
ATOM     16  C   UNL     1       1.823  -0.484   3.115  0.00  0.00    +0.027 A 
ATOM     17  C   UNL     1       1.193   0.139   2.056  0.00  0.00    +0.047 A 
BRANCH  12  19
ATOM     18  C   UNL     1      -0.563  -0.846  -1.004  0.00  0.00    +0.277 C 
ATOM     19  O   UNL     1      -0.000  -0.004   0.003  0.00  0.00    -0.495 OA
ENDBRANCH  12  19
ENDBRANCH   6  15
ENDBRANCH   5   9
ENDBRANCH   4   5
ENDBRANCH   1   4
BRANCH   1  20
ATOM     20  C   UNL     1       3.087  -7.403   9.788  0.00  0.00    +0.051 C 
BRANCH  20  21
ATOM     21  C   UNL     1       2.226  -8.254   8.891  0.00  0.00    -0.017 A 
ATOM     22  C   UNL     1       1.022  -7.765   8.420  0.00  0.00    +0.005 A 
ATOM     23  C   UNL     1       0.232  -8.546   7.597  0.00  0.00    +0.000 A 
ATOM     24  C   UNL     1       0.646  -9.817   7.244  0.00  0.00    +0.003 A 
ATOM     25  C   UNL     1       1.850 -10.308   7.712  0.00  0.00    +0.038 A 
ATOM     26  C   UNL     1       2.644  -9.525   8.533  0.00  0.00    +0.125 A 
ATOM     27  F   UNL     1       3.823 -10.002   8.987  0.00  0.00    -0.205 F 
ENDBRANCH  20  21
BRANCH  20  28
ATOM     28  C   UNL     1       2.894  -7.829  11.221  0.00  0.00    +0.208 A 
ATOM     29  N   UNL     1       1.856  -7.575  11.967  0.00  0.00    -0.113 NA
ATOM     30  N   UNL     1       2.028  -8.089  13.133  0.00  0.00    -0.107 NA
ATOM     31  C   UNL     1       3.192  -8.694  13.172  0.00  0.00    +0.248 A 
ATOM     32  O   UNL     1       3.760  -8.545  11.959  0.00  0.00    -0.422 OA
BRANCH  31  33
ATOM     33  C   UNL     1       3.770  -9.412  14.328  0.00  0.00    +0.038 A 
ATOM     34  C   UNL     1       5.028 -10.006  14.227  0.00  0.00    +0.013 A 
ATOM     35  C   UNL     1       5.562 -10.673  15.310  0.00  0.00    +0.001 A 
ATOM     36  C   UNL     1       4.852 -10.754  16.495  0.00  0.00    +0.000 A 
ATOM     37  C   UNL     1       3.603 -10.167  16.602  0.00  0.00    +0.001 A 
ATOM     38  C   UNL     1       3.061  -9.492  15.528  0.00  0.00    +0.013 A 
ENDBRANCH  31  33
ENDBRANCH  20  28
ENDBRANCH   1  20
TORSDOF 9
