REMARK  Name = ZINC31783983
REMARK  7 active torsions:
REMARK  status: ('A' for Active; 'I' for Inactive)
REMARK    1  A    between atoms: C_1  and  C_2
REMARK    2  A    between atoms: C_7  and  C_8
REMARK    3  A    between atoms: C_10  and  C_13
REMARK    4  A    between atoms: C_13  and  N_14
REMARK    5  A    between atoms: N_17  and  C_20
REMARK    6  A    between atoms: C_20  and  N_21
REMARK    7  A    between atoms: C_26  and  C_28
REMARK                            x       y       z     vdW  Elec       q    Type
REMARK                         _______ _______ _______ _____ _____    ______ ____
ROOT
ATOM      1  N   UNL     1      -0.867  10.392   3.638  0.00  0.00    -0.297 NA
ATOM      2  C   UNL     1       0.230  11.087   2.950  0.00  0.00    +0.066 C 
ATOM      3  C   UNL     1       0.278  10.638   1.488  0.00  0.00    -0.061 C 
ATOM      4  N   UNL     1       0.465   9.181   1.432  0.00  0.00    +0.394 N 
ATOM      5  C   UNL     1      -0.632   8.485   2.119  0.00  0.00    -0.061 C 
ATOM      6  C   UNL     1      -0.680   8.935   3.582  0.00  0.00    +0.066 C 
ATOM      7  H   UNL     1       1.402   8.939   1.954  0.00  0.00    -0.079 HD
ENDROOT
BRANCH   1   8
ATOM      8  C   UNL     1      -0.994  10.853   5.027  0.00  0.00    +0.183 C 
BRANCH   8  11
ATOM      9  C   UNL     1      -2.815   8.404   6.926  0.00  0.00    +0.202 A 
ATOM     10  N   UNL     1      -1.645   8.870   6.431  0.00  0.00    -0.190 NA
ATOM     11  C   UNL     1      -1.952   9.957   5.768  0.00  0.00    +0.242 A 
ATOM     12  O   UNL     1      -3.273  10.125   5.877  0.00  0.00    -0.336 OA
ATOM     13  N   UNL     1      -3.753   9.227   6.537  0.00  0.00    -0.056 NA
BRANCH   9  20
ATOM     14  C   UNL     1      -5.462   7.673   7.833  0.00  0.00    +0.044 C 
ATOM     15  C   UNL     1      -4.270   6.826   8.195  0.00  0.00    -0.040 A 
ATOM     16  C   UNL     1      -4.435   5.692   8.965  0.00  0.00    +0.004 A 
ATOM     17  C   UNL     1      -3.341   4.914   9.298  0.00  0.00    +0.000 A 
ATOM     18  C   UNL     1      -2.076   5.267   8.863  0.00  0.00    +0.001 A 
ATOM     19  C   UNL     1      -1.901   6.395   8.088  0.00  0.00    +0.012 A 
ATOM     20  C   UNL     1      -2.998   7.186   7.754  0.00  0.00    +0.025 A 
ENDBRANCH   9  20
ENDBRANCH   8  11
ENDBRANCH   1   8
BRANCH   4  21
ATOM     21  C   UNL     1       0.592   8.720   0.043  0.00  0.00    +0.072 C 
BRANCH  21  22
ATOM     22  N   UNL     1       1.012   7.316   0.031  0.00  0.00    -0.257 N 
ATOM     23  C   UNL     1       2.283   6.865   0.016  0.00  0.00    +0.174 A 
ATOM     24  S   UNL     1       3.697   7.830   0.007  0.00  0.00    -0.012 S 
ATOM     25  N   UNL     1       2.239   5.518   0.015  0.00  0.00    -0.317 N 
ATOM     26  H   UNL     1       3.174   4.937   0.011  0.00  0.00    +0.169 HD
ATOM     27  C   UNL     1       0.913   5.127   0.021  0.00  0.00    +0.167 A 
ATOM     28  N   UNL     1       0.166   6.199   0.033  0.00  0.00    -0.152 NA
BRANCH  27  29
ATOM     29  C   UNL     1       0.425   3.737   0.018  0.00  0.00    +0.056 A 
ATOM     30  C   UNL     1      -0.866   3.275   0.028  0.00  0.00    +0.019 A 
ATOM     31  C   UNL     1      -1.081   1.915   0.017  0.00  0.00    +0.008 A 
ATOM     32  C   UNL     1      -0.013   1.076   0.008  0.00  0.00    +0.046 A 
ATOM     33  S   UNL     1       1.361   2.217   0.001  0.00  0.00    -0.094 S 
ENDBRANCH  27  29
ENDBRANCH  21  22
ENDBRANCH   4  21
TORSDOF 6
