REMARK  Name = ZINC19824508
REMARK  9 active torsions:
REMARK  status: ('A' for Active; 'I' for Inactive)
REMARK    1  A    between atoms: C_1  and  C_2
REMARK    2  A    between atoms: C_2  and  C_3
REMARK    3  A    between atoms: C_8  and  N_9
REMARK    4  A    between atoms: C_13  and  C_14
REMARK    5  A    between atoms: C_16  and  C_32
REMARK    6  A    between atoms: N_17  and  C_20
REMARK    7  A    between atoms: C_18  and  C_19
REMARK    8  A    between atoms: C_22  and  C_29
REMARK    9  A    between atoms: C_24  and  C_26
REMARK                            x       y       z     vdW  Elec       q    Type
REMARK                         _______ _______ _______ _____ _____    ______ ____
ROOT
ATOM      1  C   UNL     1       0.126   0.036  -0.294  0.00  0.00    -0.003 A 
ATOM      2  C   UNL     1       1.352  -0.655  -0.720  0.00  0.00    +0.031 A 
ATOM      3  C   UNL     1       1.020  -1.945  -0.893  0.00  0.00    +0.022 A 
ATOM      4  N   UNL     1      -0.308  -2.110  -0.610  0.00  0.00    -0.317 N 
ATOM      5  C   UNL     1      -0.861  -0.938  -0.244  0.00  0.00    +0.028 A 
ATOM      6  C   UNL     1      -2.300  -0.722   0.147  0.00  0.00    +0.064 C 
ATOM      7  C   UNL     1       1.962  -3.037  -1.330  0.00  0.00    +0.064 C 
ENDROOT
BRANCH   1  12
ATOM      8  N   UNL     1       1.879   4.067   1.744  0.00  0.00    -0.216 N 
ATOM      9  C   UNL     1       0.925   3.514   0.967  0.00  0.00    +0.262 C 
ATOM     10  O   UNL     1       0.083   4.205   0.424  0.00  0.00    -0.269 OA
ATOM     11  C   UNL     1       0.931   2.050   0.792  0.00  0.00    +0.102 C 
ATOM     12  C   UNL     1      -0.017   1.411   0.010  0.00  0.00    +0.028 C 
ATOM     13  C   UNL     1       1.986   1.295   1.493  0.00  0.00    +0.274 C 
ATOM     14  O   UNL     1       2.053   0.083   1.402  0.00  0.00    -0.268 OA
ATOM     15  N   UNL     1       2.878   1.984   2.233  0.00  0.00    -0.153 NA
ATOM     16  C   UNL     1       2.813   3.318   2.347  0.00  0.00    +0.171 C 
ATOM     17  S   UNL     1       3.983   4.108   3.315  0.00  0.00    -0.016 S 
BRANCH   8  23
ATOM     18  C   UNL     1       2.620   6.262   1.058  0.00  0.00    -0.026 A 
ATOM     19  C   UNL     1       2.629   7.632   1.236  0.00  0.00    +0.005 A 
ATOM     20  C   UNL     1       1.925   8.200   2.282  0.00  0.00    +0.000 A 
ATOM     21  C   UNL     1       1.205   7.399   3.150  0.00  0.00    +0.002 A 
ATOM     22  C   UNL     1       1.187   6.029   2.974  0.00  0.00    +0.024 A 
ATOM     23  C   UNL     1       1.894   5.456   1.925  0.00  0.00    +0.046 A 
BRANCH  18  25
ATOM     24  C   UNL     1       2.464   5.444  -1.277  0.00  0.00    +0.009 C 
ATOM     25  C   UNL     1       3.393   5.644  -0.078  0.00  0.00    +0.033 C 
ENDBRANCH  18  25
ENDBRANCH   8  23
ENDBRANCH   1  12
BRANCH   4  26
ATOM     26  C   UNL     1      -0.996  -3.329  -0.685  0.00  0.00    +0.048 A 
ATOM     27  C   UNL     1      -2.014  -3.493  -1.613  0.00  0.00    +0.041 A 
ATOM     28  C   UNL     1      -2.698  -4.708  -1.695  0.00  0.00    +0.066 A 
ATOM     29  C   UNL     1      -2.364  -5.753  -0.835  0.00  0.00    +0.030 A 
ATOM     30  C   UNL     1      -1.344  -5.582   0.100  0.00  0.00    +0.066 A 
ATOM     31  C   UNL     1      -0.661  -4.367   0.172  0.00  0.00    +0.041 A 
BRANCH  30  32
ATOM     32  C   UNL     1      -0.987  -6.687   1.014  0.00  0.00    +0.387 C 
ATOM     33  O   UNL     1      -0.099  -6.538   1.829  0.00  0.00    -0.241 OA
ATOM     34  O   UNL     1      -1.647  -7.859   0.944  0.00  0.00    -0.241 OA
ENDBRANCH  30  32
BRANCH  28  35
ATOM     35  C   UNL     1      -3.778  -4.883  -2.688  0.00  0.00    +0.387 C 
ATOM     36  O   UNL     1      -4.068  -3.972  -3.437  0.00  0.00    -0.241 OA
ATOM     37  O   UNL     1      -4.441  -6.054  -2.762  0.00  0.00    -0.241 OA
ENDBRANCH  28  35
ENDBRANCH   4  26
TORSDOF 6
