REMARK  Name = ZINC12676655
REMARK  8 active torsions:
REMARK  status: ('A' for Active; 'I' for Inactive)
REMARK    1  A    between atoms: C_4  and  C_7
REMARK    2  A    between atoms: C_7  and  N_8
REMARK    3  A    between atoms: C_10  and  C_18
REMARK    4  A    between atoms: C_11  and  C_13
REMARK    5  A    between atoms: N_20  and  C_21
REMARK    6  A    between atoms: C_21  and  C_22
REMARK    7  A    between atoms: C_22  and  C_24
REMARK    8  A    between atoms: C_22  and  N_58
REMARK                            x       y       z     vdW  Elec       q    Type
REMARK                         _______ _______ _______ _____ _____    ______ ____
ROOT
ATOM      1  N   UNL     1      -1.066   6.920  -4.553  0.00  0.00    -0.266 N 
ATOM      2  C   UNL     1      -0.921   5.673  -4.079  0.00  0.00    +0.122 A 
ATOM      3  C   UNL     1      -1.783   4.851  -4.775  0.00  0.00    +0.082 A 
ATOM      4  C   UNL     1      -2.481   5.707  -5.742  0.00  0.00    +0.111 A 
ATOM      5  N   UNL     1      -2.026   6.929  -5.569  0.00  0.00    -0.170 NA
ENDROOT
BRANCH   4   6
ATOM      6  C   UNL     1      -3.501   5.278  -6.720  0.00  0.00    +0.040 A 
ATOM      7  C   UNL     1      -4.605   5.954  -7.168  0.00  0.00    +0.018 A 
ATOM      8  C   UNL     1      -5.423   5.346  -8.094  0.00  0.00    +0.008 A 
ATOM      9  C   UNL     1      -5.112   4.099  -8.534  0.00  0.00    +0.046 A 
ATOM     10  S   UNL     1      -3.612   3.748  -7.633  0.00  0.00    -0.095 S 
ENDBRANCH   4   6
BRANCH   3  11
ATOM     11  C   UNL     1      -1.962   3.401  -4.590  0.00  0.00    +0.248 C 
ATOM     12  O   UNL     1      -2.761   2.795  -5.278  0.00  0.00    -0.270 OA
ATOM     13  N   UNL     1      -1.240   2.747  -3.659  0.00  0.00    -0.312 N 
ATOM     14  H   UNL     1      -0.603   3.231  -3.111  0.00  0.00    +0.149 HD
BRANCH  13  15
ATOM     15  C   UNL     1      -1.418   1.304  -3.475  0.00  0.00    +0.097 C 
BRANCH  15  16
ATOM     16  C   UNL     1      -0.487   0.813  -2.365  0.00  0.00    +0.016 C 
BRANCH  16  21
ATOM     17  C   UNL     1      -0.061   0.968   0.028  0.00  0.00    -0.078 C 
ATOM     18  C   UNL     1      -0.808   1.536   1.253  0.00  0.00    -0.020 C 
ATOM     19  C   UNL     1      -2.198   1.949   0.716  0.00  0.00    -0.020 C 
ATOM     20  C   UNL     1      -2.169   1.594  -0.786  0.00  0.00    -0.078 C 
ATOM     21  N   UNL     1      -0.745   1.591  -1.112  0.00  0.00    +0.387 N 
ATOM     22  H   UNL     1      -0.411   2.554  -1.238  0.00  0.00    -0.081 HD
ENDBRANCH  16  21
BRANCH  16  23
ATOM     23  C   UNL     1      -0.757  -0.644  -2.091  0.00  0.00    +0.093 A 
ATOM     24  C   UNL     1       0.039  -1.671  -2.440  0.00  0.00    +0.043 A 
ATOM     25  C   UNL     1      -0.594  -2.851  -1.988  0.00  0.00    +0.041 A 
ATOM     26  C   UNL     1      -1.742  -2.476  -1.396  0.00  0.00    +0.195 A 
ATOM     27  O   UNL     1      -1.836  -1.138  -1.462  0.00  0.00    -0.469 OA
ENDBRANCH  16  23
ENDBRANCH  15  16
ENDBRANCH  13  15
ENDBRANCH   3  11
BRANCH   1  28
ATOM     28  C   UNL     1      -0.329   8.093  -4.078  0.00  0.00    +0.178 C 
BRANCH  28  32
ATOM     29  C   UNL     1       1.625   9.980  -7.375  0.00  0.00    +0.000 A 
ATOM     30  C   UNL     1       0.342  10.356  -7.025  0.00  0.00    +0.000 A 
ATOM     31  C   UNL     1      -0.291   9.745  -5.958  0.00  0.00    +0.005 A 
ATOM     32  C   UNL     1       0.360   8.759  -5.241  0.00  0.00    -0.026 A 
ATOM     33  C   UNL     1       1.646   8.386  -5.588  0.00  0.00    +0.005 A 
ATOM     34  C   UNL     1       2.276   8.993  -6.657  0.00  0.00    +0.000 A 
ENDBRANCH  28  32
ENDBRANCH   1  28
TORSDOF 8
