REMARK  Name = ZINC06321269
REMARK  7 active torsions:
REMARK  status: ('A' for Active; 'I' for Inactive)
REMARK    1  A    between atoms: C_1  and  C_2
REMARK    2  A    between atoms: C_6  and  C_15
REMARK    3  A    between atoms: C_13  and  C_14
REMARK    4  A    between atoms: C_15  and  C_17
REMARK    5  A    between atoms: C_15  and  N_71
REMARK    6  A    between atoms: N_21  and  C_22
REMARK    7  A    between atoms: C_33  and  C_35
REMARK                            x       y       z     vdW  Elec       q    Type
REMARK                         _______ _______ _______ _____ _____    ______ ____
ROOT
ATOM      1  C   UNL     1      -5.034   4.005   0.072  0.00  0.00    +0.039 C 
ENDROOT
BRANCH   1   7
ATOM      2  C   UNL     1       2.412   4.419   0.100  0.00  0.00    +0.044 C 
ATOM      3  C   UNL     1       1.141   3.610   0.103  0.00  0.00    -0.047 A 
ATOM      4  C   UNL     1      -0.068   4.247   0.100  0.00  0.00    +0.013 A 
ATOM      5  C   UNL     1      -1.248   3.496   0.102  0.00  0.00    -0.001 A 
ATOM      6  C   UNL     1      -2.559   4.147   0.098  0.00  0.00    +0.017 A 
ATOM      7  C   UNL     1      -3.669   3.368   0.082  0.00  0.00    +0.011 A 
ATOM      8  C   UNL     1      -3.550   1.961   0.087  0.00  0.00    +0.251 A 
ATOM      9  O   UNL     1      -4.560   1.280   0.083  0.00  0.00    -0.268 OA
ATOM     10  N   UNL     1      -2.350   1.355   0.096  0.00  0.00    -0.322 N 
ATOM     11  H   UNL     1      -2.304   0.386   0.099  0.00  0.00    +0.169 HD
ATOM     12  C   UNL     1      -1.183   2.090   0.100  0.00  0.00    +0.049 A 
ATOM     13  C   UNL     1       0.058   1.463   0.109  0.00  0.00    +0.030 A 
ATOM     14  C   UNL     1       1.208   2.224   0.107  0.00  0.00    -0.046 A 
ATOM     15  C   UNL     1       2.552   1.542   0.110  0.00  0.00    +0.044 C 
ENDBRANCH   1   7
BRANCH   1  23
ATOM     16  C   UNL     1      -5.089   3.700  -2.329  0.00  0.00    -0.058 C 
ATOM     17  C   UNL     1      -5.838   2.992  -3.463  0.00  0.00    +0.089 C 
ATOM     18  N   UNL     1      -7.235   3.450  -3.458  0.00  0.00    -0.299 N 
ATOM     19  C   UNL     1      -7.980   3.398  -2.191  0.00  0.00    +0.089 C 
ATOM     20  C   UNL     1      -7.147   4.090  -1.107  0.00  0.00    -0.058 C 
ATOM     21  C   UNL     1      -7.818   3.906  -4.585  0.00  0.00    +0.282 C 
ATOM     22  O   UNL     1      -8.995   4.217  -4.578  0.00  0.00    -0.267 OA
ATOM     23  N   UNL     1      -5.810   3.459  -1.061  0.00  0.00    +0.391 N 
ATOM     24  H   UNL     1      -5.924   2.447  -0.930  0.00  0.00    -0.080 HD
BRANCH  21  25
ATOM     25  C   UNL     1      -7.034   4.028  -5.818  0.00  0.00    +0.189 A 
ATOM     26  C   UNL     1      -7.458   4.594  -6.986  0.00  0.00    +0.054 A 
ATOM     27  C   UNL     1      -6.392   4.495  -7.893  0.00  0.00    +0.042 A 
ATOM     28  C   UNL     1      -5.376   3.881  -7.247  0.00  0.00    +0.196 A 
ATOM     29  O   UNL     1      -5.765   3.607  -5.995  0.00  0.00    -0.458 OA
ENDBRANCH  21  25
ENDBRANCH   1  23
BRANCH   1  30
ATOM     30  C   UNL     1      -5.751   3.678   1.357  0.00  0.00    +0.143 A 
ATOM     31  N   UNL     1      -6.294   2.529   1.679  0.00  0.00    -0.115 NA
ATOM     32  N   UNL     1      -6.807   2.648   2.855  0.00  0.00    -0.023 NA
ATOM     33  N   UNL     1      -6.605   3.842   3.291  0.00  0.00    -0.044 NA
ATOM     34  N   UNL     1      -5.952   4.506   2.398  0.00  0.00    -0.227 N 
BRANCH  34  35
ATOM     35  C   UNL     1      -5.516   5.901   2.498  0.00  0.00    +0.111 C 
ATOM     36  C   UNL     1      -4.578   6.058   3.696  0.00  0.00    +0.027 C 
ATOM     37  C   UNL     1      -4.122   7.514   3.800  0.00  0.00    +0.002 C 
ATOM     38  C   UNL     1      -5.342   8.419   3.986  0.00  0.00    +0.000 C 
ATOM     39  C   UNL     1      -6.280   8.262   2.788  0.00  0.00    +0.002 C 
ATOM     40  C   UNL     1      -6.736   6.805   2.684  0.00  0.00    +0.027 C 
ENDBRANCH  34  35
ENDBRANCH   1  30
TORSDOF 5
