REMARK  Name = ZINC21261080
REMARK  9 active torsions:
REMARK  status: ('A' for Active; 'I' for Inactive)
REMARK    1  A    between atoms: C_1  and  C_2
REMARK    2  A    between atoms: N_13  and  C_26
REMARK    3  A    between atoms: C_14  and  S_16
REMARK    4  A    between atoms: S_16  and  C_17
REMARK    5  A    between atoms: C_17  and  C_19
REMARK    6  A    between atoms: C_17  and  C_20
REMARK    7  A    between atoms: N_22  and  C_23
REMARK    8  A    between atoms: C_23  and  C_24
REMARK    9  A    between atoms: C_23  and  C_25
REMARK                            x       y       z     vdW  Elec       q    Type
REMARK                         _______ _______ _______ _____ _____    ______ ____
ROOT
ATOM      1  C   UNL     1      -0.093  14.095   0.385  0.00  0.00    +0.008 C 
ATOM      2  C   UNL     1      -0.764  12.728   0.239  0.00  0.00    -0.009 C 
ATOM      3  C   UNL     1      -1.591  12.425   1.493  0.00  0.00    +0.008 C 
ATOM      4  C   UNL     1      -2.459  11.190   1.256  0.00  0.00    +0.037 C 
ATOM      5  C   UNL     1      -1.571  10.051   0.762  0.00  0.00    -0.023 A 
ATOM      6  C   UNL     1      -0.350  10.303   0.249  0.00  0.00    -0.004 A 
ATOM      7  S   UNL     1       0.305   8.713  -0.181  0.00  0.00    -0.073 S 
ATOM      8  C   UNL     1      -1.068   7.711   0.331  0.00  0.00    +0.117 A 
ATOM      9  C   UNL     1      -1.992   8.650   0.820  0.00  0.00    +0.076 A 
ATOM     10  C   UNL     1      -3.224   8.114   1.311  0.00  0.00    +0.268 A 
ATOM     11  O   UNL     1      -4.086   8.854   1.755  0.00  0.00    -0.267 OA
ATOM     12  N   UNL     1      -3.419   6.783   1.277  0.00  0.00    -0.253 N 
ATOM     13  C   UNL     1      -2.464   5.940   0.783  0.00  0.00    +0.178 A 
ATOM     14  N   UNL     1      -1.319   6.407   0.329  0.00  0.00    -0.215 NA
ATOM     15  C   UNL     1       0.306  11.639   0.081  0.00  0.00    +0.046 C 
ENDROOT
BRANCH  12  16
ATOM     16  C   UNL     1      -4.625   6.252   1.757  0.00  0.00    +0.087 A 
ATOM     17  C   UNL     1      -4.741   5.884   3.090  0.00  0.00    +0.029 A 
ATOM     18  C   UNL     1      -5.931   5.365   3.561  0.00  0.00    +0.002 A 
ATOM     19  C   UNL     1      -7.005   5.202   2.704  0.00  0.00    +0.003 A 
ATOM     20  C   UNL     1      -6.892   5.562   1.374  0.00  0.00    +0.040 A 
ATOM     21  C   UNL     1      -5.705   6.087   0.897  0.00  0.00    +0.147 A 
ATOM     22  F   UNL     1      -5.595   6.439  -0.403  0.00  0.00    -0.203 F 
ENDBRANCH  12  16
BRANCH  13  23
ATOM     23  S   UNL     1      -2.766   4.204   0.759  0.00  0.00    -0.075 S 
BRANCH  23  24
ATOM     24  C   UNL     1      -1.214   3.626   0.028  0.00  0.00    +0.137 C 
ATOM     25  C   UNL     1      -1.103   4.145  -1.407  0.00  0.00    +0.029 C 
BRANCH  24  26
ATOM     26  C   UNL     1      -1.194   2.119   0.019  0.00  0.00    +0.226 C 
ATOM     27  O   UNL     1      -2.236   1.498   0.021  0.00  0.00    -0.275 OA
ATOM     28  N   UNL     1      -0.018   1.461   0.010  0.00  0.00    -0.312 N 
ATOM     29  H   UNL     1       0.927   2.024   0.009  0.00  0.00    +0.149 HD
BRANCH  28  30
ATOM     30  C   UNL     1       0.002  -0.004   0.002  0.00  0.00    +0.067 C 
ATOM     31  C   UNL     1      -0.130  -0.508  -1.437  0.00  0.00    +0.027 C 
ATOM     32  C   UNL     1       1.322  -0.499   0.596  0.00  0.00    +0.027 C 
ENDBRANCH  28  30
ENDBRANCH  24  26
ENDBRANCH  23  24
ENDBRANCH  13  23
TORSDOF 5
