REMARK  Name = ZINC19805613
REMARK  10 active torsions:
REMARK  status: ('A' for Active; 'I' for Inactive)
REMARK    1  A    between atoms: C_1  and  C_2
REMARK    2  A    between atoms: C_2  and  N_3
REMARK    3  A    between atoms: N_3  and  C_4
REMARK    4  A    between atoms: N_3  and  C_6
REMARK    5  A    between atoms: C_4  and  C_5
REMARK    6  A    between atoms: C_9  and  C_12
REMARK    7  A    between atoms: C_14  and  C_27
REMARK    8  A    between atoms: C_15  and  C_26
REMARK    9  A    between atoms: C_22  and  C_24
REMARK   10  A    between atoms: C_22  and  C_25
REMARK                            x       y       z     vdW  Elec       q    Type
REMARK                         _______ _______ _______ _____ _____    ______ ____
ROOT
ATOM      1  C   UNL     1       3.796   1.905  -0.630  0.00  0.00    +0.096 C 
ATOM      2  C   UNL     1       3.984   2.964   0.416  0.00  0.00    +0.058 C 
ATOM      3  C   UNL     1       2.934   3.575   0.986  0.00  0.00    +0.019 C 
ATOM      4  N   UNL     1       1.655   3.241   0.623  0.00  0.00    -0.320 N 
ATOM      5  C   UNL     1       1.395   2.051  -0.000  0.00  0.00    +0.016 C 
ATOM      6  C   UNL     1       2.388   1.365  -0.606  0.00  0.00    +0.024 C 
ATOM      7  C   UNL     1       2.139   0.133  -1.235  0.00  0.00    +0.162 C 
ATOM      8  O   UNL     1       3.052  -0.454  -1.781  0.00  0.00    -0.292 OA
ATOM      9  C   UNL     1       0.762  -0.473  -1.243  0.00  0.00    +0.086 C 
ATOM     10  C   UNL     1       0.002  -0.004   0.002  0.00  0.00    -0.023 C 
ATOM     11  C   UNL     1      -0.019   1.526   0.010  0.00  0.00    +0.058 C 
ATOM     12  C   UNL     1       0.709  -0.515   1.259  0.00  0.00    +0.011 C 
ATOM     13  C   UNL     1      -1.431  -0.537  -0.034  0.00  0.00    +0.011 C 
ATOM     14  C   UNL     1       3.163   4.637   2.030  0.00  0.00    +0.061 C 
ATOM     15  H   UNL     1       0.825   3.933   0.833  0.00  0.00    +0.152 HD
ENDROOT
BRANCH   1  19
ATOM     16  C   UNL     1       4.588   3.583  -4.481  0.00  0.00    +0.030 A 
ATOM     17  C   UNL     1       5.363   2.532  -4.006  0.00  0.00    +0.023 A 
ATOM     18  C   UNL     1       5.104   1.992  -2.761  0.00  0.00    +0.006 A 
ATOM     19  C   UNL     1       4.075   2.497  -1.988  0.00  0.00    -0.035 A 
ATOM     20  C   UNL     1       3.298   3.539  -2.460  0.00  0.00    +0.006 A 
ATOM     21  C   UNL     1       3.555   4.087  -3.701  0.00  0.00    +0.023 A 
BRANCH  16  22
ATOM     22  N   UNL     1       4.847   4.130  -5.739  0.00  0.00    -0.330 N 
BRANCH  22  24
ATOM     23  C   UNL     1       4.656   6.567  -5.814  0.00  0.00    +0.024 C 
ATOM     24  C   UNL     1       4.028   5.238  -6.238  0.00  0.00    +0.102 C 
ENDBRANCH  22  24
BRANCH  22  25
ATOM     25  C   UNL     1       5.937   3.597  -6.560  0.00  0.00    +0.102 C 
ATOM     26  C   UNL     1       5.404   2.468  -7.444  0.00  0.00    +0.024 C 
ENDBRANCH  22  25
ENDBRANCH  16  22
ENDBRANCH   1  19
BRANCH   2  27
ATOM     27  C   UNL     1       5.310   3.329   0.815  0.00  0.00    +0.097 C 
ATOM     28  N   UNL     1       6.362   3.618   1.131  0.00  0.00    -0.191 NA
ENDBRANCH   2  27
TORSDOF 5
