REMARK  Name = ZINC12116734
REMARK  9 active torsions:
REMARK  status: ('A' for Active; 'I' for Inactive)
REMARK    1  A    between atoms: C_1  and  C_2
REMARK    2  A    between atoms: C_2  and  C_4
REMARK    3  A    between atoms: C_2  and  O_29
REMARK    4  A    between atoms: C_4  and  N_50
REMARK    5  A    between atoms: C_5  and  C_6
REMARK    6  A    between atoms: C_5  and  N_50
REMARK    7  A    between atoms: C_15  and  C_16
REMARK    8  A    between atoms: C_15  and  N_50
REMARK    9  A    between atoms: C_21  and  C_22
REMARK                            x       y       z     vdW  Elec       q    Type
REMARK                         _______ _______ _______ _____ _____    ______ ____
ROOT
ATOM      1  N   UNL     1       6.497  -0.645   1.815  0.00  0.00    +0.387 N 
ATOM      2  H   UNL     1       6.214  -1.250   1.035  0.00  0.00    -0.081 HD
ENDROOT
BRANCH   1   3
ATOM      3  C   UNL     1       7.005   0.632   1.270  0.00  0.00    -0.047 C 
BRANCH   3   5
ATOM      4  C   UNL     1       8.598   1.627  -0.377  0.00  0.00    +0.035 C 
ATOM      5  C   UNL     1       7.944   0.329   0.101  0.00  0.00    +0.095 C 
BRANCH   5   6
ATOM      6  O   UNL     1       7.198  -0.252  -0.971  0.00  0.00    -0.394 OA
ATOM      7  H   UNL     1       6.492   0.315  -1.311  0.00  0.00    +0.210 HD
ENDBRANCH   5   6
ENDBRANCH   3   5
ENDBRANCH   1   3
BRANCH   1   8
ATOM      8  C   UNL     1       5.325  -0.395   2.680  0.00  0.00    -0.042 C 
BRANCH   8   9
ATOM      9  C   UNL     1       4.184   0.091   1.824  0.00  0.00    -0.060 A 
ATOM     10  C   UNL     1       3.312  -0.819   1.256  0.00  0.00    +0.005 A 
ATOM     11  C   UNL     1       2.264  -0.378   0.469  0.00  0.00    +0.050 A 
ATOM     12  C   UNL     1       2.085   0.979   0.249  0.00  0.00    +0.166 A 
ATOM     13  C   UNL     1       2.964   1.895   0.823  0.00  0.00    +0.166 A 
ATOM     14  C   UNL     1       4.012   1.446   1.609  0.00  0.00    +0.051 A 
ATOM     15  O   UNL     1       2.579   3.153   0.460  0.00  0.00    -0.453 OA
ATOM     16  C   UNL     1       1.221   3.022  -0.002  0.00  0.00    +0.466 C 
ATOM     17  O   UNL     1       1.150   1.663  -0.472  0.00  0.00    -0.453 OA
ENDBRANCH   8   9
ENDBRANCH   1   8
BRANCH   1  18
ATOM     18  C   UNL     1       7.560  -1.323   2.587  0.00  0.00    -0.039 C 
BRANCH  18  19
ATOM     19  C   UNL     1       7.068  -2.687   2.999  0.00  0.00    -0.019 A 
ATOM     20  C   UNL     1       6.534  -3.011   4.197  0.00  0.00    +0.107 A 
ATOM     21  N   UNL     1       6.220  -4.324   4.172  0.00  0.00    -0.284 N 
ATOM     22  H   UNL     1       5.809  -4.843   4.921  0.00  0.00    +0.188 HD
ATOM     23  N   UNL     1       6.571  -4.832   2.915  0.00  0.00    -0.174 NA
ATOM     24  C   UNL     1       7.076  -3.848   2.202  0.00  0.00    +0.094 A 
BRANCH  24  25
ATOM     25  C   UNL     1       7.572  -3.945   0.806  0.00  0.00    +0.002 A 
ATOM     26  C   UNL     1       7.240  -2.962  -0.123  0.00  0.00    +0.011 A 
ATOM     27  C   UNL     1       7.707  -3.055  -1.419  0.00  0.00    +0.020 A 
ATOM     28  C   UNL     1       8.495  -4.128  -1.797  0.00  0.00    +0.041 A 
ATOM     29  C   UNL     1       8.824  -5.109  -0.878  0.00  0.00    +0.020 A 
ATOM     30  C   UNL     1       8.366  -5.023   0.421  0.00  0.00    +0.011 A 
ATOM     31 CL   UNL     1       9.074  -4.242  -3.430  0.00  0.00    -0.084 Cl
ENDBRANCH  24  25
ENDBRANCH  18  19
ENDBRANCH   1  18
TORSDOF 8
