REMARK  Name = ZINC04757686
REMARK  5 active torsions:
REMARK  status: ('A' for Active; 'I' for Inactive)
REMARK    1  A    between atoms: C_4  and  C_7
REMARK    2  A    between atoms: C_7  and  C_8
REMARK    3  A    between atoms: C_7  and  N_60
REMARK    4  A    between atoms: C_21  and  C_29
REMARK    5  A    between atoms: C_23  and  C_25
REMARK                            x       y       z     vdW  Elec       q    Type
REMARK                         _______ _______ _______ _____ _____    ______ ____
ROOT
ATOM      1  C   UNL     1       4.971  -4.404  -0.260  0.00  0.00    -0.058 C 
ATOM      2  C   UNL     1       4.885  -2.878  -0.333  0.00  0.00    +0.089 C 
ATOM      3  N   UNL     1       3.485  -2.478  -0.529  0.00  0.00    -0.303 N 
ATOM      4  C   UNL     1       2.642  -2.962   0.573  0.00  0.00    +0.089 C 
ATOM      5  C   UNL     1       2.728  -4.488   0.646  0.00  0.00    -0.058 C 
ATOM      6  C   UNL     1       3.376  -1.105  -0.671  0.00  0.00    +0.219 A 
ATOM      7  N   UNL     1       2.180  -0.568  -0.851  0.00  0.00    -0.214 NA
ATOM      8  C   UNL     1       2.042   0.748  -0.995  0.00  0.00    +0.077 A 
ATOM      9  C   UNL     1       3.181   1.557  -0.942  0.00  0.00    +0.060 A 
ATOM     10  C   UNL     1       4.410   0.954  -0.747  0.00  0.00    +0.149 A 
ATOM     11  N   UNL     1       4.472  -0.362  -0.616  0.00  0.00    -0.210 NA
ATOM     12  N   UNL     1       4.137  -4.876   0.866  0.00  0.00    +0.389 N 
ATOM     13  H   UNL     1       4.472  -4.441   1.734  0.00  0.00    -0.080 HD
ENDROOT
BRANCH   8  14
ATOM     14  C   UNL     1       0.702   1.347  -1.203  0.00  0.00    +0.001 A 
ATOM     15  C   UNL     1      -0.428   0.531  -1.254  0.00  0.00    +0.013 A 
ATOM     16  C   UNL     1      -1.672   1.092  -1.453  0.00  0.00    +0.039 A 
ATOM     17  C   UNL     1      -1.801   2.465  -1.591  0.00  0.00    +0.123 A 
ATOM     18  C   UNL     1      -0.681   3.280  -1.541  0.00  0.00    +0.039 A 
ATOM     19  C   UNL     1       0.568   2.727  -1.347  0.00  0.00    +0.013 A 
ATOM     20  F   UNL     1      -3.023   3.011  -1.782  0.00  0.00    -0.205 F 
ENDBRANCH   8  14
BRANCH  10  21
ATOM     21  C   UNL     1       5.665   1.786  -0.683  0.00  0.00    +0.434 C 
ATOM     22  F   UNL     1       5.906   2.166   0.641  0.00  0.00    -0.164 F 
ATOM     23  F   UNL     1       6.746   1.035  -1.157  0.00  0.00    -0.164 F 
ATOM     24  F   UNL     1       5.508   2.928  -1.475  0.00  0.00    -0.164 F 
ENDBRANCH  10  21
BRANCH  12  25
ATOM     25  C   UNL     1       4.244  -6.345   0.992  0.00  0.00    -0.007 C 
BRANCH  25  29
ATOM     26  C   UNL     1       8.336  -7.391   1.631  0.00  0.00    +0.000 A 
ATOM     27  C   UNL     1       7.563  -8.128   0.753  0.00  0.00    +0.000 A 
ATOM     28  C   UNL     1       6.239  -7.790   0.547  0.00  0.00    +0.002 A 
ATOM     29  C   UNL     1       5.687  -6.714   1.218  0.00  0.00    -0.057 A 
ATOM     30  C   UNL     1       6.462  -5.974   2.092  0.00  0.00    +0.002 A 
ATOM     31  C   UNL     1       7.784  -6.316   2.302  0.00  0.00    +0.000 A 
ENDBRANCH  25  29
BRANCH  25  32
ATOM     32  C   UNL     1       3.420  -6.795   2.171  0.00  0.00    -0.057 A 
ATOM     33  C   UNL     1       3.469  -6.089   3.358  0.00  0.00    +0.002 A 
ATOM     34  C   UNL     1       2.709  -6.499   4.438  0.00  0.00    +0.000 A 
ATOM     35  C   UNL     1       1.909  -7.621   4.334  0.00  0.00    +0.000 A 
ATOM     36  C   UNL     1       1.865  -8.331   3.149  0.00  0.00    +0.000 A 
ATOM     37  C   UNL     1       2.620  -7.918   2.067  0.00  0.00    +0.002 A 
ENDBRANCH  25  32
ENDBRANCH  12  25
TORSDOF 5
