REMARK  Name = ZINC09580661
REMARK  6 active torsions:
REMARK  status: ('A' for Active; 'I' for Inactive)
REMARK    1  A    between atoms: C_3  and  N_8
REMARK    2  A    between atoms: C_9  and  C_11
REMARK    3  A    between atoms: C_11  and  N_60
REMARK    4  A    between atoms: C_17  and  C_19
REMARK    5  A    between atoms: N_24  and  S_26
REMARK    6  A    between atoms: S_26  and  C_29
REMARK                            x       y       z     vdW  Elec       q    Type
REMARK                         _______ _______ _______ _____ _____    ______ ____
ROOT
ATOM      1  C   UNL     1      -5.940   2.473   1.997  0.00  0.00    -0.059 C 
ATOM      2  C   UNL     1      -6.976   3.576   1.754  0.00  0.00    +0.089 C 
ATOM      3  N   UNL     1      -8.271   2.945   1.459  0.00  0.00    -0.305 N 
ATOM      4  C   UNL     1      -8.318   1.909   0.416  0.00  0.00    +0.089 C 
ATOM      5  C   UNL     1      -7.229   0.871   0.711  0.00  0.00    -0.059 C 
ATOM      6  C   UNL     1      -9.385   3.305   2.126  0.00  0.00    +0.220 C 
ATOM      7  O   UNL     1      -9.350   4.231   2.909  0.00  0.00    -0.275 OA
ATOM      8  N   UNL     1      -5.929   1.567   0.828  0.00  0.00    +0.387 N 
ATOM      9  H   UNL     1      -5.771   2.122  -0.022  0.00  0.00    -0.081 HD
ENDROOT
BRANCH   6  10
ATOM     10  C   UNL     1     -10.675   2.559   1.899  0.00  0.00    +0.091 C 
ATOM     11  C   UNL     1     -11.264   2.958   0.544  0.00  0.00    +0.015 C 
ATOM     12  C   UNL     1     -12.557   2.176   0.298  0.00  0.00    +0.018 C 
ATOM     13  C   UNL     1     -13.574   2.523   1.390  0.00  0.00    +0.109 C 
ATOM     14  N   UNL     1     -12.961   2.278   2.703  0.00  0.00    -0.175 NA
ATOM     15  C   UNL     1     -11.671   2.910   3.009  0.00  0.00    +0.122 C 
BRANCH  14  16
ATOM     16  S   UNL     1     -13.711   1.308   3.817  0.00  0.00    +0.067 S 
ATOM     17  O   UNL     1     -14.569   0.441   3.088  0.00  0.00    -0.152 OA
ATOM     18  O   UNL     1     -12.694   0.823   4.682  0.00  0.00    -0.152 OA
BRANCH  16  19
ATOM     19  C   UNL     1     -14.751   2.344   4.792  0.00  0.00    +0.143 A 
ATOM     20  C   UNL     1     -16.048   2.684   4.590  0.00  0.00    +0.036 A 
ATOM     21  C   UNL     1     -16.670   3.519   5.498  0.00  0.00    +0.010 A 
ATOM     22  C   UNL     1     -15.966   3.974   6.563  0.00  0.00    +0.047 A 
ATOM     23  S   UNL     1     -14.373   3.210   6.306  0.00  0.00    -0.077 S 
ENDBRANCH  16  19
ENDBRANCH  14  16
ENDBRANCH   6  10
BRANCH   8  24
ATOM     24  C   UNL     1      -4.839   0.579   0.966  0.00  0.00    +0.019 C 
BRANCH  24  26
ATOM     25  N   UNL     1      -2.366   0.603   0.940  0.00  0.00    -0.287 N 
ATOM     26  C   UNL     1      -3.518   1.297   0.863  0.00  0.00    +0.201 C 
ATOM     27  O   UNL     1      -3.492   2.500   0.711  0.00  0.00    -0.278 OA
ATOM     28  H   UNL     1      -2.386  -0.366   0.991  0.00  0.00    +0.155 HD
BRANCH  25  31
ATOM     29  C   UNL     1       1.125   1.464   1.713  0.00  0.00    +0.005 A 
ATOM     30  C   UNL     1      -0.082   0.792   1.702  0.00  0.00    +0.023 A 
ATOM     31  C   UNL     1      -1.141   1.278   0.946  0.00  0.00    +0.036 A 
ATOM     32  C   UNL     1      -0.980   2.434   0.193  0.00  0.00    +0.061 A 
ATOM     33  C   UNL     1       0.231   3.103   0.207  0.00  0.00    +0.125 A 
ATOM     34  C   UNL     1       1.282   2.617   0.967  0.00  0.00    +0.038 A 
ATOM     35  F   UNL     1       0.387   4.231  -0.520  0.00  0.00    -0.205 F 
ENDBRANCH  25  31
ENDBRANCH  24  26
ENDBRANCH   8  24
TORSDOF 6
