REMARK  Name = ZINC13063729
REMARK  14 active torsions:
REMARK  status: ('A' for Active; 'I' for Inactive)
REMARK    1  A    between atoms: C_1  and  C_2
REMARK    2  A    between atoms: C_2  and  C_3
REMARK    3  A    between atoms: C_10  and  C_15
REMARK    4  A    between atoms: C_15  and  N_75
REMARK    5  A    between atoms: C_16  and  C_17
REMARK    6  A    between atoms: C_16  and  N_75
REMARK    7  A    between atoms: C_20  and  C_23
REMARK    8  A    between atoms: C_24  and  C_26
REMARK    9  A    between atoms: C_24  and  C_28
REMARK   10  A    between atoms: C_24  and  N_75
REMARK   11  A    between atoms: C_26  and  C_27
REMARK   12  A    between atoms: N_32  and  C_33
REMARK   13  A    between atoms: C_33  and  C_34
REMARK   14  A    between atoms: C_34  and  C_35
REMARK                            x       y       z     vdW  Elec       q    Type
REMARK                         _______ _______ _______ _____ _____    ______ ____
ROOT
ATOM      1  N   UNL     1       4.042  -0.420  -1.299  0.00  0.00    +0.392 N 
ATOM      2  H   UNL     1       3.732  -0.288  -2.268  0.00  0.00    -0.080 HD
ENDROOT
BRANCH   1   3
ATOM      3  C   UNL     1       5.506  -0.627  -1.287  0.00  0.00    -0.036 C 
BRANCH   3  11
ATOM      4  C   UNL     1       7.235  -2.622  -6.883  0.00  0.00    -0.047 A 
ATOM      5  C   UNL     1       7.198  -3.978  -6.584  0.00  0.00    +0.005 A 
ATOM      6  C   UNL     1       6.841  -4.410  -5.325  0.00  0.00    +0.026 A 
ATOM      7  C   UNL     1       6.516  -3.481  -4.342  0.00  0.00    +0.049 A 
ATOM      8  C   UNL     1       6.555  -2.108  -4.649  0.00  0.00    -0.001 A 
ATOM      9  C   UNL     1       6.919  -1.692  -5.934  0.00  0.00    +0.013 A 
ATOM     10  C   UNL     1       6.211  -1.137  -3.608  0.00  0.00    +0.017 A 
ATOM     11  C   UNL     1       5.866  -1.599  -2.381  0.00  0.00    +0.001 A 
ATOM     12  C   UNL     1       5.848  -2.986  -2.123  0.00  0.00    +0.251 A 
ATOM     13  O   UNL     1       5.539  -3.380  -1.011  0.00  0.00    -0.268 OA
ATOM     14  N   UNL     1       6.157  -3.885  -3.074  0.00  0.00    -0.322 N 
ATOM     15  H   UNL     1       6.130  -4.832  -2.864  0.00  0.00    +0.169 HD
BRANCH   4  17
ATOM     16  C   UNL     1       9.142  -1.970  -8.328  0.00  0.00    +0.009 C 
ATOM     17  C   UNL     1       7.627  -2.174  -8.268  0.00  0.00    +0.032 C 
ENDBRANCH   4  17
ENDBRANCH   3  11
ENDBRANCH   1   3
BRANCH   1  18
ATOM     18  C   UNL     1       3.361  -1.603  -0.733  0.00  0.00    -0.042 C 
BRANCH  18  19
ATOM     19  C   UNL     1       1.909  -1.564  -1.138  0.00  0.00    -0.064 A 
ATOM     20  C   UNL     1       0.963  -1.057  -0.268  0.00  0.00    +0.002 A 
ATOM     21  C   UNL     1      -0.368  -1.017  -0.641  0.00  0.00    +0.003 A 
ATOM     22  C   UNL     1      -0.753  -1.494  -1.881  0.00  0.00    -0.050 A 
ATOM     23  C   UNL     1       0.194  -2.006  -2.749  0.00  0.00    +0.003 A 
ATOM     24  C   UNL     1       1.525  -2.041  -2.377  0.00  0.00    +0.002 A 
ATOM     25  C   UNL     1      -2.204  -1.455  -2.286  0.00  0.00    +0.044 C 
ENDBRANCH  18  19
ENDBRANCH   1  18
BRANCH   1  26
ATOM     26  C   UNL     1       3.696   0.784  -0.515  0.00  0.00    +0.003 C 
BRANCH  26  27
ATOM     27  C   UNL     1       4.266   0.691   0.877  0.00  0.00    +0.138 A 
ATOM     28  N   UNL     1       5.473   0.299   1.204  0.00  0.00    -0.115 NA
ATOM     29  N   UNL     1       5.577   0.358   2.486  0.00  0.00    -0.023 NA
ATOM     30  N   UNL     1       4.467   0.778   2.986  0.00  0.00    -0.044 NA
ATOM     31  N   UNL     1       3.634   0.994   2.026  0.00  0.00    -0.231 N 
BRANCH  31  32
ATOM     32  C   UNL     1       2.258   1.478   2.160  0.00  0.00    +0.152 C 
BRANCH  32  33
ATOM     33  C   UNL     1       2.247   3.007   2.106  0.00  0.00    +0.058 C 
BRANCH  33  34
ATOM     34  C   UNL     1       0.832   3.506   2.244  0.00  0.00    -0.046 A 
ATOM     35  C   UNL     1       0.053   3.697   1.118  0.00  0.00    +0.004 A 
ATOM     36  C   UNL     1      -1.247   4.149   1.246  0.00  0.00    +0.000 A 
ATOM     37  C   UNL     1      -1.765   4.420   2.498  0.00  0.00    +0.000 A 
ATOM     38  C   UNL     1      -0.984   4.234   3.624  0.00  0.00    +0.000 A 
ATOM     39  C   UNL     1       0.314   3.777   3.497  0.00  0.00    +0.004 A 
ENDBRANCH  33  34
ENDBRANCH  32  33
ENDBRANCH  31  32
ENDBRANCH  26  27
BRANCH  26  40
ATOM     40  C   UNL     1       4.271   2.015  -1.220  0.00  0.00    -0.011 C 
ATOM     41  C   UNL     1       3.591   2.188  -2.580  0.00  0.00    +0.002 C 
ENDBRANCH  26  40
ENDBRANCH   1  26
TORSDOF 11
