REMARK  Name = ZINC02278253
REMARK  8 active torsions:
REMARK  status: ('A' for Active; 'I' for Inactive)
REMARK    1  A    between atoms: C_1  and  O_2
REMARK    2  A    between atoms: O_2  and  C_3
REMARK    3  A    between atoms: C_8  and  C_9
REMARK    4  A    between atoms: C_18  and  C_25
REMARK    5  A    between atoms: C_20  and  C_21
REMARK    6  A    between atoms: C_20  and  N_53
REMARK    7  A    between atoms: C_21  and  O_23
REMARK    8  A    between atoms: O_23  and  C_24
REMARK                            x       y       z     vdW  Elec       q    Type
REMARK                         _______ _______ _______ _____ _____    ______ ____
ROOT
ATOM      1  C   UNL     1      -0.007  -2.643   0.868  0.00  0.00    +0.053 C 
ATOM      2  N   UNL     1       0.474  -4.005   0.592  0.00  0.00    -0.353 N 
ATOM      3  C   UNL     1      -0.475  -4.995   0.303  0.00  0.00    +0.028 A 
ATOM      4  C   UNL     1      -0.101  -6.332   0.299  0.00  0.00    +0.024 A 
ATOM      5  C   UNL     1      -1.036  -7.306   0.009  0.00  0.00    +0.017 A 
ATOM      6  C   UNL     1      -2.341  -6.949  -0.276  0.00  0.00    +0.018 A 
ATOM      7  C   UNL     1      -2.715  -5.617  -0.271  0.00  0.00    +0.019 A 
ATOM      8  C   UNL     1      -1.785  -4.635   0.019  0.00  0.00    -0.035 A 
ATOM      9  C   UNL     1      -2.207  -3.190   0.023  0.00  0.00    -0.001 C 
ATOM     10 BR   UNL     1      -3.619  -8.284  -0.673  0.00  0.00    -0.050 Br
ATOM     11  H   UNL     1       1.421  -4.213   0.609  0.00  0.00    +0.145 HD
ATOM     12  N   UNL     1      -1.028  -2.319  -0.154  0.00  0.00    +0.409 N 
ATOM     13  H   UNL     1      -0.630  -2.481  -1.087  0.00  0.00    -0.076 HD
ENDROOT
BRANCH   1  19
ATOM     14  C   UNL     1      -0.683  -1.368   2.919  0.00  0.00    +0.123 A 
ATOM     15  C   UNL     1      -1.228  -1.316   4.193  0.00  0.00    +0.046 A 
ATOM     16  C   UNL     1      -1.685  -2.471   4.796  0.00  0.00    +0.004 A 
ATOM     17  C   UNL     1      -1.599  -3.680   4.130  0.00  0.00    +0.000 A 
ATOM     18  C   UNL     1      -1.061  -3.735   2.858  0.00  0.00    +0.007 A 
ATOM     19  C   UNL     1      -0.598  -2.582   2.253  0.00  0.00    -0.003 A 
BRANCH  14  21
ATOM     20  C   UNL     1      -0.352   0.981   3.068  0.00  0.00    +0.277 C 
ATOM     21  O   UNL     1      -0.233  -0.232   2.323  0.00  0.00    -0.495 OA
ENDBRANCH  14  21
ENDBRANCH   1  19
BRANCH   9  22
ATOM     22  C   UNL     1      -3.162  -2.950  -1.118  0.00  0.00    -0.057 A 
ATOM     23  C   UNL     1      -2.674  -2.750  -2.396  0.00  0.00    +0.002 A 
ATOM     24  C   UNL     1      -3.550  -2.534  -3.444  0.00  0.00    +0.000 A 
ATOM     25  C   UNL     1      -4.912  -2.511  -3.212  0.00  0.00    +0.000 A 
ATOM     26  C   UNL     1      -5.400  -2.707  -1.933  0.00  0.00    +0.000 A 
ATOM     27  C   UNL     1      -4.524  -2.926  -0.886  0.00  0.00    +0.002 A 
ENDBRANCH   9  22
BRANCH  12  28
ATOM     28  C   UNL     1      -1.426  -0.900  -0.041  0.00  0.00    +0.048 C 
BRANCH  28  29
ATOM     29  C   UNL     1      -0.227  -0.033  -0.327  0.00  0.00    +0.290 C 
ATOM     30  O   UNL     1       0.808  -0.535  -0.695  0.00  0.00    -0.253 OA
BRANCH  29  31
ATOM     31  O   UNL     1      -0.309   1.298  -0.172  0.00  0.00    -0.469 OA
ATOM     32  C   UNL     1       0.884   2.071  -0.465  0.00  0.00    +0.280 C 
ENDBRANCH  29  31
ENDBRANCH  28  29
ENDBRANCH  12  28
TORSDOF 6
