REMARK  Name = ZINC39360031
REMARK  9 active torsions:
REMARK  status: ('A' for Active; 'I' for Inactive)
REMARK    1  A    between atoms: C_1  and  O_2
REMARK    2  A    between atoms: O_2  and  C_3
REMARK    3  A    between atoms: C_11  and  N_14
REMARK    4  A    between atoms: N_14  and  C_15
REMARK    5  A    between atoms: C_15  and  C_16
REMARK    6  A    between atoms: N_18  and  C_25
REMARK    7  A    between atoms: C_25  and  C_26
REMARK    8  A    between atoms: C_26  and  O_28
REMARK    9  A    between atoms: O_28  and  C_29
REMARK                            x       y       z     vdW  Elec       q    Type
REMARK                         _______ _______ _______ _____ _____    ______ ____
ROOT
ATOM      1  C   UNL     1      -0.310  -6.925  -1.062  0.00  0.00    +0.118 C 
ENDROOT
BRANCH   1   2
ATOM      2  C   UNL     1      -0.333  -8.400  -0.756  0.00  0.00    -0.008 A 
ATOM      3  C   UNL     1       0.556  -9.075  -0.009  0.00  0.00    +0.092 A 
ATOM      4  N   UNL     1       0.210 -10.398   0.045  0.00  0.00    -0.336 N 
ATOM      5  C   UNL     1      -0.938 -10.612  -0.685  0.00  0.00    +0.050 A 
ATOM      6  C   UNL     1      -1.332  -9.369  -1.213  0.00  0.00    +0.004 A 
ATOM      7  C   UNL     1      -2.481  -9.280  -2.001  0.00  0.00    +0.010 A 
ATOM      8  C   UNL     1      -3.220 -10.401  -2.251  0.00  0.00    +0.001 A 
ATOM      9  C   UNL     1      -2.838 -11.629  -1.729  0.00  0.00    +0.002 A 
ATOM     10  C   UNL     1      -1.702 -11.742  -0.957  0.00  0.00    +0.026 A 
BRANCH   4  11
ATOM     11  C   UNL     1       0.952 -11.432   0.770  0.00  0.00    +0.242 C 
BRANCH  11  12
ATOM     12  C   UNL     1       1.904 -12.122  -0.172  0.00  0.00    +0.327 C 
ATOM     13  O   UNL     1       1.958 -11.784  -1.331  0.00  0.00    -0.249 OA
BRANCH  12  14
ATOM     14  O   UNL     1       2.693 -13.112   0.276  0.00  0.00    -0.467 OA
ATOM     15  C   UNL     1       3.571 -13.721  -0.672  0.00  0.00    +0.280 C 
ENDBRANCH  12  14
ENDBRANCH  11  12
ENDBRANCH   4  11
ENDBRANCH   1   2
BRANCH   1  16
ATOM     16  N   UNL     1      -1.249  -6.226  -0.174  0.00  0.00    -0.306 NA
ATOM     17  H   UNL     1      -1.038  -6.413   0.795  0.00  0.00    +0.123 HD
BRANCH  16  26
ATOM     18  C   UNL     1      -1.201  -0.638   0.010  0.00  0.00    +0.162 A 
ATOM     19  C   UNL     1      -2.371   0.101   0.019  0.00  0.00    +0.049 A 
ATOM     20  C   UNL     1      -3.594  -0.544   0.028  0.00  0.00    +0.004 A 
ATOM     21  C   UNL     1      -3.647  -1.924   0.030  0.00  0.00    +0.007 A 
ATOM     22  C   UNL     1      -2.479  -2.671   0.021  0.00  0.00    -0.000 A 
ATOM     23  C   UNL     1      -1.254  -2.032   0.003  0.00  0.00    +0.165 A 
ATOM     24  O   UNL     1      -0.085  -2.725  -0.022  0.00  0.00    -0.486 OA
ATOM     25  C   UNL     1      -0.120  -4.107   0.338  0.00  0.00    +0.248 C 
ATOM     26  C   UNL     1      -1.254  -4.782  -0.443  0.00  0.00    +0.096 C 
ATOM     27  C   UNL     1      -2.582  -4.175   0.028  0.00  0.00    +0.061 C 
BRANCH  18  29
ATOM     28  C   UNL     1      -0.017   1.425   0.010  0.00  0.00    +0.277 C 
ATOM     29  O   UNL     1       0.002  -0.004   0.002  0.00  0.00    -0.491 OA
ENDBRANCH  18  29
ENDBRANCH  16  26
ENDBRANCH   1  16
TORSDOF 7
