REMARK  Name = ZINC14092642
REMARK  7 active torsions:
REMARK  status: ('A' for Active; 'I' for Inactive)
REMARK    1  A    between atoms: C_1  and  O_2
REMARK    2  A    between atoms: O_2  and  C_3
REMARK    3  A    between atoms: C_6  and  C_9
REMARK    4  A    between atoms: C_9  and  C_32
REMARK    5  A    between atoms: N_17  and  C_18
REMARK    6  A    between atoms: C_21  and  O_24
REMARK    7  A    between atoms: O_24  and  C_25
REMARK                            x       y       z     vdW  Elec       q    Type
REMARK                         _______ _______ _______ _____ _____    ______ ____
ROOT
ATOM      1  C   UNL     1      -5.815  -3.672   0.433  0.00  0.00    +0.232 C 
ATOM      2  N   UNL     1      -6.995  -2.800   0.308  0.00  0.00    -0.265 N 
ATOM      3  C   UNL     1      -7.702  -2.853  -0.840  0.00  0.00    +0.327 C 
ATOM      4  O   UNL     1      -8.681  -2.139  -0.964  0.00  0.00    -0.251 OA
ATOM      5  N   UNL     1      -7.360  -3.662  -1.842  0.00  0.00    -0.147 NA
ATOM      6  C   UNL     1      -6.322  -4.475  -1.818  0.00  0.00    +0.131 C 
ATOM      7  N   UNL     1      -5.504  -4.537  -0.719  0.00  0.00    -0.237 N 
ATOM      8  C   UNL     1      -4.493  -5.454  -0.927  0.00  0.00    +0.137 C 
ATOM      9  N   UNL     1      -3.542  -5.756  -0.078  0.00  0.00    -0.232 NA
ATOM     10  C   UNL     1      -4.668  -6.034  -2.270  0.00  0.00    +0.026 A 
ATOM     11  C   UNL     1      -5.810  -5.422  -2.826  0.00  0.00    +0.023 A 
ATOM     12  C   UNL     1      -6.228  -5.775  -4.105  0.00  0.00    +0.012 A 
ATOM     13  C   UNL     1      -5.520  -6.721  -4.821  0.00  0.00    +0.001 A 
ATOM     14  C   UNL     1      -4.398  -7.322  -4.275  0.00  0.00    +0.001 A 
ATOM     15  C   UNL     1      -3.969  -6.985  -3.004  0.00  0.00    +0.012 A 
ATOM     16  H   UNL     1      -7.256  -2.206   1.029  0.00  0.00    +0.153 HD
ENDROOT
BRANCH   1  20
ATOM     17  C   UNL     1      -2.414  -1.194   1.179  0.00  0.00    +0.120 A 
ATOM     18  C   UNL     1      -3.656  -0.840   1.685  0.00  0.00    +0.046 A 
ATOM     19  C   UNL     1      -4.754  -1.643   1.442  0.00  0.00    +0.011 A 
ATOM     20  C   UNL     1      -4.615  -2.798   0.696  0.00  0.00    +0.003 A 
ATOM     21  C   UNL     1      -3.378  -3.154   0.190  0.00  0.00    +0.011 A 
ATOM     22  C   UNL     1      -2.279  -2.351   0.425  0.00  0.00    +0.046 A 
BRANCH  17  24
ATOM     23  C   UNL     1      -1.546   0.770   2.199  0.00  0.00    +0.277 C 
ATOM     24  O   UNL     1      -1.333  -0.406   1.416  0.00  0.00    -0.495 OA
ENDBRANCH  17  24
ENDBRANCH   1  20
BRANCH   9  25
ATOM     25  C   UNL     1      -2.975  -4.779   0.688  0.00  0.00    +0.066 A 
ATOM     26  C   UNL     1      -1.591  -4.579   0.659  0.00  0.00    +0.031 A 
ATOM     27  C   UNL     1      -1.024  -3.591   1.434  0.00  0.00    +0.048 A 
ATOM     28  C   UNL     1      -1.824  -2.795   2.244  0.00  0.00    +0.120 A 
ATOM     29  C   UNL     1      -3.199  -2.990   2.277  0.00  0.00    +0.048 A 
ATOM     30  C   UNL     1      -3.777  -3.971   1.501  0.00  0.00    +0.031 A 
BRANCH  28  31
ATOM     31  O   UNL     1      -1.260  -1.823   3.007  0.00  0.00    -0.495 OA
ATOM     32  C   UNL     1      -2.140  -1.041   3.817  0.00  0.00    +0.277 C 
ENDBRANCH  28  31
ENDBRANCH   9  25
BRANCH   1  33
ATOM     33  C   UNL     1      -6.018  -4.569   1.655  0.00  0.00    +0.432 C 
ATOM     34  F   UNL     1      -6.713  -3.862   2.642  0.00  0.00    -0.166 F 
ATOM     35  F   UNL     1      -6.754  -5.700   1.287  0.00  0.00    -0.166 F 
ATOM     36  F   UNL     1      -4.773  -4.966   2.155  0.00  0.00    -0.166 F 
ENDBRANCH   1  33
TORSDOF 5
