REMARK  Name = ZINC34832105
REMARK  14 active torsions:
REMARK  status: ('A' for Active; 'I' for Inactive)
REMARK    1  A    between atoms: C_1  and  C_2
REMARK    2  A    between atoms: C_2  and  C_3
REMARK    3  A    between atoms: C_3  and  C_5
REMARK    4  A    between atoms: C_3  and  N_6
REMARK    5  A    between atoms: N_6  and  C_7
REMARK    6  A    between atoms: C_7  and  C_8
REMARK    7  A    between atoms: C_9  and  C_28
REMARK    8  A    between atoms: N_11  and  C_21
REMARK    9  A    between atoms: C_12  and  N_13
REMARK   10  A    between atoms: N_16  and  C_19
REMARK   11  A    between atoms: C_19  and  C_20
REMARK   12  A    between atoms: C_29  and  C_31
REMARK   13  A    between atoms: C_31  and  S_32
REMARK   14  A    between atoms: S_32  and  C_33
REMARK                            x       y       z     vdW  Elec       q    Type
REMARK                         _______ _______ _______ _____ _____    ______ ____
ROOT
ATOM      1  C   UNL     1      -3.336   2.682  -1.444  0.00  0.00    +0.032 A 
ATOM      2  C   UNL     1      -2.586   3.266  -0.418  0.00  0.00    +0.067 A 
ATOM      3  N   UNL     1      -1.883   4.247  -0.924  0.00  0.00    -0.170 NA
ATOM      4  N   UNL     1      -2.159   4.327  -2.296  0.00  0.00    -0.218 N 
ATOM      5  C   UNL     1      -3.055   3.348  -2.598  0.00  0.00    +0.130 A 
ATOM      6  C   UNL     1      -2.587   2.838   1.027  0.00  0.00    +0.068 C 
ENDROOT
BRANCH   5   7
ATOM      7  N   UNL     1      -3.588   3.079  -3.855  0.00  0.00    -0.318 N 
ATOM      8  C   UNL     1      -4.918   3.580  -4.235  0.00  0.00    +0.088 C 
ATOM      9  C   UNL     1      -4.802   4.285  -5.591  0.00  0.00    -0.060 C 
ATOM     10  N   UNL     1      -4.197   3.370  -6.567  0.00  0.00    +0.382 N 
ATOM     11  C   UNL     1      -2.820   3.052  -6.168  0.00  0.00    -0.060 C 
ATOM     12  C   UNL     1      -2.836   2.291  -4.843  0.00  0.00    +0.088 C 
ATOM     13  H   UNL     1      -4.738   2.519  -6.609  0.00  0.00    -0.082 HD
BRANCH  10  14
ATOM     14  C   UNL     1      -4.186   4.006  -7.891  0.00  0.00    -0.082 C 
ATOM     15  C   UNL     1      -3.671   3.009  -8.931  0.00  0.00    -0.017 C 
ENDBRANCH  10  14
ENDBRANCH   5   7
BRANCH   4  16
ATOM     16  C   UNL     1      -1.606   5.247  -3.196  0.00  0.00    +0.070 A 
ATOM     17  C   UNL     1      -1.088   4.809  -4.408  0.00  0.00    +0.028 A 
ATOM     18  C   UNL     1      -0.544   5.717  -5.295  0.00  0.00    +0.005 A 
ATOM     19  C   UNL     1      -0.514   7.063  -4.979  0.00  0.00    +0.038 A 
ATOM     20  C   UNL     1      -1.029   7.504  -3.771  0.00  0.00    +0.125 A 
ATOM     21  C   UNL     1      -1.581   6.599  -2.882  0.00  0.00    +0.066 A 
ATOM     22  F   UNL     1      -0.999   8.819  -3.464  0.00  0.00    -0.205 F 
ENDBRANCH   4  16
BRANCH   1  23
ATOM     23  C   UNL     1      -4.283   1.519  -1.299  0.00  0.00    +0.148 C 
BRANCH  23  24
ATOM     24  N   UNL     1      -3.756   0.366  -2.034  0.00  0.00    -0.294 N 
ATOM     25  C   UNL     1      -4.244   0.066  -3.254  0.00  0.00    +0.226 C 
ATOM     26  O   UNL     1      -5.082   0.778  -3.765  0.00  0.00    -0.275 OA
BRANCH  24  27
ATOM     27  C   UNL     1      -2.700  -0.459  -1.444  0.00  0.00    +0.073 C 
ATOM     28  C   UNL     1      -1.422   0.370  -1.305  0.00  0.00    +0.028 C 
BRANCH  27  30
ATOM     29  C   UNL     1      -4.364  -1.857  -0.211  0.00  0.00    +0.005 C 
ATOM     30  C   UNL     1      -3.144  -0.945  -0.063  0.00  0.00    +0.019 C 
ENDBRANCH  27  30
ENDBRANCH  24  27
BRANCH  25  31
ATOM     31  C   UNL     1      -3.748  -1.156  -3.984  0.00  0.00    +0.170 C 
BRANCH  31  32
ATOM     32  S   UNL     1      -4.486  -1.213  -5.640  0.00  0.00    -0.116 S 
BRANCH  32  33
ATOM     33  C   UNL     1      -3.817  -2.678  -6.355  0.00  0.00    +0.008 A 
ATOM     34  C   UNL     1      -2.938  -3.470  -5.626  0.00  0.00    +0.015 A 
ATOM     35  C   UNL     1      -2.416  -4.617  -6.189  0.00  0.00    +0.001 A 
ATOM     36  C   UNL     1      -2.766  -4.978  -7.478  0.00  0.00    +0.000 A 
ATOM     37  C   UNL     1      -3.639  -4.191  -8.207  0.00  0.00    +0.001 A 
ATOM     38  C   UNL     1      -4.171  -3.046  -7.647  0.00  0.00    +0.015 A 
ENDBRANCH  32  33
ENDBRANCH  31  32
ENDBRANCH  25  31
ENDBRANCH  23  24
ENDBRANCH   1  23
TORSDOF 10
