REMARK  Name = ZINC30976344
REMARK  10 active torsions:
REMARK  status: ('A' for Active; 'I' for Inactive)
REMARK    1  A    between atoms: C_1  and  C_2
REMARK    2  A    between atoms: C_5  and  C_8
REMARK    3  A    between atoms: C_10  and  C_13
REMARK    4  A    between atoms: C_13  and  N_14
REMARK    5  A    between atoms: C_17  and  C_20
REMARK    6  A    between atoms: N_22  and  C_23
REMARK    7  A    between atoms: C_23  and  C_25
REMARK    8  A    between atoms: C_23  and  C_26
REMARK    9  A    between atoms: C_29  and  C_33
REMARK   10  A    between atoms: C_31  and  C_32
REMARK                            x       y       z     vdW  Elec       q    Type
REMARK                         _______ _______ _______ _____ _____    ______ ____
ROOT
ATOM      1  N   UNL     1      -3.152   8.847   4.249  0.00  0.00    +0.386 N 
ATOM      2  C   UNL     1      -4.244   8.953   3.273  0.00  0.00    -0.077 C 
ATOM      3  C   UNL     1      -4.468   7.593   2.607  0.00  0.00    -0.006 C 
ATOM      4  C   UNL     1      -3.177   7.153   1.911  0.00  0.00    +0.071 C 
ATOM      5  C   UNL     1      -2.044   7.098   2.940  0.00  0.00    -0.006 C 
ATOM      6  C   UNL     1      -1.891   8.472   3.596  0.00  0.00    -0.077 C 
ATOM      7  H   UNL     1      -3.412   8.049   4.959  0.00  0.00    -0.081 HD
ENDROOT
BRANCH   4   8
ATOM      8  C   UNL     1      -3.373   5.787   1.304  0.00  0.00    +0.216 C 
ATOM      9  O   UNL     1      -4.439   5.221   1.417  0.00  0.00    -0.276 OA
ATOM     10  N   UNL     1      -2.363   5.196   0.636  0.00  0.00    -0.309 N 
ATOM     11  H   UNL     1      -1.395   5.709   0.534  0.00  0.00    +0.149 HD
BRANCH  10  12
ATOM     12  C   UNL     1      -2.553   3.868   0.046  0.00  0.00    +0.100 C 
ATOM     13  C   UNL     1      -3.139   4.014  -1.360  0.00  0.00    +0.033 C 
BRANCH  12  14
ATOM     14  C   UNL     1      -1.226   3.159  -0.035  0.00  0.00    -0.025 A 
ATOM     15  C   UNL     1      -0.057   3.890  -0.141  0.00  0.00    +0.006 A 
ATOM     16  C   UNL     1       1.161   3.240  -0.214  0.00  0.00    +0.004 A 
ATOM     17  C   UNL     1       1.210   1.859  -0.181  0.00  0.00    -0.050 A 
ATOM     18  C   UNL     1       0.041   1.128  -0.074  0.00  0.00    +0.007 A 
ATOM     19  C   UNL     1      -1.177   1.778  -0.006  0.00  0.00    -0.045 A 
ATOM     20  C   UNL     1      -2.451   0.982   0.105  0.00  0.00    +0.044 C 
ATOM     21  C   UNL     1       2.537   1.150  -0.261  0.00  0.00    +0.044 C 
ENDBRANCH  12  14
ENDBRANCH  10  12
ENDBRANCH   4   8
BRANCH   1  22
ATOM     22  C   UNL     1      -3.000  10.097   5.007  0.00  0.00    +0.022 C 
BRANCH  22  25
ATOM     23  C   UNL     1      -0.319   9.728   7.372  0.00  0.00    +0.202 A 
ATOM     24  N   UNL     1      -0.749  10.039   6.129  0.00  0.00    -0.193 NA
ATOM     25  C   UNL     1      -2.048   9.876   6.154  0.00  0.00    +0.211 A 
ATOM     26  O   UNL     1      -2.371   9.483   7.390  0.00  0.00    -0.340 OA
ATOM     27  N   UNL     1      -1.373   9.397   8.073  0.00  0.00    -0.056 NA
BRANCH  23  32
ATOM     28  C   UNL     1       5.130   9.831   9.235  0.00  0.00    +0.044 C 
ATOM     29  C   UNL     1       3.704   9.805   8.748  0.00  0.00    -0.050 A 
ATOM     30  C   UNL     1       2.688   9.433   9.610  0.00  0.00    +0.004 A 
ATOM     31  C   UNL     1       1.381   9.407   9.169  0.00  0.00    +0.012 A 
ATOM     32  C   UNL     1       1.085   9.755   7.853  0.00  0.00    +0.022 A 
ATOM     33  C   UNL     1       2.112  10.123   6.987  0.00  0.00    +0.012 A 
ATOM     34  C   UNL     1       3.416  10.151   7.440  0.00  0.00    +0.004 A 
ENDBRANCH  23  32
ENDBRANCH  22  25
ENDBRANCH   1  22
TORSDOF 6
