REMARK  Name = ZINC11503960
REMARK  12 active torsions:
REMARK  status: ('A' for Active; 'I' for Inactive)
REMARK    1  A    between atoms: C_1  and  C_2
REMARK    2  A    between atoms: C_2  and  C_3
REMARK    3  A    between atoms: C_4  and  C_33
REMARK    4  A    between atoms: C_9  and  S_21
REMARK    5  A    between atoms: N_10  and  C_13
REMARK    6  A    between atoms: C_13  and  C_14
REMARK    7  A    between atoms: C_17  and  C_20
REMARK    8  A    between atoms: S_21  and  C_22
REMARK    9  A    between atoms: C_22  and  C_23
REMARK   10  A    between atoms: N_25  and  C_26
REMARK   11  A    between atoms: C_31  and  C_32
REMARK   12  A    between atoms: C_31  and  N_68
REMARK                            x       y       z     vdW  Elec       q    Type
REMARK                         _______ _______ _______ _____ _____    ______ ____
ROOT
ATOM      1  C   UNL     1      -0.749   3.086   1.275  0.00  0.00    -0.005 A 
ATOM      2  C   UNL     1      -1.674   3.907   0.757  0.00  0.00    -0.026 A 
ATOM      3  C   UNL     1      -1.497   5.344   0.881  0.00  0.00    +0.075 A 
ATOM      4  C   UNL     1      -0.324   5.742   1.549  0.00  0.00    +0.117 A 
ATOM      5  S   UNL     1       0.455   4.203   1.969  0.00  0.00    -0.073 S 
ATOM      6  N   UNL     1      -0.019   7.020   1.737  0.00  0.00    -0.216 NA
ATOM      7  C   UNL     1      -0.813   7.976   1.299  0.00  0.00    +0.173 A 
ATOM      8  N   UNL     1      -1.972   7.678   0.642  0.00  0.00    -0.283 N 
ATOM      9  C   UNL     1      -2.340   6.404   0.418  0.00  0.00    +0.264 A 
ATOM     10  O   UNL     1      -3.377   6.155  -0.171  0.00  0.00    -0.267 OA
ATOM     11  C   UNL     1      -2.886   3.346   0.058  0.00  0.00    +0.045 C 
ENDROOT
BRANCH   1  13
ATOM     12  C   UNL     1      -0.013   1.086   0.008  0.00  0.00    +0.009 C 
ATOM     13  C   UNL     1      -0.729   1.579   1.267  0.00  0.00    +0.039 C 
ENDBRANCH   1  13
BRANCH   8  14
ATOM     14  C   UNL     1      -2.830   8.768   0.170  0.00  0.00    +0.162 C 
BRANCH  14  15
ATOM     15  C   UNL     1      -3.824   9.126   1.246  0.00  0.00    -0.028 A 
ATOM     16  C   UNL     1      -5.052   8.493   1.290  0.00  0.00    +0.005 A 
ATOM     17  C   UNL     1      -5.962   8.819   2.279  0.00  0.00    +0.004 A 
ATOM     18  C   UNL     1      -5.646   9.783   3.218  0.00  0.00    -0.050 A 
ATOM     19  C   UNL     1      -4.419  10.419   3.170  0.00  0.00    +0.004 A 
ATOM     20  C   UNL     1      -3.508  10.091   2.184  0.00  0.00    +0.005 A 
ATOM     21  C   UNL     1      -6.639  10.141   4.294  0.00  0.00    +0.044 C 
ENDBRANCH  14  15
ENDBRANCH   8  14
BRANCH   7  22
ATOM     22  S   UNL     1      -0.374   9.661   1.567  0.00  0.00    -0.078 S 
BRANCH  22  23
ATOM     23  C   UNL     1       1.192   9.442   2.448  0.00  0.00    +0.173 C 
BRANCH  23  24
ATOM     24  C   UNL     1       1.769  10.791   2.790  0.00  0.00    +0.224 C 
ATOM     25  O   UNL     1       1.180  11.802   2.470  0.00  0.00    -0.275 OA
ATOM     26  N   UNL     1       2.940  10.875   3.452  0.00  0.00    -0.312 N 
ATOM     27  H   UNL     1       3.411  10.067   3.708  0.00  0.00    +0.149 HD
BRANCH  26  28
ATOM     28  C   UNL     1       3.501  12.187   3.784  0.00  0.00    +0.069 C 
ATOM     29  C   UNL     1       4.312  12.713   2.596  0.00  0.00    +0.003 C 
ATOM     30  C   UNL     1       4.946  14.054   2.971  0.00  0.00    -0.077 C 
ATOM     31  C   UNL     1       5.051  13.418   5.307  0.00  0.00    -0.077 C 
ATOM     32  C   UNL     1       4.420  12.057   5.002  0.00  0.00    +0.003 C 
ATOM     33  N   UNL     1       5.837  13.856   4.134  0.00  0.00    +0.380 N 
ATOM     34  H   UNL     1       6.526  13.131   3.905  0.00  0.00    -0.082 HD
BRANCH  33  35
ATOM     35  C   UNL     1       6.548  15.113   4.445  0.00  0.00    -0.082 C 
ATOM     36  C   UNL     1       7.127  15.694   3.153  0.00  0.00    -0.017 C 
ENDBRANCH  33  35
ENDBRANCH  26  28
ENDBRANCH  23  24
ENDBRANCH  22  23
ENDBRANCH   7  22
TORSDOF 8
