REMARK  Name = ZINC01292146
REMARK  11 active torsions:
REMARK  status: ('A' for Active; 'I' for Inactive)
REMARK    1  A    between atoms: C_1  and  C_2
REMARK    2  A    between atoms: C_5  and  C_8
REMARK    3  A    between atoms: C_9  and  O_21
REMARK    4  A    between atoms: C_13  and  C_20
REMARK    5  A    between atoms: C_15  and  C_19
REMARK    6  A    between atoms: O_21  and  C_22
REMARK    7  A    between atoms: C_22  and  C_23
REMARK    8  A    between atoms: N_25  and  C_26
REMARK    9  A    between atoms: C_31  and  C_32
REMARK   10  A    between atoms: C_32  and  O_34
REMARK   11  A    between atoms: O_34  and  C_35
REMARK                            x       y       z     vdW  Elec       q    Type
REMARK                         _______ _______ _______ _____ _____    ______ ____
ROOT
ATOM      1  C   UNL     1      -0.138  -0.668   1.534  0.00  0.00    +0.181 A 
ATOM      2  C   UNL     1      -0.086   0.112   0.418  0.00  0.00    +0.211 A 
ATOM      3  C   UNL     1      -0.009  -0.502  -0.859  0.00  0.00    +0.235 A 
ATOM      4  O   UNL     1       0.034   0.163  -1.881  0.00  0.00    -0.283 OA
ATOM      5  C   UNL     1       0.023  -1.976  -0.901  0.00  0.00    +0.071 A 
ATOM      6  C   UNL     1       0.103  -2.665  -2.111  0.00  0.00    -0.036 A 
ATOM      7  C   UNL     1       0.123  -4.042  -2.109  0.00  0.00    +0.007 A 
ATOM      8  C   UNL     1       0.065  -4.742  -0.912  0.00  0.00    -0.047 A 
ATOM      9  C   UNL     1      -0.014  -4.072   0.291  0.00  0.00    +0.050 A 
ATOM     10  C   UNL     1      -0.036  -2.683   0.311  0.00  0.00    +0.140 A 
ATOM     11  O   UNL     1      -0.114  -2.010   1.478  0.00  0.00    -0.451 OA
ATOM     12  C   UNL     1       0.089  -6.248  -0.926  0.00  0.00    +0.044 C 
ATOM     13  C   UNL     1       0.167  -1.908  -3.412  0.00  0.00    +0.044 C 
ENDROOT
BRANCH   1  18
ATOM     14  C   UNL     1      -0.475   1.880   6.680  0.00  0.00    +0.044 C 
ATOM     15  C   UNL     1      -0.387   1.213   5.332  0.00  0.00    -0.050 A 
ATOM     16  C   UNL     1      -1.250   1.590   4.319  0.00  0.00    +0.004 A 
ATOM     17  C   UNL     1      -1.175   0.984   3.082  0.00  0.00    +0.012 A 
ATOM     18  C   UNL     1      -0.224  -0.014   2.854  0.00  0.00    +0.021 A 
ATOM     19  C   UNL     1       0.640  -0.394   3.883  0.00  0.00    +0.012 A 
ATOM     20  C   UNL     1       0.558   0.225   5.113  0.00  0.00    +0.004 A 
ENDBRANCH   1  18
BRANCH   2  21
ATOM     21  O   UNL     1      -0.114   1.468   0.526  0.00  0.00    -0.476 OA
BRANCH  21  22
ATOM     22  C   UNL     1       1.134   2.126   0.756  0.00  0.00    +0.325 C 
BRANCH  22  23
ATOM     23  C   UNL     1       0.908   3.613   0.848  0.00  0.00    +0.255 C 
ATOM     24  O   UNL     1      -0.211   4.065   0.728  0.00  0.00    -0.272 OA
ATOM     25  N   UNL     1       1.949   4.441   1.063  0.00  0.00    -0.282 N 
ATOM     26  H   UNL     1       2.834   4.076   1.220  0.00  0.00    +0.155 HD
BRANCH  25  27
ATOM     27  C   UNL     1       1.755   5.820   1.059  0.00  0.00    +0.048 A 
ATOM     28  C   UNL     1       0.577   6.360   1.556  0.00  0.00    +0.024 A 
ATOM     29  C   UNL     1       0.389   7.727   1.556  0.00  0.00    +0.002 A 
ATOM     30  C   UNL     1       1.366   8.570   1.052  0.00  0.00    +0.001 A 
ATOM     31  C   UNL     1       2.539   8.052   0.549  0.00  0.00    +0.017 A 
ATOM     32  C   UNL     1       2.747   6.670   0.547  0.00  0.00    +0.080 A 
BRANCH  32  33
ATOM     33  C   UNL     1       4.000   6.109   0.009  0.00  0.00    +0.341 C 
ATOM     34  O   UNL     1       4.136   4.905  -0.083  0.00  0.00    -0.245 OA
BRANCH  33  35
ATOM     35  O   UNL     1       4.994   6.932  -0.379  0.00  0.00    -0.464 OA
ATOM     36  C   UNL     1       6.199   6.310  -0.898  0.00  0.00    +0.280 C 
ENDBRANCH  33  35
ENDBRANCH  32  33
ENDBRANCH  25  27
ENDBRANCH  22  23
ENDBRANCH  21  22
ENDBRANCH   2  21
TORSDOF 7
