REMARK  Name = ZINC21648064
REMARK  10 active torsions:
REMARK  status: ('A' for Active; 'I' for Inactive)
REMARK    1  A    between atoms: C_1  and  C_2
REMARK    2  A    between atoms: C_2  and  N_3
REMARK    3  A    between atoms: C_7  and  C_9
REMARK    4  A    between atoms: C_9  and  N_10
REMARK    5  A    between atoms: C_11  and  C_13
REMARK    6  A    between atoms: N_16  and  S_19
REMARK    7  A    between atoms: S_19  and  C_22
REMARK    8  A    between atoms: C_23  and  C_36
REMARK    9  A    between atoms: C_26  and  C_27
REMARK   10  A    between atoms: C_28  and  C_29
REMARK                            x       y       z     vdW  Elec       q    Type
REMARK                         _______ _______ _______ _____ _____    ______ ____
ROOT
ATOM      1  C   UNL     1       1.731   6.360   2.268  0.00  0.00    +0.077 C 
ATOM      2  C   UNL     1       0.949   6.275   3.581  0.00  0.00    +0.030 C 
ATOM      3  C   UNL     1       1.309   4.971   4.301  0.00  0.00    +0.110 C 
ATOM      4  N   UNL     1       1.076   3.846   3.385  0.00  0.00    -0.176 NA
ATOM      5  C   UNL     1       1.713   3.868   2.061  0.00  0.00    +0.110 C 
ATOM      6  C   UNL     1       1.344   5.187   1.364  0.00  0.00    +0.030 C 
ENDROOT
BRANCH   1   8
ATOM      7  N   UNL     1       1.981   7.951   0.391  0.00  0.00    -0.317 N 
ATOM      8  C   UNL     1       1.405   7.657   1.573  0.00  0.00    +0.216 C 
ATOM      9  O   UNL     1       0.625   8.436   2.078  0.00  0.00    -0.276 OA
ATOM     10  H   UNL     1       2.689   7.245  -0.067  0.00  0.00    +0.149 HD
BRANCH   7  11
ATOM     11  C   UNL     1       1.665   9.212  -0.285  0.00  0.00    +0.089 C 
BRANCH  11  16
ATOM     12  N   UNL     1       2.226  10.624  -2.241  0.00  0.00    +0.382 N 
ATOM     13  C   UNL     1       3.442  10.896  -3.052  0.00  0.00    -0.078 C 
ATOM     14  C   UNL     1       4.619  10.495  -2.138  0.00  0.00    -0.020 C 
ATOM     15  C   UNL     1       4.025   9.482  -1.139  0.00  0.00    -0.016 C 
ATOM     16  C   UNL     1       2.537   9.355  -1.533  0.00  0.00    -0.051 C 
ATOM     17  H   UNL     1       1.980  11.447  -1.553  0.00  0.00    -0.081 HD
BRANCH  12  19
ATOM     18  C   UNL     1       0.524  11.854  -3.500  0.00  0.00    -0.017 C 
ATOM     19  C   UNL     1       1.042  10.472  -3.097  0.00  0.00    -0.082 C 
ENDBRANCH  12  19
ENDBRANCH  11  16
ENDBRANCH   7  11
ENDBRANCH   1   8
BRANCH   4  20
ATOM     20  S   UNL     1       0.120   2.572   3.840  0.00  0.00    +0.066 S 
ATOM     21  O   UNL     1       0.130   2.544   5.260  0.00  0.00    -0.153 OA
ATOM     22  O   UNL     1       0.523   1.460   3.052  0.00  0.00    -0.153 OA
BRANCH  20  23
ATOM     23  C   UNL     1      -1.529   2.960   3.355  0.00  0.00    +0.174 A 
ATOM     24  C   UNL     1      -2.167   2.669   2.134  0.00  0.00    +0.107 A 
ATOM     25  N   UNL     1      -3.376   3.148   2.220  0.00  0.00    -0.081 NA
ATOM     26  O   UNL     1      -3.582   3.673   3.290  0.00  0.00    -0.353 OA
ATOM     27  C   UNL     1      -2.493   3.618   4.081  0.00  0.00    +0.187 A 
ATOM     28  C   UNL     1      -1.566   1.949   0.955  0.00  0.00    +0.071 C 
BRANCH  27  29
ATOM     29  C   UNL     1      -2.363   4.151   5.440  0.00  0.00    +0.052 C 
ATOM     30  C   UNL     1      -3.406   4.775   6.021  0.00  0.00    +0.014 C 
BRANCH  30  31
ATOM     31  C   UNL     1      -3.275   5.311   7.386  0.00  0.00    +0.010 A 
ATOM     32  C   UNL     1      -2.071   5.174   8.082  0.00  0.00    +0.011 A 
ATOM     33  C   UNL     1      -1.956   5.678   9.361  0.00  0.00    +0.001 A 
ATOM     34  C   UNL     1      -3.029   6.319   9.956  0.00  0.00    +0.003 A 
ATOM     35  C   UNL     1      -4.225   6.460   9.275  0.00  0.00    +0.039 A 
ATOM     36  C   UNL     1      -4.354   5.966   7.991  0.00  0.00    +0.131 A 
ATOM     37  F   UNL     1      -5.521   6.109   7.325  0.00  0.00    -0.205 F 
ENDBRANCH  30  31
ENDBRANCH  27  29
ENDBRANCH  20  23
ENDBRANCH   4  20
TORSDOF 8
