REMARK  Name = ZINC00078003
REMARK  4 active torsions:
REMARK  status: ('A' for Active; 'I' for Inactive)
REMARK    1  A    between atoms: C_1  and  C_2
REMARK    2  A    between atoms: C_5  and  C_8
REMARK    3  A    between atoms: C_11  and  C_21
REMARK    4  A    between atoms: C_11  and  O_25
REMARK                            x       y       z     vdW  Elec       q    Type
REMARK                         _______ _______ _______ _____ _____    ______ ____
ROOT
ATOM      1  C   UNL     1       3.924   4.149   1.444  0.00  0.00    +0.269 C 
ATOM      2  O   UNL     1       5.069   4.426   1.144  0.00  0.00    -0.268 OA
ATOM      3  N   UNL     1       3.208   3.310   0.669  0.00  0.00    -0.148 N 
ATOM      4  C   UNL     1       3.656   2.728  -0.606  0.00  0.00    +0.259 C 
ATOM      5  C   UNL     1       2.496   1.780  -0.993  0.00  0.00    +0.096 C 
ATOM      6  C   UNL     1       2.994   0.358  -0.917  0.00  0.00    +0.014 C 
ATOM      7  C   UNL     1       2.139  -0.716  -1.483  0.00  0.00    +0.001 C 
ATOM      8  C   UNL     1       0.656  -0.613  -1.306  0.00  0.00    +0.000 C 
ATOM      9  C   UNL     1       0.172  -0.073   0.003  0.00  0.00    +0.006 C 
ATOM     10  C   UNL     1       0.079   1.437   0.056  0.00  0.00    +0.053 C 
ATOM     11  C   UNL     1       1.456   2.050   0.077  0.00  0.00    +0.045 C 
ATOM     12  N   UNL     1       1.922   2.850   0.942  0.00  0.00    -0.183 NA
ENDROOT
BRANCH   1  17
ATOM     13  C   UNL     1       1.557   6.423   6.170  0.00  0.00    +0.044 C 
ATOM     14  C   UNL     1       2.177   5.828   4.932  0.00  0.00    -0.050 A 
ATOM     15  C   UNL     1       3.432   6.242   4.523  0.00  0.00    +0.004 A 
ATOM     16  C   UNL     1       4.005   5.701   3.391  0.00  0.00    +0.013 A 
ATOM     17  C   UNL     1       3.316   4.734   2.658  0.00  0.00    +0.039 A 
ATOM     18  C   UNL     1       2.047   4.324   3.073  0.00  0.00    +0.013 A 
ATOM     19  C   UNL     1       1.488   4.869   4.211  0.00  0.00    +0.004 A 
ENDBRANCH   1  17
BRANCH   4  20
ATOM     20  C   UNL     1       4.954   1.941  -0.412  0.00  0.00    +0.438 C 
ATOM     21  F   UNL     1       5.324   1.347  -1.624  0.00  0.00    -0.166 F 
ATOM     22  F   UNL     1       5.967   2.808   0.010  0.00  0.00    -0.166 F 
ATOM     23  F   UNL     1       4.758   0.947   0.553  0.00  0.00    -0.166 F 
ENDBRANCH   4  20
BRANCH   4  24
ATOM     24  O   UNL     1       3.825   3.747  -1.593  0.00  0.00    -0.363 OA
ATOM     25  H   UNL     1       4.540   4.368  -1.399  0.00  0.00    +0.212 HD
ENDBRANCH   4  24
TORSDOF 3
