REMARK  Name = ZINC09257109
REMARK  5 active torsions:
REMARK  status: ('A' for Active; 'I' for Inactive)
REMARK    1  A    between atoms: C_8  and  C_10
REMARK    2  A    between atoms: C_15  and  C_16
REMARK    3  A    between atoms: C_15  and  N_62
REMARK    4  A    between atoms: N_18  and  C_19
REMARK    5  A    between atoms: C_20  and  C_27
REMARK                            x       y       z     vdW  Elec       q    Type
REMARK                         _______ _______ _______ _____ _____    ______ ____
ROOT
ATOM      1  C   UNL     1       0.916   4.071   0.098  0.00  0.00    +0.019 C 
ENDROOT
BRANCH   1   7
ATOM      2  C   UNL     1       4.646   5.616  -1.308  0.00  0.00    +0.072 C 
ATOM      3  C   UNL     1       3.700   6.529  -0.524  0.00  0.00    -0.006 C 
ATOM      4  C   UNL     1       2.283   5.952  -0.575  0.00  0.00    -0.077 C 
ATOM      5  C   UNL     1       3.148   3.696  -0.762  0.00  0.00    -0.077 C 
ATOM      6  C   UNL     1       4.590   4.205  -0.716  0.00  0.00    -0.006 C 
ATOM      7  N   UNL     1       2.292   4.604   0.032  0.00  0.00    +0.385 N 
ATOM      8  H   UNL     1       2.671   4.670   0.984  0.00  0.00    -0.081 HD
BRANCH   2  16
ATOM      9  C   UNL     1       8.174   7.461  -4.353  0.00  0.00    +0.002 C 
ATOM     10  C   UNL     1       6.903   6.734  -4.780  0.00  0.00    +0.002 C 
ATOM     11  C   UNL     1       7.086   5.249  -4.583  0.00  0.00    +0.019 C 
ATOM     12  C   UNL     1       6.588   4.836  -3.186  0.00  0.00    +0.108 C 
ATOM     13  N   UNL     1       6.964   5.817  -2.149  0.00  0.00    -0.301 N 
ATOM     14  C   UNL     1       8.266   6.443  -2.100  0.00  0.00    +0.108 C 
ATOM     15  C   UNL     1       8.250   7.754  -2.913  0.00  0.00    +0.019 C 
ATOM     16  C   UNL     1       6.053   6.147  -1.212  0.00  0.00    +0.219 C 
ATOM     17  O   UNL     1       6.366   6.872  -0.291  0.00  0.00    -0.275 OA
ENDBRANCH   2  16
ENDBRANCH   1   7
BRANCH   1  18
ATOM     18  C   UNL     1       0.126   4.890   1.086  0.00  0.00    +0.201 C 
ATOM     19  O   UNL     1       0.673   5.762   1.726  0.00  0.00    -0.278 OA
ATOM     20  N   UNL     1      -1.190   4.653   1.257  0.00  0.00    -0.281 N 
ATOM     21  H   UNL     1      -1.627   3.953   0.748  0.00  0.00    +0.155 HD
BRANCH  20  22
ATOM     22  C   UNL     1      -1.917   5.407   2.166  0.00  0.00    +0.084 A 
ATOM     23  C   UNL     1      -3.264   5.318   2.475  0.00  0.00    +0.068 A 
ATOM     24  C   UNL     1      -3.789   6.238   3.484  0.00  0.00    -0.023 A 
ATOM     25  C   UNL     1      -2.889   7.091   4.003  0.00  0.00    -0.004 A 
ATOM     26  S   UNL     1      -1.364   6.693   3.184  0.00  0.00    -0.077 S 
ATOM     27  C   UNL     1      -3.503   8.005   5.029  0.00  0.00    +0.043 C 
ATOM     28  C   UNL     1      -4.837   7.324   5.407  0.00  0.00    +0.010 C 
ATOM     29  C   UNL     1      -5.146   6.511   4.134  0.00  0.00    +0.037 C 
BRANCH  23  30
ATOM     30  C   UNL     1      -4.131   4.336   1.817  0.00  0.00    +0.244 C 
ATOM     31  O   UNL     1      -4.271   3.228   2.301  0.00  0.00    -0.270 OA
ATOM     32  N   UNL     1      -4.772   4.659   0.677  0.00  0.00    -0.325 N 
ATOM     33  H   UNL     1      -4.660   5.542   0.291  0.00  0.00    +0.145 HD
ATOM     34  H   UNL     1      -5.346   4.009   0.242  0.00  0.00    +0.145 HD
ENDBRANCH  23  30
ENDBRANCH  20  22
ENDBRANCH   1  18
TORSDOF 5
