REMARK  Name = ZINC35815698
REMARK  15 active torsions:
REMARK  status: ('A' for Active; 'I' for Inactive)
REMARK    1  A    between atoms: C_1  and  C_2
REMARK    2  A    between atoms: C_2  and  C_3
REMARK    3  A    between atoms: C_2  and  C_4
REMARK    4  A    between atoms: C_2  and  C_5
REMARK    5  A    between atoms: C_8  and  C_11
REMARK    6  A    between atoms: C_11  and  N_12
REMARK    7  A    between atoms: N_12  and  C_13
REMARK    8  A    between atoms: N_12  and  C_28
REMARK    9  A    between atoms: C_13  and  C_14
REMARK   10  A    between atoms: C_14  and  C_15
REMARK   11  A    between atoms: C_15  and  C_16
REMARK   12  A    between atoms: C_15  and  C_22
REMARK   13  A    between atoms: C_28  and  C_29
REMARK   14  A    between atoms: C_31  and  C_34
REMARK   15  A    between atoms: N_36  and  C_37
REMARK                            x       y       z     vdW  Elec       q    Type
REMARK                         _______ _______ _______ _____ _____    ______ ____
ROOT
ATOM      1  N   UNL     1       2.187  -0.626  -5.080  0.00  0.00    +0.386 N 
ATOM      2  H   UNL     1       2.479   0.271  -4.722  0.00  0.00    -0.081 HD
ENDROOT
BRANCH   1   3
ATOM      3  C   UNL     1       1.717  -1.466  -3.969  0.00  0.00    -0.042 C 
BRANCH   3   7
ATOM      4  C   UNL     1      -1.342   0.597  -1.817  0.00  0.00    -0.042 A 
ATOM      5  C   UNL     1      -1.682  -0.317  -2.796  0.00  0.00    +0.004 A 
ATOM      6  C   UNL     1      -0.692  -0.985  -3.493  0.00  0.00    +0.002 A 
ATOM      7  C   UNL     1       0.638  -0.738  -3.210  0.00  0.00    -0.064 A 
ATOM      8  C   UNL     1       0.979   0.177  -2.232  0.00  0.00    +0.002 A 
ATOM      9  C   UNL     1      -0.011   0.848  -1.538  0.00  0.00    +0.004 A 
BRANCH   4  11
ATOM     10  C   UNL     1      -2.358   2.817  -1.386  0.00  0.00    +0.015 C 
ATOM     11  C   UNL     1      -2.421   1.325  -1.057  0.00  0.00    -0.013 C 
ATOM     12  C   UNL     1      -2.211   1.124   0.445  0.00  0.00    +0.015 C 
ATOM     13  C   UNL     1      -3.789   0.771  -1.459  0.00  0.00    +0.015 C 
ENDBRANCH   4  11
ENDBRANCH   3   7
ENDBRANCH   1   3
BRANCH   1  14
ATOM     14  C   UNL     1       1.097  -0.437  -6.046  0.00  0.00    -0.077 C 
BRANCH  14  15
ATOM     15  C   UNL     1       0.581  -1.802  -6.506  0.00  0.00    -0.006 C 
BRANCH  15  16
ATOM     16  C   UNL     1      -0.655  -1.610  -7.386  0.00  0.00    +0.047 C 
BRANCH  16  17
ATOM     17  C   UNL     1      -0.261  -0.906  -8.659  0.00  0.00    -0.040 A 
ATOM     18  C   UNL     1       0.528  -1.555  -9.591  0.00  0.00    +0.004 A 
ATOM     19  C   UNL     1       0.891  -0.909 -10.759  0.00  0.00    +0.000 A 
ATOM     20  C   UNL     1       0.463   0.384 -10.995  0.00  0.00    +0.000 A 
ATOM     21  C   UNL     1      -0.327   1.031 -10.064  0.00  0.00    +0.000 A 
ATOM     22  C   UNL     1      -0.693   0.385  -8.898  0.00  0.00    +0.004 A 
ENDBRANCH  16  17
BRANCH  16  23
ATOM     23  C   UNL     1      -1.250  -2.954  -7.719  0.00  0.00    -0.040 A 
ATOM     24  C   UNL     1      -2.619  -3.090  -7.856  0.00  0.00    +0.004 A 
ATOM     25  C   UNL     1      -3.164  -4.323  -8.161  0.00  0.00    +0.000 A 
ATOM     26  C   UNL     1      -2.340  -5.420  -8.329  0.00  0.00    +0.000 A 
ATOM     27  C   UNL     1      -0.972  -5.284  -8.193  0.00  0.00    +0.000 A 
ATOM     28  C   UNL     1      -0.426  -4.050  -7.892  0.00  0.00    +0.004 A 
ENDBRANCH  16  23
ENDBRANCH  15  16
ENDBRANCH  14  15
ENDBRANCH   1  14
BRANCH   1  29
ATOM     29  C   UNL     1       3.321  -1.282  -5.743  0.00  0.00    -0.014 C 
BRANCH  29  30
ATOM     30  C   UNL     1       3.881  -0.368  -6.802  0.00  0.00    +0.063 A 
ATOM     31  N   UNL     1       4.825   0.526  -6.678  0.00  0.00    -0.241 NA
ATOM     32  C   UNL     1       5.173   1.236  -7.755  0.00  0.00    +0.133 A 
ATOM     33  C   UNL     1       4.492   0.952  -8.909  0.00  0.00    +0.079 A 
ATOM     34  S   UNL     1       3.442  -0.265  -8.419  0.00  0.00    -0.082 S 
BRANCH  32  35
ATOM     35  C   UNL     1       6.226   2.264  -7.704  0.00  0.00    +0.263 C 
ATOM     36  O   UNL     1       6.514   2.890  -8.707  0.00  0.00    -0.269 OA
ATOM     37  N   UNL     1       6.871   2.512  -6.547  0.00  0.00    -0.307 N 
ATOM     38  H   UNL     1       6.641   2.013  -5.747  0.00  0.00    +0.149 HD
BRANCH  37  39
ATOM     39  C   UNL     1       7.918   3.534  -6.496  0.00  0.00    +0.073 C 
ATOM     40  C   UNL     1       9.202   3.194  -5.736  0.00  0.00    +0.024 C 
ATOM     41  C   UNL     1       8.203   4.188  -5.143  0.00  0.00    +0.024 C 
ENDBRANCH  37  39
ENDBRANCH  32  35
ENDBRANCH  29  30
ENDBRANCH   1  29
TORSDOF 12
