REMARK  Name = ZINC12063456
REMARK  6 active torsions:
REMARK  status: ('A' for Active; 'I' for Inactive)
REMARK    1  A    between atoms: C_1  and  C_2
REMARK    2  A    between atoms: C_5  and  O_29
REMARK    3  A    between atoms: C_6  and  C_8
REMARK    4  A    between atoms: N_16  and  C_26
REMARK    5  A    between atoms: C_17  and  C_19
REMARK    6  A    between atoms: C_26  and  C_27
REMARK                            x       y       z     vdW  Elec       q    Type
REMARK                         _______ _______ _______ _____ _____    ______ ____
ROOT
ATOM      1  C   UNL     1       0.312  -2.933   2.924  0.00  0.00    +0.102 A 
ATOM      2  C   UNL     1       0.277  -4.330   2.850  0.00  0.00    +0.035 A 
ATOM      3  C   UNL     1       0.199  -4.775   4.155  0.00  0.00    +0.126 A 
ATOM      4  N   UNL     1       0.191  -3.655   4.938  0.00  0.00    -0.272 N 
ATOM      5  H   UNL     1       0.142  -3.653   5.907  0.00  0.00    +0.189 HD
ATOM      6  N   UNL     1       0.262  -2.605   4.200  0.00  0.00    -0.173 NA
ATOM      7  C   UNL     1       0.159  -6.241   4.147  0.00  0.00    +0.266 C 
ATOM      8  O   UNL     1       0.089  -6.940   5.140  0.00  0.00    -0.268 OA
ATOM      9  N   UNL     1       0.209  -6.704   2.885  0.00  0.00    -0.281 N 
ATOM     10  C   UNL     1       0.287  -5.553   1.975  0.00  0.00    +0.142 C 
ENDROOT
BRANCH   1  16
ATOM     11  C   UNL     1      -1.259  -1.463  -1.580  0.00  0.00    +0.044 C 
ATOM     12  C   UNL     1      -0.355  -1.283  -0.388  0.00  0.00    -0.050 A 
ATOM     13  C   UNL     1       0.555  -0.241  -0.363  0.00  0.00    +0.007 A 
ATOM     14  C   UNL     1       1.388  -0.069   0.726  0.00  0.00    +0.046 A 
ATOM     15  C   UNL     1       1.315  -0.941   1.800  0.00  0.00    +0.126 A 
ATOM     16  C   UNL     1       0.397  -1.994   1.778  0.00  0.00    +0.044 A 
ATOM     17  C   UNL     1      -0.442  -2.155   0.678  0.00  0.00    +0.017 A 
BRANCH  15  18
ATOM     18  O   UNL     1       2.134  -0.773   2.871  0.00  0.00    -0.506 OA
ATOM     19  H   UNL     1       1.796  -0.152   3.532  0.00  0.00    +0.292 HD
ENDBRANCH  15  18
ENDBRANCH   1  16
BRANCH  10  20
ATOM     20  C   UNL     1       1.564  -5.609   1.176  0.00  0.00    -0.022 A 
ATOM     21  C   UNL     1       2.751  -5.955   1.794  0.00  0.00    +0.008 A 
ATOM     22  C   UNL     1       3.922  -6.007   1.062  0.00  0.00    +0.038 A 
ATOM     23  C   UNL     1       3.906  -5.713  -0.291  0.00  0.00    +0.123 A 
ATOM     24  C   UNL     1       2.716  -5.367  -0.909  0.00  0.00    +0.038 A 
ATOM     25  C   UNL     1       1.546  -5.321  -0.176  0.00  0.00    +0.008 A 
ATOM     26  F   UNL     1       5.051  -5.763  -1.007  0.00  0.00    -0.205 F 
ENDBRANCH  10  20
BRANCH   9  27
ATOM     27  C   UNL     1       0.190  -8.114   2.486  0.00  0.00    +0.135 C 
BRANCH  27  28
ATOM     28  C   UNL     1      -1.236  -8.557   2.277  0.00  0.00    -0.016 C 
ATOM     29  C   UNL     1      -1.594  -9.094   1.137  0.00  0.00    +0.005 C 
ENDBRANCH  27  28
ENDBRANCH   9  27
TORSDOF 5
