REMARK  Name = ZINC09965948
REMARK  10 active torsions:
REMARK  status: ('A' for Active; 'I' for Inactive)
REMARK    1  A    between atoms: C_1  and  C_2
REMARK    2  A    between atoms: C_5  and  N_9
REMARK    3  A    between atoms: C_6  and  C_8
REMARK    4  A    between atoms: C_18  and  S_19
REMARK    5  A    between atoms: S_19  and  C_20
REMARK    6  A    between atoms: C_20  and  C_21
REMARK    7  A    between atoms: N_23  and  C_24
REMARK    8  A    between atoms: C_24  and  C_25
REMARK    9  A    between atoms: C_24  and  C_26
REMARK   10  A    between atoms: C_24  and  C_27
REMARK                            x       y       z     vdW  Elec       q    Type
REMARK                         _______ _______ _______ _____ _____    ______ ____
ROOT
ATOM      1  N   UNL     1       0.803   1.711  -4.644  0.00  0.00    -0.255 N 
ATOM      2  C   UNL     1       0.725   1.478  -3.320  0.00  0.00    +0.268 A 
ATOM      3  O   UNL     1       1.677   1.012  -2.716  0.00  0.00    -0.267 OA
ATOM      4  C   UNL     1      -0.491   1.785  -2.633  0.00  0.00    +0.076 A 
ATOM      5  C   UNL     1      -0.791   1.612  -1.202  0.00  0.00    -0.023 A 
ATOM      6  C   UNL     1      -2.014   1.979  -0.789  0.00  0.00    -0.004 A 
ATOM      7  S   UNL     1      -2.837   2.567  -2.252  0.00  0.00    -0.073 S 
ATOM      8  C   UNL     1      -1.524   2.317  -3.417  0.00  0.00    +0.117 A 
ATOM      9  N   UNL     1      -1.385   2.525  -4.722  0.00  0.00    -0.215 NA
ATOM     10  C   UNL     1      -0.255   2.233  -5.334  0.00  0.00    +0.178 A 
ATOM     11  C   UNL     1      -2.206   1.760   0.688  0.00  0.00    +0.043 C 
ATOM     12  C   UNL     1      -0.772   1.602   1.246  0.00  0.00    +0.010 C 
ATOM     13  C   UNL     1      -0.013   1.086   0.008  0.00  0.00    +0.037 C 
ENDROOT
BRANCH   1  18
ATOM     14  C   UNL     1       5.610   0.505  -7.408  0.00  0.00    +0.044 C 
ATOM     15  C   UNL     1       4.334   0.826  -6.674  0.00  0.00    -0.050 A 
ATOM     16  C   UNL     1       3.346  -0.135  -6.556  0.00  0.00    +0.005 A 
ATOM     17  C   UNL     1       2.175   0.155  -5.884  0.00  0.00    +0.027 A 
ATOM     18  C   UNL     1       1.990   1.413  -5.326  0.00  0.00    +0.055 A 
ATOM     19  C   UNL     1       2.982   2.377  -5.450  0.00  0.00    -0.026 A 
ATOM     20  C   UNL     1       4.152   2.079  -6.119  0.00  0.00    +0.008 A 
ATOM     21  C   UNL     1       2.783   3.745  -4.851  0.00  0.00    +0.046 C 
ENDBRANCH   1  18
BRANCH  10  22
ATOM     22  S   UNL     1      -0.105   2.521  -7.066  0.00  0.00    -0.078 S 
BRANCH  22  23
ATOM     23  C   UNL     1      -1.750   3.189  -7.417  0.00  0.00    +0.173 C 
BRANCH  23  24
ATOM     24  C   UNL     1      -1.856   3.518  -8.884  0.00  0.00    +0.224 C 
ATOM     25  O   UNL     1      -0.912   3.319  -9.620  0.00  0.00    -0.275 OA
ATOM     26  N   UNL     1      -2.999   4.032  -9.378  0.00  0.00    -0.310 N 
ATOM     27  H   UNL     1      -3.855   4.212  -8.711  0.00  0.00    +0.149 HD
BRANCH  26  28
ATOM     28  C   UNL     1      -3.103   4.351 -10.804  0.00  0.00    +0.026 C 
ATOM     29  C   UNL     1      -2.882   3.082 -11.629  0.00  0.00    +0.031 C 
ATOM     30  C   UNL     1      -4.493   4.917 -11.101  0.00  0.00    +0.031 C 
ATOM     31  C   UNL     1      -2.041   5.390 -11.173  0.00  0.00    +0.031 C 
ENDBRANCH  26  28
ENDBRANCH  23  24
ENDBRANCH  22  23
ENDBRANCH  10  22
TORSDOF 5
