REMARK  Name = ZINC20709053
REMARK  5 active torsions:
REMARK  status: ('A' for Active; 'I' for Inactive)
REMARK    1  A    between atoms: C_1  and  C_2
REMARK    2  A    between atoms: C_5  and  C_28
REMARK    3  A    between atoms: C_15  and  C_18
REMARK    4  A    between atoms: C_20  and  N_25
REMARK    5  A    between atoms: C_23  and  O_24
REMARK                            x       y       z     vdW  Elec       q    Type
REMARK                         _______ _______ _______ _____ _____    ______ ____
ROOT
ATOM      1  C   UNL     1      -3.349  -0.039  -1.059  0.00  0.00    +0.044 C 
ATOM      2  C   UNL     1      -3.573   1.061  -0.053  0.00  0.00    -0.045 A 
ATOM      3  C   UNL     1      -4.855   1.509   0.194  0.00  0.00    +0.004 A 
ATOM      4  C   UNL     1      -5.069   2.518   1.116  0.00  0.00    +0.005 A 
ATOM      5  C   UNL     1      -3.999   3.072   1.786  0.00  0.00    -0.029 A 
ATOM      6  C   UNL     1      -2.703   2.622   1.539  0.00  0.00    +0.035 A 
ATOM      7  C   UNL     1      -2.489   1.615   0.614  0.00  0.00    -0.016 A 
ATOM      8  C   UNL     1      -1.122   1.086   0.295  0.00  0.00    +0.049 C 
ATOM      9  C   UNL     1      -0.679   1.543  -1.076  0.00  0.00    -0.023 C 
ATOM     10  C   UNL     1       0.594   1.849  -1.068  0.00  0.00    -0.030 C 
ATOM     11  C   UNL     1       1.185   1.630   0.310  0.00  0.00    +0.033 C 
ATOM     12  C   UNL     1      -0.052   1.666   1.251  0.00  0.00    +0.029 C 
ATOM     13  C   UNL     1      -0.386   3.131   1.532  0.00  0.00    +0.108 C 
ATOM     14  N   UNL     1      -1.659   3.213   2.249  0.00  0.00    -0.336 N 
ATOM     15  C   UNL     1      -4.232   4.171   2.791  0.00  0.00    +0.045 C 
ATOM     16  H   UNL     1      -1.705   3.702   3.233  0.00  0.00    +0.147 HD
ENDROOT
BRANCH  13  17
ATOM     17  C   UNL     1      -0.493   3.883   0.230  0.00  0.00    +0.017 A 
ATOM     18  C   UNL     1      -1.696   3.923  -0.448  0.00  0.00    +0.041 A 
ATOM     19  C   UNL     1      -1.796   4.617  -1.640  0.00  0.00    +0.127 A 
ATOM     20  C   UNL     1      -0.690   5.263  -2.161  0.00  0.00    +0.036 A 
ATOM     21  C   UNL     1       0.516   5.222  -1.490  0.00  0.00    +0.048 A 
ATOM     22  C   UNL     1       0.618   4.531  -0.291  0.00  0.00    +0.122 A 
BRANCH  19  23
ATOM     23  N   UNL     1      -3.087   4.662  -2.361  0.00  0.00    +0.056 N 
ATOM     24  O   UNL     1      -3.175   5.269  -3.414  0.00  0.00    -0.126 OA
ATOM     25  O   UNL     1      -4.062   4.094  -1.903  0.00  0.00    -0.126 OA
ENDBRANCH  19  23
BRANCH  22  26
ATOM     26  O   UNL     1       1.803   4.488   0.372  0.00  0.00    -0.506 OA
ATOM     27  H   UNL     1       2.683   5.002  -0.042  0.00  0.00    +0.292 HD
ENDBRANCH  22  26
ENDBRANCH  13  17
TORSDOF 3
