REMARK  Name = ZINC37605152
REMARK  8 active torsions:
REMARK  status: ('A' for Active; 'I' for Inactive)
REMARK    1  A    between atoms: C_1  and  C_2
REMARK    2  A    between atoms: C_5  and  C_8
REMARK    3  A    between atoms: C_12  and  O_24
REMARK    4  A    between atoms: C_19  and  C_21
REMARK    5  A    between atoms: O_24  and  C_25
REMARK    6  A    between atoms: C_25  and  C_26
REMARK    7  A    between atoms: C_29  and  C_31
REMARK    8  A    between atoms: N_33  and  C_34
REMARK                            x       y       z     vdW  Elec       q    Type
REMARK                         _______ _______ _______ _____ _____    ______ ____
ROOT
ATOM      1  C   UNL     1       1.190  -5.681   0.480  0.00  0.00    +0.137 C 
ATOM      2  C   UNL     1      -0.269  -5.935   0.764  0.00  0.00    -0.016 A 
ATOM      3  C   UNL     1      -1.199  -5.096   0.166  0.00  0.00    +0.051 A 
ATOM      4  C   UNL     1      -2.554  -5.285   0.381  0.00  0.00    +0.121 A 
ATOM      5  C   UNL     1      -2.981  -6.321   1.199  0.00  0.00    +0.046 A 
ATOM      6  C   UNL     1      -2.054  -7.149   1.795  0.00  0.00    +0.007 A 
ATOM      7  C   UNL     1      -0.693  -6.957   1.585  0.00  0.00    -0.040 A 
ATOM      8  C   UNL     1       0.259  -7.885   2.292  0.00  0.00    +0.054 C 
ATOM      9  C   UNL     1       1.629  -7.876   1.616  0.00  0.00    +0.113 C 
ATOM     10  N   UNL     1       2.017  -6.473   1.398  0.00  0.00    -0.290 N 
ATOM     11  C   UNL     1       3.088  -5.938   2.015  0.00  0.00    +0.219 C 
ATOM     12  O   UNL     1       3.344  -4.761   1.874  0.00  0.00    -0.275 OA
ENDROOT
BRANCH   1  17
ATOM     13  C   UNL     1       2.348  -0.067   1.213  0.00  0.00    +0.044 C 
ATOM     14  C   UNL     1       2.046  -1.531   1.022  0.00  0.00    -0.050 A 
ATOM     15  C   UNL     1       1.463  -2.256   2.044  0.00  0.00    +0.004 A 
ATOM     16  C   UNL     1       1.186  -3.599   1.869  0.00  0.00    +0.006 A 
ATOM     17  C   UNL     1       1.492  -4.217   0.671  0.00  0.00    -0.023 A 
ATOM     18  C   UNL     1       2.074  -3.492  -0.352  0.00  0.00    +0.006 A 
ATOM     19  C   UNL     1       2.348  -2.148  -0.178  0.00  0.00    +0.004 A 
ENDBRANCH   1  17
BRANCH  11  20
ATOM     20  C   UNL     1       3.969  -6.802   2.881  0.00  0.00    +0.075 C 
ATOM     21  C   UNL     1       3.953  -6.540   4.388  0.00  0.00    +0.013 C 
ATOM     22  C   UNL     1       5.170  -6.135   3.554  0.00  0.00    +0.013 C 
ENDBRANCH  11  20
BRANCH   4  23
ATOM     23  O   UNL     1      -3.460  -4.460  -0.206  0.00  0.00    -0.484 OA
BRANCH  23  24
ATOM     24  C   UNL     1      -4.840  -4.716   0.061  0.00  0.00    +0.303 C 
BRANCH  24  25
ATOM     25  C   UNL     1      -5.689  -3.708  -0.669  0.00  0.00    +0.143 A 
ATOM     26  C   UNL     1      -6.182  -3.852  -1.919  0.00  0.00    +0.049 A 
ATOM     27  C   UNL     1      -6.912  -2.690  -2.212  0.00  0.00    +0.055 A 
ATOM     28  C   UNL     1      -6.827  -1.885  -1.112  0.00  0.00    +0.190 A 
ATOM     29  O   UNL     1      -6.085  -2.524  -0.184  0.00  0.00    -0.452 OA
BRANCH  28  30
ATOM     30  C   UNL     1      -7.439  -0.561  -0.964  0.00  0.00    +0.284 C 
ATOM     31  O   UNL     1      -8.095  -0.089  -1.874  0.00  0.00    -0.266 OA
ATOM     32  N   UNL     1      -7.277   0.132   0.180  0.00  0.00    -0.279 N 
ATOM     33  H   UNL     1      -6.695  -0.211   0.877  0.00  0.00    +0.155 HD
BRANCH  32  34
ATOM     34  C   UNL     1      -7.946   1.346   0.363  0.00  0.00    +0.034 A 
ATOM     35  C   UNL     1      -7.348   2.369   1.088  0.00  0.00    +0.023 A 
ATOM     36  C   UNL     1      -8.011   3.567   1.266  0.00  0.00    +0.002 A 
ATOM     37  C   UNL     1      -9.271   3.748   0.725  0.00  0.00    +0.000 A 
ATOM     38  C   UNL     1      -9.870   2.732   0.003  0.00  0.00    +0.002 A 
ATOM     39  C   UNL     1      -9.209   1.534  -0.184  0.00  0.00    +0.023 A 
ENDBRANCH  32  34
ENDBRANCH  28  30
ENDBRANCH  24  25
ENDBRANCH  23  24
ENDBRANCH   4  23
TORSDOF 7
