REMARK  Name = ZINC36306858
REMARK  14 active torsions:
REMARK  status: ('A' for Active; 'I' for Inactive)
REMARK    1  A    between atoms: C_1  and  N_2
REMARK    2  A    between atoms: C_3  and  O_31
REMARK    3  A    between atoms: C_4  and  C_13
REMARK    4  A    between atoms: C_5  and  C_7
REMARK    5  A    between atoms: C_13  and  N_14
REMARK    6  A    between atoms: N_14  and  C_15
REMARK    7  A    between atoms: N_14  and  C_19
REMARK    8  A    between atoms: C_15  and  C_16
REMARK    9  A    between atoms: C_19  and  C_20
REMARK   10  A    between atoms: C_20  and  C_22
REMARK   11  A    between atoms: C_20  and  O_30
REMARK   12  A    between atoms: C_22  and  O_23
REMARK   13  A    between atoms: O_23  and  C_24
REMARK   14  A    between atoms: O_31  and  C_32
REMARK                            x       y       z     vdW  Elec       q    Type
REMARK                         _______ _______ _______ _____ _____    ______ ____
ROOT
ATOM      1  C   UNL     1      -2.470  -8.101  -0.433  0.00  0.00    +0.176 C 
ATOM      2  N   UNL     1      -1.653  -6.905  -0.209  0.00  0.00    -0.235 N 
ATOM      3  C   UNL     1      -1.234  -6.035  -1.164  0.00  0.00    +0.221 A 
ATOM      4  C   UNL     1      -0.506  -5.067  -0.551  0.00  0.00    +0.025 A 
ATOM      5  C   UNL     1      -0.479  -5.357   0.826  0.00  0.00    +0.098 A 
ATOM      6  N   UNL     1      -1.173  -6.457   1.027  0.00  0.00    -0.168 NA
ENDROOT
BRANCH   5   7
ATOM      7  C   UNL     1       0.209  -4.557   1.871  0.00  0.00    +0.002 A 
ATOM      8  C   UNL     1       1.485  -4.050   1.637  0.00  0.00    +0.010 A 
ATOM      9  C   UNL     1       2.119  -3.307   2.611  0.00  0.00    +0.001 A 
ATOM     10  C   UNL     1       1.490  -3.065   3.819  0.00  0.00    +0.000 A 
ATOM     11  C   UNL     1       0.223  -3.567   4.058  0.00  0.00    +0.001 A 
ATOM     12  C   UNL     1      -0.423  -4.306   3.087  0.00  0.00    +0.010 A 
ENDBRANCH   5   7
BRANCH   4  13
ATOM     13  C   UNL     1       0.156  -3.893  -1.225  0.00  0.00    -0.035 C 
BRANCH  13  14
ATOM     14  N   UNL     1       1.480  -4.295  -1.719  0.00  0.00    +0.384 N 
ATOM     15  H   UNL     1       2.019  -4.684  -0.959  0.00  0.00    -0.081 HD
BRANCH  14  16
ATOM     16  C   UNL     1       2.177  -3.121  -2.261  0.00  0.00    -0.075 C 
BRANCH  16  17
ATOM     17  C   UNL     1       2.442  -2.120  -1.135  0.00  0.00    -0.028 C 
ATOM     18  C   UNL     1       1.752  -0.757  -1.225  0.00  0.00    +0.002 C 
ATOM     19  C   UNL     1       3.257  -0.871  -1.478  0.00  0.00    +0.002 C 
ENDBRANCH  16  17
ENDBRANCH  14  16
BRANCH  14  20
ATOM     20  C   UNL     1       1.323  -5.303  -2.776  0.00  0.00    -0.043 C 
BRANCH  20  21
ATOM     21  C   UNL     1       2.701  -5.813  -3.203  0.00  0.00    +0.135 C 
BRANCH  21  22
ATOM     22  O   UNL     1       3.314  -6.501  -2.111  0.00  0.00    -0.390 OA
ATOM     23  H   UNL     1       2.813  -7.266  -1.797  0.00  0.00    +0.210 HD
ENDBRANCH  21  22
BRANCH  21  24
ATOM     24  C   UNL     1       2.547  -6.769  -4.387  0.00  0.00    +0.258 C 
BRANCH  24  25
ATOM     25  O   UNL     1       3.839  -7.154  -4.861  0.00  0.00    -0.489 OA
BRANCH  25  26
ATOM     26  C   UNL     1       3.880  -8.008  -5.917  0.00  0.00    +0.121 A 
ATOM     27  C   UNL     1       2.701  -8.461  -6.490  0.00  0.00    +0.045 A 
ATOM     28  C   UNL     1       2.745  -9.328  -7.564  0.00  0.00    +0.004 A 
ATOM     29  C   UNL     1       3.964  -9.745  -8.068  0.00  0.00    +0.000 A 
ATOM     30  C   UNL     1       5.141  -9.295  -7.498  0.00  0.00    +0.004 A 
ATOM     31  C   UNL     1       5.101  -8.422  -6.428  0.00  0.00    +0.045 A 
ENDBRANCH  25  26
ENDBRANCH  24  25
ENDBRANCH  21  24
ENDBRANCH  20  21
ENDBRANCH  14  20
ENDBRANCH  13  14
ENDBRANCH   4  13
BRANCH   3  32
ATOM     32  O   UNL     1      -1.497  -6.118  -2.493  0.00  0.00    -0.435 OA
BRANCH  32  33
ATOM     33  C   UNL     1      -2.623  -5.516  -2.961  0.00  0.00    +0.165 A 
ATOM     34  C   UNL     1      -3.409  -4.756  -2.108  0.00  0.00    +0.049 A 
ATOM     35  C   UNL     1      -4.553  -4.145  -2.585  0.00  0.00    +0.004 A 
ATOM     36  C   UNL     1      -4.914  -4.290  -3.912  0.00  0.00    +0.003 A 
ATOM     37  C   UNL     1      -4.133  -5.047  -4.765  0.00  0.00    +0.042 A 
ATOM     38  C   UNL     1      -2.984  -5.656  -4.295  0.00  0.00    +0.165 A 
ATOM     39  F   UNL     1      -2.218  -6.391  -5.130  0.00  0.00    -0.202 F 
ENDBRANCH  32  33
ENDBRANCH   3  32
TORSDOF 13
