REMARK  Name = ZINC15170580
REMARK  8 active torsions:
REMARK  status: ('A' for Active; 'I' for Inactive)
REMARK    1  A    between atoms: C_3  and  C_6
REMARK    2  A    between atoms: C_6  and  C_8
REMARK    3  A    between atoms: C_6  and  N_62
REMARK    4  A    between atoms: C_8  and  N_9
REMARK    5  A    between atoms: N_9  and  C_10
REMARK    6  A    between atoms: C_13  and  S_19
REMARK    7  A    between atoms: C_15  and  N_16
REMARK    8  A    between atoms: S_19  and  N_22
REMARK                            x       y       z     vdW  Elec       q    Type
REMARK                         _______ _______ _______ _____ _____    ______ ____
ROOT
ATOM      1  C   UNL     1       3.989  -1.550  -3.139  0.00  0.00    +0.058 A 
ATOM      2  C   UNL     1       2.829  -2.287  -2.937  0.00  0.00    +0.027 A 
ATOM      3  C   UNL     1       1.979  -1.962  -1.898  0.00  0.00    +0.030 A 
ATOM      4  C   UNL     1       2.278  -0.898  -1.066  0.00  0.00    +0.108 A 
ATOM      5  C   UNL     1       3.432  -0.163  -1.264  0.00  0.00    +0.063 A 
ATOM      6  C   UNL     1       4.288  -0.486  -2.299  0.00  0.00    +0.149 A 
ENDROOT
BRANCH   6   7
ATOM      7  N   UNL     1       5.524   0.300  -2.511  0.00  0.00    +0.058 N 
ATOM      8  O   UNL     1       6.537  -0.251  -2.902  0.00  0.00    -0.126 OA
ATOM      9  O   UNL     1       5.528   1.499  -2.294  0.00  0.00    -0.126 OA
ENDBRANCH   6   7
BRANCH   4  10
ATOM     10  S   UNL     1       1.188  -0.483   0.255  0.00  0.00    +0.061 S 
ATOM     11  O   UNL     1       1.968   0.204   1.224  0.00  0.00    -0.153 OA
ATOM     12  O   UNL     1       0.455  -1.661   0.563  0.00  0.00    -0.153 OA
BRANCH  10  13
ATOM     13  N   UNL     1       0.096   0.613  -0.337  0.00  0.00    -0.177 NA
ATOM     14  C   UNL     1      -1.165   0.162  -0.940  0.00  0.00    +0.109 C 
ATOM     15  C   UNL     1      -1.293   0.780  -2.336  0.00  0.00    +0.017 C 
ATOM     16  C   UNL     1      -1.155   2.300  -2.231  0.00  0.00    +0.003 C 
ATOM     17  C   UNL     1       0.225   2.652  -1.671  0.00  0.00    +0.017 C 
ATOM     18  C   UNL     1       0.370   2.055  -0.268  0.00  0.00    +0.109 C 
ENDBRANCH  10  13
ENDBRANCH   4  10
BRANCH   1  19
ATOM     19  N   UNL     1       4.853  -1.880  -4.186  0.00  0.00    -0.343 N 
ATOM     20  H   UNL     1       5.682  -1.390  -4.303  0.00  0.00    +0.146 HD
BRANCH  19  21
ATOM     21  C   UNL     1       4.508  -2.967  -5.106  0.00  0.00    +0.094 C 
BRANCH  21  22
ATOM     22  C   UNL     1       5.615  -3.120  -6.152  0.00  0.00    +0.016 C 
BRANCH  22  28
ATOM     23  C   UNL     1       4.595  -1.331  -7.424  0.00  0.00    -0.078 C 
ATOM     24  C   UNL     1       4.829   0.073  -7.985  0.00  0.00    -0.019 C 
ATOM     25  C   UNL     1       5.941   0.019  -9.036  0.00  0.00    -0.004 C 
ATOM     26  C   UNL     1       7.210  -0.552  -8.397  0.00  0.00    -0.019 C 
ATOM     27  C   UNL     1       6.907  -1.938  -7.824  0.00  0.00    -0.078 C 
ATOM     28  N   UNL     1       5.846  -1.814  -6.801  0.00  0.00    +0.387 N 
ATOM     29  H   UNL     1       6.146  -1.137  -6.090  0.00  0.00    -0.081 HD
ENDBRANCH  22  28
BRANCH  22  32
ATOM     30  C   UNL     1       5.048  -6.013  -8.364  0.00  0.00    +0.041 A 
ATOM     31  C   UNL     1       5.719  -5.390  -7.287  0.00  0.00    +0.043 A 
ATOM     32  C   UNL     1       5.204  -4.153  -7.170  0.00  0.00    +0.093 A 
ATOM     33  O   UNL     1       4.258  -3.996  -8.110  0.00  0.00    -0.469 OA
ATOM     34  C   UNL     1       4.163  -5.118  -8.841  0.00  0.00    +0.195 A 
ENDBRANCH  22  32
ENDBRANCH  21  22
ENDBRANCH  19  21
ENDBRANCH   1  19
TORSDOF 8
