REMARK  Name = ZINC39676547
REMARK  10 active torsions:
REMARK  status: ('A' for Active; 'I' for Inactive)
REMARK    1  A    between atoms: C_1  and  C_2
REMARK    2  A    between atoms: C_6  and  C_8
REMARK    3  A    between atoms: C_12  and  C_21
REMARK    4  A    between atoms: N_23  and  C_24
REMARK    5  A    between atoms: C_24  and  C_25
REMARK    6  A    between atoms: C_24  and  C_33
REMARK    7  A    between atoms: C_28  and  O_31
REMARK    8  A    between atoms: O_31  and  C_32
REMARK    9  A    between atoms: C_36  and  O_39
REMARK   10  A    between atoms: O_39  and  C_40
REMARK                            x       y       z     vdW  Elec       q    Type
REMARK                         _______ _______ _______ _____ _____    ______ ____
ROOT
ATOM      1  C   UNL     1       0.058  -2.847   2.473  0.00  0.00    +0.247 C 
ATOM      2  O   UNL     1      -0.021  -2.227   1.431  0.00  0.00    -0.270 OA
ATOM      3  N   UNL     1       0.175  -4.189   2.452  0.00  0.00    -0.296 N 
ATOM      4  C   UNL     1       0.305  -5.071   1.268  0.00  0.00    +0.121 C 
ATOM      5  C   UNL     1       1.331  -6.146   1.693  0.00  0.00    +0.100 C 
ATOM      6  C   UNL     1       1.259  -6.173   3.229  0.00  0.00    -0.004 C 
ATOM      7  C   UNL     1       0.211  -5.117   3.608  0.00  0.00    +0.115 C 
ATOM      8  C   UNL     1       2.612  -5.803   3.828  0.00  0.00    -0.010 C 
ATOM      9  C   UNL     1       2.531  -5.892   5.354  0.00  0.00    -0.082 C 
ATOM     10  N   UNL     1       2.155  -7.256   5.747  0.00  0.00    +0.379 N 
ATOM     11  C   UNL     1       0.812  -7.570   5.245  0.00  0.00    -0.082 C 
ATOM     12  C   UNL     1       0.821  -7.551   3.713  0.00  0.00    -0.010 C 
ATOM     13  H   UNL     1       2.819  -7.910   5.361  0.00  0.00    -0.086 HD
ATOM     14  H   UNL     1       2.162  -7.328   6.754  0.00  0.00    -0.086 HD
ENDROOT
BRANCH   1  20
ATOM     15  C   UNL     1       1.180   1.175   5.205  0.00  0.00    +0.044 C 
ATOM     16  C   UNL     1       0.564  -0.194   5.084  0.00  0.00    -0.050 A 
ATOM     17  C   UNL     1      -0.035  -0.782   6.184  0.00  0.00    +0.003 A 
ATOM     18  C   UNL     1      -0.604  -2.039   6.081  0.00  0.00    +0.001 A 
ATOM     19  C   UNL     1      -0.577  -2.715   4.879  0.00  0.00    +0.013 A 
ATOM     20  C   UNL     1       0.025  -2.128   3.765  0.00  0.00    +0.037 A 
ATOM     21  C   UNL     1       0.592  -0.857   3.874  0.00  0.00    +0.016 A 
ENDBRANCH   1  20
BRANCH   5  22
ATOM     22  C   UNL     1       2.715  -5.760   1.237  0.00  0.00    +0.219 C 
ATOM     23  O   UNL     1       3.043  -4.592   1.220  0.00  0.00    -0.275 OA
ATOM     24  N   UNL     1       3.586  -6.711   0.848  0.00  0.00    -0.304 N 
ATOM     25  H   UNL     1       3.323  -7.645   0.862  0.00  0.00    +0.150 HD
BRANCH  24  26
ATOM     26  C   UNL     1       4.931  -6.336   0.405  0.00  0.00    +0.134 C 
BRANCH  26  27
ATOM     27  C   UNL     1       5.871  -7.495   0.613  0.00  0.00    -0.023 A 
ATOM     28  C   UNL     1       5.450  -8.783   0.335  0.00  0.00    +0.009 A 
ATOM     29  C   UNL     1       6.310  -9.848   0.526  0.00  0.00    +0.046 A 
ATOM     30  C   UNL     1       7.596  -9.624   0.996  0.00  0.00    +0.120 A 
ATOM     31  C   UNL     1       8.015  -8.331   1.274  0.00  0.00    +0.046 A 
ATOM     32  C   UNL     1       7.154  -7.269   1.077  0.00  0.00    +0.009 A 
BRANCH  30  33
ATOM     33  O   UNL     1       8.443 -10.670   1.185  0.00  0.00    -0.495 OA
ATOM     34  C   UNL     1       9.751 -10.365   1.672  0.00  0.00    +0.277 C 
ENDBRANCH  30  33
ENDBRANCH  26  27
BRANCH  26  35
ATOM     35  C   UNL     1       4.895  -5.975  -1.058  0.00  0.00    -0.023 A 
ATOM     36  C   UNL     1       4.117  -6.711  -1.932  0.00  0.00    +0.009 A 
ATOM     37  C   UNL     1       4.083  -6.383  -3.273  0.00  0.00    +0.046 A 
ATOM     38  C   UNL     1       4.830  -5.312  -3.743  0.00  0.00    +0.120 A 
ATOM     39  C   UNL     1       5.610  -4.574  -2.864  0.00  0.00    +0.046 A 
ATOM     40  C   UNL     1       5.636  -4.904  -1.523  0.00  0.00    +0.009 A 
BRANCH  38  41
ATOM     41  O   UNL     1       4.799  -4.987  -5.062  0.00  0.00    -0.495 OA
ATOM     42  C   UNL     1       5.593  -3.873  -5.475  0.00  0.00    +0.277 C 
ENDBRANCH  38  41
ENDBRANCH  26  35
ENDBRANCH  24  26
ENDBRANCH   5  22
TORSDOF 7
