REMARK  Name = ZINC03840685
REMARK  13 active torsions:
REMARK  status: ('A' for Active; 'I' for Inactive)
REMARK    1  A    between atoms: C_1  and  C_2
REMARK    2  A    between atoms: C_7  and  C_9
REMARK    3  A    between atoms: C_9  and  S_10
REMARK    4  A    between atoms: S_10  and  C_13
REMARK    5  A    between atoms: C_13  and  C_14
REMARK    6  A    between atoms: C_13  and  C_15
REMARK    7  A    between atoms: C_13  and  C_16
REMARK    8  A    between atoms: C_18  and  C_39
REMARK    9  A    between atoms: C_21  and  O_38
REMARK   10  A    between atoms: C_23  and  C_27
REMARK   11  A    between atoms: C_27  and  C_29
REMARK   12  A    between atoms: C_27  and  C_30
REMARK   13  A    between atoms: C_37  and  N_78
REMARK                            x       y       z     vdW  Elec       q    Type
REMARK                         _______ _______ _______ _____ _____    ______ ____
ROOT
ATOM      1  C   UNL     1       2.280   1.762  -0.085  0.00  0.00    +0.014 C 
ATOM      2  C   UNL     1       0.917   1.073  -0.168  0.00  0.00    +0.042 C 
ATOM      3  C   UNL     1       0.439   1.067  -1.611  0.00  0.00    +0.055 A 
ATOM      4  C   UNL     1      -0.865   1.324  -1.899  0.00  0.00    +0.014 A 
ATOM      5  S   UNL     1      -0.903   1.192  -3.667  0.00  0.00    -0.075 S 
ATOM      6  C   UNL     1       0.780   0.816  -3.886  0.00  0.00    +0.100 A 
ATOM      7  N   UNL     1       1.226   0.819  -2.653  0.00  0.00    -0.247 NA
ATOM      8  C   UNL     1      -1.962   1.636  -0.945  0.00  0.00    +0.051 C 
ATOM      9  C   UNL     1      -1.503   1.280   0.483  0.00  0.00    -0.022 C 
ATOM     10  C   UNL     1      -0.093   1.832   0.704  0.00  0.00    +0.033 C 
ATOM     11  C   UNL     1       0.326   1.639   2.165  0.00  0.00    +0.123 C 
ATOM     12  C   UNL     1      -0.666   2.331   3.098  0.00  0.00    +0.029 C 
ATOM     13  C   UNL     1      -2.050   1.706   2.896  0.00  0.00    +0.007 C 
ATOM     14  C   UNL     1      -2.488   1.940   1.452  0.00  0.00    +0.008 C 
ATOM     15  C   UNL     1      -1.507  -0.237   0.685  0.00  0.00    +0.012 C 
ENDROOT
BRANCH  12  16
ATOM     16  C   UNL     1      -0.223   2.139   4.550  0.00  0.00    +0.078 C 
ATOM     17  C   UNL     1      -0.316   0.658   4.920  0.00  0.00    +0.017 C 
BRANCH  16  18
ATOM     18  C   UNL     1      -1.119   2.941   5.458  0.00  0.00    +0.219 C 
ATOM     19  O   UNL     1      -2.114   2.433   5.932  0.00  0.00    -0.275 OA
ATOM     20  N   UNL     1      -0.816   4.223   5.745  0.00  0.00    -0.305 N 
ATOM     21  C   UNL     1       0.323   4.892   5.097  0.00  0.00    +0.089 C 
ATOM     22  C   UNL     1      -0.171   6.224   4.511  0.00  0.00    -0.060 C 
ATOM     23  C   UNL     1      -2.025   6.315   6.072  0.00  0.00    -0.060 C 
ATOM     24  C   UNL     1      -1.611   4.988   6.717  0.00  0.00    +0.089 C 
ATOM     25  C   UNL     1      -1.161   8.355   5.096  0.00  0.00    -0.096 C 
ATOM     26  N   UNL     1      -0.810   7.008   5.590  0.00  0.00    +0.380 N 
ATOM     27  H   UNL     1      -0.148   7.101   6.370  0.00  0.00    -0.082 HD
ENDBRANCH  16  18
ENDBRANCH  12  16
BRANCH  11  28
ATOM     28  O   UNL     1       1.627   2.196   2.362  0.00  0.00    -0.391 OA
ATOM     29  H   UNL     1       2.001   2.023   3.236  0.00  0.00    +0.210 HD
ENDBRANCH  11  28
BRANCH   6  30
ATOM     30  C   UNL     1       1.534   0.555  -5.165  0.00  0.00    +0.229 C 
BRANCH  30  31
ATOM     31  S   UNL     1       1.480  -1.217  -5.547  0.00  0.00    -0.020 S 
ATOM     32  O   UNL     1       2.193  -1.917  -4.536  0.00  0.00    -0.173 OA
ATOM     33  O   UNL     1       0.133  -1.578  -5.819  0.00  0.00    -0.173 OA
BRANCH  31  34
ATOM     34  C   UNL     1       2.425  -1.323  -7.092  0.00  0.00    +0.080 C 
ATOM     35  C   UNL     1       3.848  -0.812  -6.856  0.00  0.00    +0.035 C 
ATOM     36  C   UNL     1       2.477  -2.779  -7.560  0.00  0.00    +0.035 C 
ATOM     37  C   UNL     1       1.747  -0.467  -8.164  0.00  0.00    +0.035 C 
ENDBRANCH  31  34
ENDBRANCH  30  31
ENDBRANCH   6  30
TORSDOF 6
