REMARK  Name = ZINC19859475
REMARK  5 active torsions:
REMARK  status: ('A' for Active; 'I' for Inactive)
REMARK    1  A    between atoms: C_1  and  C_2
REMARK    2  A    between atoms: C_4  and  N_9
REMARK    3  A    between atoms: C_13  and  C_14
REMARK    4  A    between atoms: N_16  and  C_23
REMARK    5  A    between atoms: C_23  and  C_24
REMARK                            x       y       z     vdW  Elec       q    Type
REMARK                         _______ _______ _______ _____ _____    ______ ____
ROOT
ATOM      1  N   UNL     1      -1.421  -3.111  -2.639  0.00  0.00    -0.188 N 
ATOM      2  C   UNL     1      -0.957  -4.378  -2.586  0.00  0.00    +0.264 C 
ATOM      3  O   UNL     1      -1.117  -5.065  -1.594  0.00  0.00    -0.269 OA
ATOM      4  C   UNL     1      -0.252  -4.902  -3.767  0.00  0.00    +0.102 C 
ATOM      5  C   UNL     1       0.256  -6.194  -3.795  0.00  0.00    +0.028 C 
ATOM      6  C   UNL     1      -0.110  -3.991  -4.921  0.00  0.00    +0.276 C 
ATOM      7  N   UNL     1      -0.626  -2.755  -4.825  0.00  0.00    -0.123 NA
ATOM      8  C   UNL     1      -1.249  -2.344  -3.749  0.00  0.00    +0.340 C 
ATOM      9  O   UNL     1      -1.741  -1.090  -3.739  0.00  0.00    -0.250 OA
ATOM     10  O   UNL     1       0.462  -4.353  -5.935  0.00  0.00    -0.268 OA
ENDROOT
BRANCH   5  11
ATOM     11  C   UNL     1       0.270  -6.972  -2.620  0.00  0.00    +0.001 A 
ATOM     12  C   UNL     1       0.654  -6.561  -1.355  0.00  0.00    +0.095 A 
ATOM     13  N   UNL     1       0.530  -7.586  -0.492  0.00  0.00    -0.335 N 
ATOM     14  C   UNL     1       0.062  -8.714  -1.135  0.00  0.00    +0.050 A 
ATOM     15  C   UNL     1      -0.129  -8.388  -2.487  0.00  0.00    +0.007 A 
ATOM     16  C   UNL     1      -0.606  -9.345  -3.377  0.00  0.00    +0.010 A 
ATOM     17  C   UNL     1      -0.893 -10.615  -2.924  0.00  0.00    +0.001 A 
ATOM     18  C   UNL     1      -0.709 -10.939  -1.589  0.00  0.00    +0.002 A 
ATOM     19  C   UNL     1      -0.229 -10.002  -0.699  0.00  0.00    +0.026 A 
BRANCH  13  20
ATOM     20  C   UNL     1       0.848  -7.514   0.936  0.00  0.00    +0.246 C 
BRANCH  20  21
ATOM     21  C   UNL     1       2.256  -8.002   1.163  0.00  0.00    +0.375 C 
ATOM     22  O   UNL     1       2.931  -8.375   0.218  0.00  0.00    -0.244 OA
ATOM     23  O   UNL     1       2.720  -8.024   2.290  0.00  0.00    -0.244 OA
ENDBRANCH  20  21
ENDBRANCH  13  20
ENDBRANCH   5  11
BRANCH   1  27
ATOM     24  C   UNL     1      -1.618   0.150   1.036  0.00  0.00    +0.045 C 
ATOM     25  C   UNL     1      -2.216  -0.999   0.265  0.00  0.00    -0.035 A 
ATOM     26  C   UNL     1      -1.547  -1.521  -0.824  0.00  0.00    +0.028 A 
ATOM     27  C   UNL     1      -2.098  -2.579  -1.534  0.00  0.00    +0.046 A 
ATOM     28  C   UNL     1      -3.322  -3.109  -1.146  0.00  0.00    +0.025 A 
ATOM     29  C   UNL     1      -3.987  -2.583  -0.056  0.00  0.00    +0.017 A 
ATOM     30  C   UNL     1      -3.432  -1.532   0.653  0.00  0.00    +0.021 A 
ATOM     31 BR   UNL     1      -4.342  -0.819   2.149  0.00  0.00    -0.050 Br
ENDBRANCH   1  27
TORSDOF 4
