REMARK  Name = ZINC19851410
REMARK  9 active torsions:
REMARK  status: ('A' for Active; 'I' for Inactive)
REMARK    1  A    between atoms: C_4  and  C_7
REMARK    2  A    between atoms: C_7  and  N_8
REMARK    3  A    between atoms: C_11  and  N_28
REMARK    4  A    between atoms: C_13  and  C_16
REMARK    5  A    between atoms: C_16  and  C_17
REMARK    6  A    between atoms: C_17  and  C_18
REMARK    7  A    between atoms: N_20  and  C_21
REMARK    8  A    between atoms: C_21  and  C_22
REMARK    9  A    between atoms: N_31  and  C_34
REMARK                            x       y       z     vdW  Elec       q    Type
REMARK                         _______ _______ _______ _____ _____    ______ ____
ROOT
ATOM      1  N   UNL     1       1.419   1.928  -0.099  0.00  0.00    +0.383 N 
ATOM      2  C   UNL     1       2.141   1.390  -1.259  0.00  0.00    -0.077 C 
ATOM      3  C   UNL     1       2.106  -0.139  -1.220  0.00  0.00    +0.000 C 
ATOM      4  C   UNL     1       0.650  -0.612  -1.237  0.00  0.00    +0.056 C 
ATOM      5  C   UNL     1      -0.092   0.001  -0.046  0.00  0.00    -0.010 C 
ATOM      6  C   UNL     1       0.007   1.526  -0.119  0.00  0.00    -0.073 C 
ATOM      7  H   UNL     1       1.876   1.502   0.807  0.00  0.00    -0.081 HD
ENDROOT
BRANCH   4   8
ATOM      8  N   UNL     1       0.608  -2.077  -1.140  0.00  0.00    -0.296 NA
ATOM      9  C   UNL     1       1.404  -2.698  -2.208  0.00  0.00    +0.103 C 
ATOM     10  C   UNL     1       1.400  -4.218  -2.025  0.00  0.00    +0.120 C 
ATOM     11  N   UNL     1       0.015  -4.708  -2.052  0.00  0.00    -0.325 N 
ATOM     12  C   UNL     1      -0.781  -4.087  -0.984  0.00  0.00    +0.120 C 
ATOM     13  C   UNL     1      -0.777  -2.568  -1.167  0.00  0.00    +0.103 C 
BRANCH  11  14
ATOM     14  C   UNL     1      -0.024  -6.103  -1.960  0.00  0.00    +0.065 A 
ATOM     15  C   UNL     1       0.440  -6.739  -0.816  0.00  0.00    +0.026 A 
ATOM     16  C   UNL     1       0.400  -8.117  -0.728  0.00  0.00    +0.002 A 
ATOM     17  C   UNL     1      -0.102  -8.864  -1.777  0.00  0.00    +0.003 A 
ATOM     18  C   UNL     1      -0.566  -8.236  -2.918  0.00  0.00    +0.040 A 
ATOM     19  C   UNL     1      -0.533  -6.857  -3.012  0.00  0.00    +0.144 A 
ATOM     20  F   UNL     1      -0.992  -6.243  -4.124  0.00  0.00    -0.204 F 
ENDBRANCH  11  14
ENDBRANCH   4   8
BRANCH   1  21
ATOM     21  C   UNL     1       1.549   3.389  -0.029  0.00  0.00    -0.043 C 
BRANCH  21  25
ATOM     22  C   UNL     1       5.626   4.421   0.724  0.00  0.00    +0.000 A 
ATOM     23  C   UNL     1       5.174   4.292  -0.576  0.00  0.00    +0.000 A 
ATOM     24  C   UNL     1       3.855   3.958  -0.820  0.00  0.00    +0.002 A 
ATOM     25  C   UNL     1       2.988   3.753   0.237  0.00  0.00    -0.064 A 
ATOM     26  C   UNL     1       3.438   3.888   1.537  0.00  0.00    +0.002 A 
ATOM     27  C   UNL     1       4.758   4.217   1.781  0.00  0.00    +0.000 A 
ENDBRANCH  21  25
ENDBRANCH   1  21
BRANCH   5  28
ATOM     28  C   UNL     1       0.542  -0.490   1.258  0.00  0.00    +0.012 C 
BRANCH  28  29
ATOM     29  C   UNL     1      -0.284   0.008   2.446  0.00  0.00    +0.096 C 
BRANCH  29  30
ATOM     30  C   UNL     1       0.340  -0.475   3.729  0.00  0.00    +0.213 C 
ATOM     31  O   UNL     1       1.346  -1.151   3.697  0.00  0.00    -0.276 OA
ATOM     32  N   UNL     1      -0.221  -0.157   4.913  0.00  0.00    -0.311 N 
ATOM     33  H   UNL     1      -1.133   0.457   4.942  0.00  0.00    +0.149 HD
BRANCH  32  34
ATOM     34  C   UNL     1       0.386  -0.626   6.161  0.00  0.00    +0.139 C 
BRANCH  34  35
ATOM     35  C   UNL     1      -0.428  -0.136   7.331  0.00  0.00    -0.027 A 
ATOM     36  C   UNL     1      -0.143   1.079   7.934  0.00  0.00    +0.025 A 
ATOM     37  C   UNL     1      -0.914   1.499   9.001  0.00  0.00    +0.111 A 
ATOM     38  N   UNL     1      -1.903   0.753   9.453  0.00  0.00    -0.263 NA
ATOM     39  C   UNL     1      -2.199  -0.411   8.907  0.00  0.00    +0.111 A 
ATOM     40  C   UNL     1      -1.475  -0.892   7.833  0.00  0.00    +0.025 A 
ENDBRANCH  34  35
ENDBRANCH  32  34
ENDBRANCH  29  30
ENDBRANCH  28  29
ENDBRANCH   5  28
TORSDOF 9
