REMARK  Name = ZINC03431318
REMARK  10 active torsions:
REMARK  status: ('A' for Active; 'I' for Inactive)
REMARK    1  A    between atoms: C_1  and  C_2
REMARK    2  A    between atoms: C_2  and  O_3
REMARK    3  A    between atoms: O_3  and  C_4
REMARK    4  A    between atoms: C_7  and  S_10
REMARK    5  A    between atoms: S_10  and  N_13
REMARK    6  A    between atoms: N_13  and  C_14
REMARK    7  A    between atoms: C_19  and  C_20
REMARK    8  A    between atoms: C_20  and  O_22
REMARK    9  A    between atoms: O_22  and  C_23
REMARK   10  A    between atoms: C_23  and  C_24
REMARK                            x       y       z     vdW  Elec       q    Type
REMARK                         _______ _______ _______ _____ _____    ______ ____
ROOT
ATOM      1  C   UNL     1      -1.291   2.165   8.357  0.00  0.00    +0.062 A 
ATOM      2  C   UNL     1      -0.663   1.828   9.550  0.00  0.00    +0.025 A 
ATOM      3  C   UNL     1       0.565   1.199   9.532  0.00  0.00    +0.002 A 
ATOM      4  C   UNL     1       1.182   0.899   8.328  0.00  0.00    +0.001 A 
ATOM      5  C   UNL     1       0.574   1.220   7.135  0.00  0.00    +0.017 A 
ATOM      6  C   UNL     1      -0.668   1.863   7.136  0.00  0.00    +0.081 A 
ENDROOT
BRANCH   1   7
ATOM      7  N   UNL     1      -2.526   2.798   8.373  0.00  0.00    -0.215 N 
ATOM      8  H   UNL     1      -3.185   2.593   7.690  0.00  0.00    +0.174 HD
BRANCH   7   9
ATOM      9  S   UNL     1      -2.877   3.901   9.557  0.00  0.00    +0.072 S 
ATOM     10  O   UNL     1      -4.141   4.461   9.229  0.00  0.00    -0.150 OA
ATOM     11  O   UNL     1      -2.628   3.257  10.799  0.00  0.00    -0.150 OA
BRANCH   9  15
ATOM     12  C   UNL     1       0.152   7.249   9.205  0.00  0.00    +0.121 A 
ATOM     13  C   UNL     1      -1.042   7.316   8.502  0.00  0.00    +0.047 A 
ATOM     14  C   UNL     1      -1.964   6.293   8.611  0.00  0.00    +0.032 A 
ATOM     15  C   UNL     1      -1.698   5.204   9.420  0.00  0.00    +0.109 A 
ATOM     16  C   UNL     1      -0.511   5.138  10.126  0.00  0.00    +0.032 A 
ATOM     17  C   UNL     1       0.417   6.155  10.016  0.00  0.00    +0.047 A 
BRANCH  12  18
ATOM     18  O   UNL     1       1.062   8.254   9.099  0.00  0.00    -0.492 OA
BRANCH  18  20
ATOM     19  C   UNL     1       3.162   9.336   9.607  0.00  0.00    +0.048 C 
ATOM     20  C   UNL     1       2.269   8.118   9.852  0.00  0.00    +0.225 C 
ENDBRANCH  18  20
ENDBRANCH  12  18
ENDBRANCH   9  15
ENDBRANCH   7   9
ENDBRANCH   1   7
BRANCH   6  21
ATOM     21  C   UNL     1      -1.321   2.215   5.863  0.00  0.00    +0.341 C 
ATOM     22  O   UNL     1      -2.403   2.769   5.869  0.00  0.00    -0.245 OA
BRANCH  21  23
ATOM     23  O   UNL     1      -0.720   1.922   4.693  0.00  0.00    -0.452 OA
BRANCH  23  24
ATOM     24  C   UNL     1      -1.422   2.298   3.479  0.00  0.00    +0.328 C 
BRANCH  24  25
ATOM     25  C   UNL     1      -0.603   1.895   2.280  0.00  0.00    +0.258 C 
ATOM     26  O   UNL     1       0.467   1.345   2.434  0.00  0.00    -0.272 OA
ATOM     27  N   UNL     1      -1.060   2.146   1.037  0.00  0.00    -0.268 N 
ATOM     28  C   UNL     1      -0.356   1.802  -0.201  0.00  0.00    +0.118 C 
ATOM     29  C   UNL     1      -1.272   2.288  -1.336  0.00  0.00    +0.056 C 
ATOM     30  C   UNL     1      -2.467   2.889  -0.630  0.00  0.00    -0.024 A 
ATOM     31  C   UNL     1      -2.276   2.772   0.737  0.00  0.00    +0.040 A 
ATOM     32  C   UNL     1      -3.256   3.260   1.603  0.00  0.00    +0.024 A 
ATOM     33  C   UNL     1      -4.396   3.850   1.100  0.00  0.00    +0.002 A 
ATOM     34  C   UNL     1      -4.577   3.963  -0.266  0.00  0.00    +0.000 A 
ATOM     35  C   UNL     1      -3.611   3.482  -1.130  0.00  0.00    +0.005 A 
ENDBRANCH  24  25
ENDBRANCH  23  24
ENDBRANCH  21  23
ENDBRANCH   6  21
TORSDOF 9
