REMARK  Name = ZINC12570110
REMARK  11 active torsions:
REMARK  status: ('A' for Active; 'I' for Inactive)
REMARK    1  A    between atoms: C_1  and  C_2
REMARK    2  A    between atoms: C_2  and  N_3
REMARK    3  A    between atoms: N_3  and  C_4
REMARK    4  A    between atoms: N_3  and  S_6
REMARK    5  A    between atoms: C_4  and  C_5
REMARK    6  A    between atoms: S_6  and  C_9
REMARK    7  A    between atoms: C_12  and  N_18
REMARK    8  A    between atoms: C_13  and  N_15
REMARK    9  A    between atoms: N_18  and  N_19
REMARK   10  A    between atoms: C_25  and  C_26
REMARK   11  A    between atoms: C_25  and  N_61
REMARK                            x       y       z     vdW  Elec       q    Type
REMARK                         _______ _______ _______ _____ _____    ______ ____
ROOT
ATOM      1  C   UNL     1       1.103   8.722  -4.942  0.00  0.00    +0.108 A 
ATOM      2  C   UNL     1       1.942   8.256  -3.945  0.00  0.00    +0.030 A 
ATOM      3  C   UNL     1       1.497   7.296  -3.058  0.00  0.00    +0.029 A 
ATOM      4  C   UNL     1       0.204   6.797  -3.169  0.00  0.00    +0.079 A 
ATOM      5  C   UNL     1      -0.633   7.263  -4.175  0.00  0.00    +0.150 A 
ATOM      6  C   UNL     1      -0.183   8.227  -5.055  0.00  0.00    +0.063 A 
ENDROOT
BRANCH   1   7
ATOM      7  S   UNL     1       1.676   9.947  -6.071  0.00  0.00    +0.061 S 
ATOM      8  O   UNL     1       0.522  10.610  -6.570  0.00  0.00    -0.153 OA
ATOM      9  O   UNL     1       2.729  10.641  -5.417  0.00  0.00    -0.153 OA
BRANCH   7  10
ATOM     10  N   UNL     1       2.357   9.152  -7.354  0.00  0.00    -0.177 NA
BRANCH  10  12
ATOM     11  C   UNL     1       1.653   9.865  -9.585  0.00  0.00    +0.022 C 
ATOM     12  C   UNL     1       1.534   8.784  -8.508  0.00  0.00    +0.106 C 
ENDBRANCH  10  12
BRANCH  10  13
ATOM     13  C   UNL     1       3.783   8.816  -7.334  0.00  0.00    +0.106 C 
ATOM     14  C   UNL     1       3.962   7.385  -6.821  0.00  0.00    +0.022 C 
ENDBRANCH  10  13
ENDBRANCH   7  10
ENDBRANCH   1   7
BRANCH   5  15
ATOM     15  N   UNL     1      -2.009   6.729  -4.300  0.00  0.00    +0.058 N 
ATOM     16  O   UNL     1      -2.216   5.539  -4.149  0.00  0.00    -0.126 OA
ATOM     17  O   UNL     1      -2.933   7.481  -4.553  0.00  0.00    -0.126 OA
ENDBRANCH   5  15
BRANCH   4  18
ATOM     18  N   UNL     1      -0.249   5.826  -2.274  0.00  0.00    -0.236 N 
ATOM     19  H   UNL     1      -1.174   5.533  -2.303  0.00  0.00    +0.174 HD
BRANCH  18  20
ATOM     20  N   UNL     1       0.631   5.273  -1.335  0.00  0.00    -0.192 NA
ATOM     21  C   UNL     1       0.193   4.461  -0.448  0.00  0.00    +0.033 C 
ATOM     22  C   UNL     1       1.096   3.939   0.650  0.00  0.00    +0.034 C 
ATOM     23  C   UNL     1       0.941   2.415   0.715  0.00  0.00    -0.072 C 
ATOM     24  C   UNL     1      -1.253   2.463  -0.325  0.00  0.00    -0.072 C 
ATOM     25  C   UNL     1      -1.246   3.990  -0.461  0.00  0.00    +0.034 C 
ATOM     26  N   UNL     1      -0.492   2.090   0.888  0.00  0.00    +0.383 N 
ATOM     27  H   UNL     1      -0.859   2.622   1.687  0.00  0.00    -0.081 HD
BRANCH  26  28
ATOM     28  C   UNL     1      -0.652   0.647   1.159  0.00  0.00    -0.043 C 
BRANCH  28  29
ATOM     29  C   UNL     1      -2.085   0.383   1.544  0.00  0.00    -0.064 A 
ATOM     30  C   UNL     1      -2.471   0.463   2.869  0.00  0.00    +0.002 A 
ATOM     31  C   UNL     1      -3.787   0.225   3.221  0.00  0.00    +0.000 A 
ATOM     32  C   UNL     1      -4.714  -0.102   2.249  0.00  0.00    +0.000 A 
ATOM     33  C   UNL     1      -4.327  -0.187   0.925  0.00  0.00    +0.000 A 
ATOM     34  C   UNL     1      -3.012   0.056   0.572  0.00  0.00    +0.002 A 
ENDBRANCH  28  29
ENDBRANCH  26  28
ENDBRANCH  18  20
ENDBRANCH   4  18
TORSDOF 9
