REMARK  Name = ZINC39354575
REMARK  4 active torsions:
REMARK  status: ('A' for Active; 'I' for Inactive)
REMARK    1  A    between atoms: C_4  and  C_7
REMARK    2  A    between atoms: C_11  and  S_13
REMARK    3  A    between atoms: S_13  and  C_14
REMARK    4  A    between atoms: C_16  and  C_27
REMARK                            x       y       z     vdW  Elec       q    Type
REMARK                         _______ _______ _______ _____ _____    ______ ____
ROOT
ATOM      1  C   UNL     1       6.667   2.504   0.176  0.00  0.00    +0.171 C 
ATOM      2  C   UNL     1       8.118   2.945   0.159  0.00  0.00    -0.008 C 
ATOM      3  C   UNL     1       8.601   3.490  -1.035  0.00  0.00    +0.003 A 
ATOM      4  C   UNL     1       9.939   3.925  -1.139  0.00  0.00    +0.030 A 
ATOM      5  C   UNL     1      10.384   4.452  -2.313  0.00  0.00    +0.042 A 
ATOM      6  C   UNL     1       9.543   4.569  -3.419  0.00  0.00    +0.022 A 
ATOM      7  C   UNL     1       8.243   4.166  -3.378  0.00  0.00    +0.025 A 
ATOM      8  C   UNL     1       7.715   3.613  -2.198  0.00  0.00    +0.041 A 
ATOM      9  N   UNL     1       6.438   3.218  -2.160  0.00  0.00    -0.284 N 
ATOM     10  C   UNL     1       5.870   2.690  -1.095  0.00  0.00    +0.235 C 
ATOM     11  O   UNL     1       4.702   2.352  -1.134  0.00  0.00    -0.274 OA
ATOM     12 CL   UNL     1      12.031   4.987  -2.436  0.00  0.00    -0.084 Cl
ATOM     13  H   UNL     1       5.901   3.324  -2.961  0.00  0.00    +0.155 HD
ENDROOT
BRANCH   2  14
ATOM     14  C   UNL     1       8.946   2.812   1.300  0.00  0.00    -0.001 A 
ATOM     15  C   UNL     1       9.998   1.880   1.306  0.00  0.00    +0.010 A 
ATOM     16  C   UNL     1      10.797   1.759   2.420  0.00  0.00    +0.001 A 
ATOM     17  C   UNL     1      10.568   2.552   3.534  0.00  0.00    +0.001 A 
ATOM     18  C   UNL     1       9.536   3.474   3.540  0.00  0.00    +0.020 A 
ATOM     19  C   UNL     1       8.726   3.616   2.432  0.00  0.00    +0.048 A 
ATOM     20 CL   UNL     1       7.436   4.778   2.439  0.00  0.00    -0.083 Cl
ENDBRANCH   2  14
BRANCH   1  21
ATOM     21  S   UNL     1       6.626   0.742   0.607  0.00  0.00    -0.070 S 
BRANCH  21  26
ATOM     22  C   UNL     1       2.727   1.158   0.881  0.00  0.00    +0.079 A 
ATOM     23  C   UNL     1       2.280  -0.107   1.231  0.00  0.00    +0.098 A 
ATOM     24  C   UNL     1       3.221  -1.135   1.389  0.00  0.00    +0.253 A 
ATOM     25  N   UNL     1       4.527  -0.857   1.195  0.00  0.00    -0.302 N 
ATOM     26  C   UNL     1       4.915   0.403   0.853  0.00  0.00    +0.170 A 
ATOM     27  N   UNL     1       4.037   1.372   0.697  0.00  0.00    -0.223 NA
ATOM     28  O   UNL     1       2.865  -2.261   1.696  0.00  0.00    -0.268 OA
ATOM     29  H   UNL     1       5.192  -1.556   1.301  0.00  0.00    +0.171 HD
BRANCH  22  33
ATOM     30  C   UNL     1      -0.046   4.340   0.377  0.00  0.00    +0.000 A 
ATOM     31  C   UNL     1       1.305   4.568   0.192  0.00  0.00    +0.001 A 
ATOM     32  C   UNL     1       2.211   3.539   0.354  0.00  0.00    +0.010 A 
ATOM     33  C   UNL     1       1.760   2.267   0.706  0.00  0.00    +0.001 A 
ATOM     34  C   UNL     1       0.397   2.043   0.891  0.00  0.00    +0.010 A 
ATOM     35  C   UNL     1      -0.499   3.080   0.725  0.00  0.00    +0.001 A 
ENDBRANCH  22  33
ENDBRANCH  21  26
ENDBRANCH   1  21
TORSDOF 4
