REMARK  Name = ZINC36633813
REMARK  6 active torsions:
REMARK  status: ('A' for Active; 'I' for Inactive)
REMARK    1  A    between atoms: C_1  and  O_2
REMARK    2  A    between atoms: O_2  and  C_3
REMARK    3  A    between atoms: C_5  and  C_10
REMARK    4  A    between atoms: C_8  and  O_9
REMARK    5  A    between atoms: C_18  and  C_29
REMARK    6  A    between atoms: C_21  and  C_23
REMARK                            x       y       z     vdW  Elec       q    Type
REMARK                         _______ _______ _______ _____ _____    ______ ____
ROOT
ATOM      1  C   UNL     1      -4.851   0.218   0.038  0.00  0.00    +0.026 C 
ATOM      2  C   UNL     1      -6.051  -0.418  -0.056  0.00  0.00    +0.057 C 
ATOM      3  C   UNL     1      -7.409   0.142  -0.172  0.00  0.00    +0.149 C 
ATOM      4  N   UNL     1      -8.392  -0.707  -0.247  0.00  0.00    -0.153 NA
ATOM      5  C   UNL     1      -8.195  -2.031  -0.223  0.00  0.00    +0.302 C 
ATOM      6  O   UNL     1      -9.023  -2.924  -0.286  0.00  0.00    -0.260 OA
ATOM      7  S   UNL     1      -6.419  -2.168  -0.084  0.00  0.00    -0.026 S 
ATOM      8  N   UNL     1      -7.627   1.498  -0.198  0.00  0.00    -0.200 N 
ATOM      9  C   UNL     1      -8.941   2.152  -0.304  0.00  0.00    +0.135 C 
ATOM     10  C   UNL     1      -8.600   3.655  -0.287  0.00  0.00    +0.087 C 
ATOM     11  C   UNL     1      -7.093   3.686  -0.170  0.00  0.00    +0.069 C 
ATOM     12  N   UNL     1      -6.640   2.479  -0.122  0.00  0.00    -0.182 NA
ENDROOT
BRANCH   9  13
ATOM     13  C   UNL     1      -9.619   1.773  -1.596  0.00  0.00    -0.025 A 
ATOM     14  C   UNL     1      -8.875   1.646  -2.754  0.00  0.00    +0.007 A 
ATOM     15  C   UNL     1      -9.496   1.299  -3.939  0.00  0.00    +0.020 A 
ATOM     16  C   UNL     1     -10.862   1.079  -3.966  0.00  0.00    +0.041 A 
ATOM     17  C   UNL     1     -11.605   1.207  -2.806  0.00  0.00    +0.020 A 
ATOM     18  C   UNL     1     -10.982   1.548  -1.621  0.00  0.00    +0.007 A 
ATOM     19 CL   UNL     1     -11.643   0.643  -5.454  0.00  0.00    -0.084 Cl
ENDBRANCH   9  13
BRANCH   1  22
ATOM     20  C   UNL     1      -1.209  -0.662   0.171  0.00  0.00    +0.162 A 
ATOM     21  C   UNL     1      -2.378   0.069   0.238  0.00  0.00    +0.057 A 
ATOM     22  C   UNL     1      -3.605  -0.552  -0.033  0.00  0.00    -0.020 A 
ATOM     23  C   UNL     1      -3.637  -1.912  -0.371  0.00  0.00    +0.012 A 
ATOM     24  C   UNL     1      -2.465  -2.632  -0.436  0.00  0.00    +0.050 A 
ATOM     25  C   UNL     1      -1.249  -2.013  -0.173  0.00  0.00    +0.158 A 
BRANCH  20  27
ATOM     26  C   UNL     1      -0.050   1.323   0.778  0.00  0.00    +0.277 C 
ATOM     27  O   UNL     1      -0.017  -0.063   0.433  0.00  0.00    -0.491 OA
ENDBRANCH  20  27
BRANCH  25  28
ATOM     28  O   UNL     1      -0.097  -2.728  -0.244  0.00  0.00    -0.503 OA
ATOM     29  H   UNL     1       0.157  -3.150   0.588  0.00  0.00    +0.292 HD
ENDBRANCH  25  28
ENDBRANCH   1  22
BRANCH  11  30
ATOM     30  C   UNL     1      -6.268   4.906  -0.114  0.00  0.00    -0.002 A 
ATOM     31  C   UNL     1      -6.873   6.165  -0.164  0.00  0.00    +0.010 A 
ATOM     32  C   UNL     1      -6.095   7.303  -0.111  0.00  0.00    +0.001 A 
ATOM     33  C   UNL     1      -4.719   7.200  -0.009  0.00  0.00    +0.000 A 
ATOM     34  C   UNL     1      -4.113   5.957   0.040  0.00  0.00    +0.001 A 
ATOM     35  C   UNL     1      -4.878   4.810  -0.005  0.00  0.00    +0.010 A 
ENDBRANCH  11  30
TORSDOF 5
