REMARK  Name = ZINC60238841
REMARK  11 active torsions:
REMARK  status: ('A' for Active; 'I' for Inactive)
REMARK    1  A    between atoms: C_1  and  C_2
REMARK    2  A    between atoms: C_5  and  C_8
REMARK    3  A    between atoms: C_8  and  C_10
REMARK    4  A    between atoms: C_8  and  N_27
REMARK    5  A    between atoms: C_10  and  N_11
REMARK    6  A    between atoms: C_12  and  C_14
REMARK    7  A    between atoms: C_16  and  C_26
REMARK    8  A    between atoms: C_17  and  C_25
REMARK    9  A    between atoms: C_18  and  S_20
REMARK   10  A    between atoms: S_20  and  N_23
REMARK   11  A    between atoms: N_23  and  C_24
REMARK                            x       y       z     vdW  Elec       q    Type
REMARK                         _______ _______ _______ _____ _____    ______ ____
ROOT
ATOM      1  N   UNL     1       1.144  -5.785  -0.278  0.00  0.00    -0.313 N 
ATOM      2  C   UNL     1       2.179  -6.548   0.123  0.00  0.00    +0.244 C 
ATOM      3  O   UNL     1       3.264  -6.042   0.328  0.00  0.00    -0.270 OA
ATOM      4  H   UNL     1       0.277  -6.189  -0.442  0.00  0.00    +0.149 HD
ENDROOT
BRANCH   2   5
ATOM      5  C   UNL     1       1.994  -8.003   0.315  0.00  0.00    +0.039 A 
ATOM      6  C   UNL     1       0.750  -8.589   0.075  0.00  0.00    +0.016 A 
ATOM      7  C   UNL     1       0.584  -9.946   0.255  0.00  0.00    -0.045 A 
ATOM      8  C   UNL     1       1.648 -10.727   0.673  0.00  0.00    -0.021 A 
ATOM      9  C   UNL     1       2.883 -10.152   0.912  0.00  0.00    +0.109 A 
ATOM     10  C   UNL     1       3.064  -8.797   0.731  0.00  0.00    +0.041 A 
ATOM     11  C   UNL     1       1.459 -12.209   0.868  0.00  0.00    +0.046 C 
ATOM     12  C   UNL     1      -0.758 -10.581  -0.004  0.00  0.00    +0.044 C 
BRANCH   9  13
ATOM     13  S   UNL     1       4.231 -11.155   1.445  0.00  0.00    +0.058 S 
ATOM     14  O   UNL     1       5.363 -10.301   1.532  0.00  0.00    -0.153 OA
ATOM     15  O   UNL     1       3.760 -11.913   2.551  0.00  0.00    -0.153 OA
BRANCH  13  16
ATOM     16  N   UNL     1       4.546 -12.236   0.230  0.00  0.00    -0.193 NA
ATOM     17  C   UNL     1       5.030 -11.759  -1.068  0.00  0.00    +0.127 C 
ATOM     18  H   UNL     1       4.411 -13.185   0.379  0.00  0.00    +0.148 HD
ENDBRANCH  13  16
ENDBRANCH   9  13
ENDBRANCH   2   5
BRANCH   1  19
ATOM     19  C   UNL     1       1.327  -4.344  -0.468  0.00  0.00    +0.094 C 
BRANCH  19  20
ATOM     20  C   UNL     1      -0.019  -3.698  -0.804  0.00  0.00    -0.020 C 
BRANCH  20  25
ATOM     21  C   UNL     1      -1.875  -5.659  -5.914  0.00  0.00    +0.044 C 
ATOM     22  C   UNL     1      -1.391  -5.147  -4.581  0.00  0.00    -0.050 A 
ATOM     23  C   UNL     1      -1.898  -5.680  -3.411  0.00  0.00    +0.003 A 
ATOM     24  C   UNL     1      -1.454  -5.211  -2.189  0.00  0.00    +0.002 A 
ATOM     25  C   UNL     1      -0.502  -4.210  -2.137  0.00  0.00    -0.059 A 
ATOM     26  C   UNL     1       0.006  -3.678  -3.307  0.00  0.00    +0.002 A 
ATOM     27  C   UNL     1      -0.435  -4.150  -4.529  0.00  0.00    +0.003 A 
ENDBRANCH  20  25
BRANCH  20  28
ATOM     28  N   UNL     1       0.140  -2.239  -0.869  0.00  0.00    +0.385 N 
ATOM     29  C   UNL     1      -1.184  -1.587  -1.031  0.00  0.00    -0.078 C 
ATOM     30  C   UNL     1      -0.933  -0.144  -0.524  0.00  0.00    -0.020 C 
ATOM     31  C   UNL     1       0.034  -0.359   0.663  0.00  0.00    -0.020 C 
ATOM     32  C   UNL     1       0.687  -1.729   0.407  0.00  0.00    -0.078 C 
ATOM     33  H   UNL     1       0.749  -1.989  -1.633  0.00  0.00    -0.081 HD
ENDBRANCH  20  28
ENDBRANCH  19  20
ENDBRANCH   1  19
TORSDOF 7
