REMARK  Name = ZINC12170529
REMARK  9 active torsions:
REMARK  status: ('A' for Active; 'I' for Inactive)
REMARK    1  A    between atoms: N_13  and  C_16
REMARK    2  A    between atoms: C_16  and  C_17
REMARK    3  A    between atoms: C_22  and  C_23
REMARK    4  A    between atoms: C_22  and  N_63
REMARK    5  A    between atoms: C_23  and  C_25
REMARK    6  A    between atoms: C_23  and  O_36
REMARK    7  A    between atoms: C_25  and  O_26
REMARK    8  A    between atoms: O_26  and  C_27
REMARK    9  A    between atoms: C_30  and  N_33
REMARK                            x       y       z     vdW  Elec       q    Type
REMARK                         _______ _______ _______ _____ _____    ______ ____
ROOT
ATOM      1  C   UNL     1      -0.406   1.401   0.491  0.00  0.00    +0.003 C 
ATOM      2  C   UNL     1      -1.259   2.039   1.592  0.00  0.00    -0.014 C 
ATOM      3  C   UNL     1      -1.183   3.563   1.471  0.00  0.00    -0.078 C 
ATOM      4  C   UNL     1      -0.836   3.414  -0.923  0.00  0.00    -0.078 C 
ATOM      5  C   UNL     1      -0.903   1.886  -0.874  0.00  0.00    -0.014 C 
ATOM      6  N   UNL     1      -1.697   3.966   0.144  0.00  0.00    +0.381 N 
ATOM      7  H   UNL     1      -2.648   3.597   0.030  0.00  0.00    -0.082 HD
ENDROOT
BRANCH   1   8
ATOM      8  C   UNL     1      -0.528  -0.122   0.568  0.00  0.00    +0.120 C 
BRANCH   8  21
ATOM      9  C   UNL     1      -0.408  -1.731   6.520  0.00  0.00    +0.001 A 
ATOM     10  C   UNL     1       0.912  -2.068   6.603  0.00  0.00    +0.008 A 
ATOM     11  C   UNL     1       1.737  -1.965   5.470  0.00  0.00    -0.016 A 
ATOM     12  C   UNL     1       3.102  -2.300   5.504  0.00  0.00    +0.008 A 
ATOM     13  C   UNL     1       3.863  -2.183   4.376  0.00  0.00    +0.001 A 
ATOM     14  C   UNL     1       3.323  -1.736   3.176  0.00  0.00    +0.014 A 
ATOM     15  C   UNL     1       1.980  -1.395   3.101  0.00  0.00    +0.046 A 
ATOM     16  C   UNL     1       1.177  -1.509   4.258  0.00  0.00    +0.006 A 
ATOM     17  C   UNL     1      -0.192  -1.165   4.191  0.00  0.00    +0.046 A 
ATOM     18  C   UNL     1      -0.972  -1.282   5.332  0.00  0.00    +0.014 A 
ATOM     19  C   UNL     1      -0.739  -0.694   2.910  0.00  0.00    +0.254 C 
ATOM     20  O   UNL     1      -1.915  -0.393   2.829  0.00  0.00    -0.270 OA
ATOM     21  N   UNL     1       0.054  -0.595   1.826  0.00  0.00    -0.234 N 
ATOM     22  C   UNL     1       1.360  -0.920   1.855  0.00  0.00    +0.254 C 
ATOM     23  O   UNL     1       2.031  -0.817   0.846  0.00  0.00    -0.270 OA
ENDBRANCH   8  21
ENDBRANCH   1   8
BRANCH   6  24
ATOM     24  C   UNL     1      -1.740   5.440   0.047  0.00  0.00    -0.044 C 
BRANCH  24  25
ATOM     25  C   UNL     1      -2.684   5.827  -1.093  0.00  0.00    +0.135 C 
BRANCH  25  26
ATOM     26  O   UNL     1      -4.001   5.358  -0.800  0.00  0.00    -0.390 OA
ATOM     27  H   UNL     1      -4.375   5.718   0.015  0.00  0.00    +0.210 HD
ENDBRANCH  25  26
BRANCH  25  28
ATOM     28  C   UNL     1      -2.706   7.350  -1.242  0.00  0.00    +0.258 C 
BRANCH  28  29
ATOM     29  O   UNL     1      -3.495   7.706  -2.378  0.00  0.00    -0.489 OA
BRANCH  29  30
ATOM     30  C   UNL     1      -3.618   9.031  -2.653  0.00  0.00    +0.121 A 
ATOM     31  C   UNL     1      -2.997   9.970  -1.842  0.00  0.00    +0.048 A 
ATOM     32  C   UNL     1      -3.120  11.316  -2.127  0.00  0.00    +0.036 A 
ATOM     33  C   UNL     1      -3.870  11.729  -3.212  0.00  0.00    +0.126 A 
ATOM     34  C   UNL     1      -4.494  10.796  -4.019  0.00  0.00    +0.036 A 
ATOM     35  C   UNL     1      -4.370   9.448  -3.742  0.00  0.00    +0.048 A 
BRANCH  33  36
ATOM     36  N   UNL     1      -4.004  13.172  -3.512  0.00  0.00    +0.056 N 
ATOM     37  O   UNL     1      -4.664  13.537  -4.468  0.00  0.00    -0.126 OA
ATOM     38  O   UNL     1      -3.454  13.995  -2.802  0.00  0.00    -0.126 OA
ENDBRANCH  33  36
ENDBRANCH  29  30
ENDBRANCH  28  29
ENDBRANCH  25  28
ENDBRANCH  24  25
ENDBRANCH   6  24
TORSDOF 9
