REMARK  Name = ZINC20830898
REMARK  12 active torsions:
REMARK  status: ('A' for Active; 'I' for Inactive)
REMARK    1  A    between atoms: C_1  and  C_2
REMARK    2  A    between atoms: C_2  and  C_33
REMARK    3  A    between atoms: C_4  and  N_10
REMARK    4  A    between atoms: C_6  and  C_8
REMARK    5  A    between atoms: C_6  and  C_9
REMARK    6  A    between atoms: C_11  and  C_13
REMARK    7  A    between atoms: C_13  and  S_14
REMARK    8  A    between atoms: S_14  and  C_15
REMARK    9  A    between atoms: C_18  and  C_23
REMARK   10  A    between atoms: N_19  and  C_20
REMARK   11  A    between atoms: C_20  and  C_21
REMARK   12  A    between atoms: C_23  and  N_24
REMARK                            x       y       z     vdW  Elec       q    Type
REMARK                         _______ _______ _______ _____ _____    ______ ____
ROOT
ATOM      1  S   UNL     1       0.769  -3.920  -4.810  0.00  0.00    -0.077 S 
ENDROOT
BRANCH   1   2
ATOM      2  C   UNL     1       1.538  -3.160  -3.418  0.00  0.00    +0.192 A 
ATOM      3  N   UNL     1       2.776  -2.728  -3.350  0.00  0.00    -0.122 NA
ATOM      4  N   UNL     1       3.000  -2.230  -2.186  0.00  0.00    -0.132 NA
ATOM      5  C   UNL     1       1.929  -2.315  -1.449  0.00  0.00    +0.156 A 
ATOM      6  N   UNL     1       0.961  -2.915  -2.205  0.00  0.00    -0.301 N 
BRANCH   6   7
ATOM      7  C   UNL     1      -0.412  -3.228  -1.800  0.00  0.00    +0.152 C 
BRANCH   7   8
ATOM      8  C   UNL     1      -1.309  -2.061  -2.124  0.00  0.00    -0.013 C 
ATOM      9  C   UNL     1      -2.375  -2.241  -2.864  0.00  0.00    +0.005 C 
ENDBRANCH   7   8
ENDBRANCH   6   7
BRANCH   5  10
ATOM     10  C   UNL     1       1.786  -1.845  -0.025  0.00  0.00    +0.222 C 
BRANCH  10  11
ATOM     11  N   UNL     1       1.331  -0.453  -0.013  0.00  0.00    -0.237 N 
ATOM     12  C   UNL     1       2.122   0.671  -0.015  0.00  0.00    +0.089 A 
ATOM     13  C   UNL     1       3.496   0.886  -0.026  0.00  0.00    +0.029 A 
ATOM     14  C   UNL     1       3.985   2.163  -0.024  0.00  0.00    +0.002 A 
ATOM     15  C   UNL     1       3.120   3.250  -0.011  0.00  0.00    +0.002 A 
ATOM     16  C   UNL     1       1.768   3.066   0.001  0.00  0.00    +0.032 A 
ATOM     17  C   UNL     1       1.242   1.767  -0.000  0.00  0.00    +0.113 A 
ATOM     18  N   UNL     1      -0.015   1.282   0.009  0.00  0.00    -0.129 NA
ATOM     19  N   UNL     1       0.002  -0.004   0.002  0.00  0.00    -0.064 NA
ENDBRANCH  10  11
ENDBRANCH   5  10
ENDBRANCH   1   2
BRANCH   1  20
ATOM     20  C   UNL     1       2.147  -3.893  -5.984  0.00  0.00    +0.173 C 
BRANCH  20  22
ATOM     21  N   UNL     1       2.575  -4.601  -8.315  0.00  0.00    -0.312 N 
ATOM     22  C   UNL     1       1.709  -4.512  -7.286  0.00  0.00    +0.224 C 
ATOM     23  O   UNL     1       0.577  -4.929  -7.409  0.00  0.00    -0.275 OA
ATOM     24  H   UNL     1       3.602  -4.222  -8.204  0.00  0.00    +0.149 HD
BRANCH  21  28
ATOM     25  C   UNL     1       1.289  -4.657 -12.528  0.00  0.00    -0.010 C 
ATOM     26  C   UNL     1       2.606  -5.279 -12.050  0.00  0.00    -0.072 C 
ATOM     27  C   UNL     1       3.012  -4.652 -10.718  0.00  0.00    +0.009 C 
ATOM     28  C   UNL     1       2.149  -5.203  -9.584  0.00  0.00    +0.070 C 
ATOM     29  C   UNL     1       2.346  -6.717  -9.514  0.00  0.00    +0.009 C 
ATOM     30  C   UNL     1       1.930  -7.368 -10.831  0.00  0.00    -0.072 C 
ATOM     31  N   UNL     1       2.511  -6.723 -11.989  0.00  0.00    +0.386 N 
ATOM     32  C   UNL     1       0.400  -7.401 -10.925  0.00  0.00    -0.010 C 
ATOM     33  C   UNL     1       2.417  -8.834 -10.800  0.00  0.00    -0.010 C 
ATOM     34  C   UNL     1       3.689  -4.910 -13.088  0.00  0.00    -0.010 C 
ATOM     35  H   UNL     1       1.898  -7.085 -12.828  0.00  0.00    -0.084 HD
ATOM     36  H   UNL     1       3.518  -7.160 -12.056  0.00  0.00    -0.084 HD
ENDBRANCH  21  28
ENDBRANCH  20  22
ENDBRANCH   1  20
TORSDOF 8
