REMARK  Name = ZINC22825035
REMARK  11 active torsions:
REMARK  status: ('A' for Active; 'I' for Inactive)
REMARK    1  A    between atoms: C_1  and  C_2
REMARK    2  A    between atoms: C_2  and  C_33
REMARK    3  A    between atoms: C_4  and  N_10
REMARK    4  A    between atoms: C_6  and  C_8
REMARK    5  A    between atoms: C_6  and  C_9
REMARK    6  A    between atoms: N_10  and  C_11
REMARK    7  A    between atoms: N_10  and  C_19
REMARK    8  A    between atoms: C_11  and  C_12
REMARK    9  A    between atoms: C_19  and  N_21
REMARK   10  A    between atoms: N_21  and  C_22
REMARK   11  A    between atoms: C_24  and  C_29
REMARK                            x       y       z     vdW  Elec       q    Type
REMARK                         _______ _______ _______ _____ _____    ______ ____
ROOT
ATOM      1  N   UNL     1       1.961   2.722   6.142  0.00  0.00    -0.305 N 
ENDROOT
BRANCH   1   5
ATOM      2  C   UNL     1       1.371   4.579  10.093  0.00  0.00    -0.010 C 
ATOM      3  C   UNL     1       0.207   4.163   9.184  0.00  0.00    -0.072 C 
ATOM      4  C   UNL     1       0.696   4.068   7.741  0.00  0.00    +0.009 C 
ATOM      5  C   UNL     1       1.524   2.799   7.541  0.00  0.00    +0.073 C 
ATOM      6  C   UNL     1       0.644   1.590   7.861  0.00  0.00    +0.009 C 
ATOM      7  C   UNL     1       0.157   1.655   9.306  0.00  0.00    -0.072 C 
ATOM      8  N   UNL     1      -0.411   2.941   9.654  0.00  0.00    +0.386 N 
ATOM      9  C   UNL     1       1.306   1.283  10.251  0.00  0.00    -0.010 C 
ATOM     10  C   UNL     1      -0.940   0.581   9.476  0.00  0.00    -0.010 C 
ATOM     11  C   UNL     1      -0.846   5.291   9.245  0.00  0.00    -0.010 C 
ATOM     12  H   UNL     1      -0.423   2.935  10.754  0.00  0.00    -0.084 HD
ATOM     13  H   UNL     1      -1.443   2.883   9.276  0.00  0.00    -0.084 HD
ENDBRANCH   1   5
BRANCH   1  14
ATOM     14  C   UNL     1       1.049   2.615   5.155  0.00  0.00    +0.138 C 
ATOM     15  S   UNL     1      -0.621   2.714   5.519  0.00  0.00    -0.018 S 
BRANCH  14  16
ATOM     16  N   UNL     1       1.451   2.429   3.882  0.00  0.00    -0.296 N 
ATOM     17  H   UNL     1       1.470   3.278   3.183  0.00  0.00    +0.154 HD
BRANCH  16  18
ATOM     18  C   UNL     1       1.844   1.157   3.451  0.00  0.00    +0.052 A 
ATOM     19  C   UNL     1       1.913   0.106   4.356  0.00  0.00    +0.037 A 
ATOM     20  C   UNL     1       2.301  -1.148   3.927  0.00  0.00    +0.057 A 
ATOM     21  C   UNL     1       2.626  -1.357   2.599  0.00  0.00    +0.014 A 
ATOM     22  C   UNL     1       2.554  -0.314   1.694  0.00  0.00    +0.022 A 
ATOM     23  C   UNL     1       2.167   0.944   2.116  0.00  0.00    +0.062 A 
ATOM     24 CL   UNL     1       2.082   2.254   0.981  0.00  0.00    -0.082 Cl
BRANCH  20  25
ATOM     25  C   UNL     1       2.376  -2.289   4.908  0.00  0.00    +0.417 C 
ATOM     26  F   UNL     1       1.141  -2.944   4.957  0.00  0.00    -0.166 F 
ATOM     27  F   UNL     1       2.691  -1.792   6.178  0.00  0.00    -0.166 F 
ATOM     28  F   UNL     1       3.366  -3.190   4.501  0.00  0.00    -0.166 F 
ENDBRANCH  20  25
ENDBRANCH  16  18
ENDBRANCH  14  16
ENDBRANCH   1  14
BRANCH   1  29
ATOM     29  C   UNL     1       3.389   2.762   5.817  0.00  0.00    +0.145 C 
BRANCH  29  30
ATOM     30  C   UNL     1       3.854   4.194   5.770  0.00  0.00    +0.005 A 
ATOM     31  C   UNL     1       4.504   4.746   6.858  0.00  0.00    +0.008 A 
ATOM     32  C   UNL     1       4.930   6.060   6.816  0.00  0.00    +0.000 A 
ATOM     33  C   UNL     1       4.708   6.824   5.684  0.00  0.00    +0.003 A 
ATOM     34  C   UNL     1       4.059   6.274   4.595  0.00  0.00    +0.038 A 
ATOM     35  C   UNL     1       3.635   4.957   4.636  0.00  0.00    +0.128 A 
ATOM     36  F   UNL     1       3.005   4.416   3.570  0.00  0.00    -0.205 F 
ENDBRANCH  29  30
ENDBRANCH   1  29
TORSDOF 7
