REMARK  Name = ZINC35245447
REMARK  11 active torsions:
REMARK  status: ('A' for Active; 'I' for Inactive)
REMARK    1  A    between atoms: C_1  and  C_2
REMARK    2  A    between atoms: C_2  and  O_3
REMARK    3  A    between atoms: O_3  and  C_4
REMARK    4  A    between atoms: C_4  and  C_6
REMARK    5  A    between atoms: C_6  and  N_7
REMARK    6  A    between atoms: N_10  and  C_11
REMARK    7  A    between atoms: N_10  and  C_36
REMARK    8  A    between atoms: C_11  and  C_12
REMARK    9  A    between atoms: C_26  and  C_28
REMARK   10  A    between atoms: C_31  and  O_34
REMARK   11  A    between atoms: O_34  and  C_35
REMARK                            x       y       z     vdW  Elec       q    Type
REMARK                         _______ _______ _______ _____ _____    ______ ____
ROOT
ATOM      1  C   UNL     1       1.940  -6.998   5.296  0.00  0.00    +0.238 C 
ATOM      2  O   UNL     1       2.633  -6.851   4.311  0.00  0.00    -0.273 OA
ATOM      3  N   UNL     1       2.439  -7.614   6.386  0.00  0.00    -0.255 N 
ATOM      4  C   UNL     1       3.792  -7.978   6.426  0.00  0.00    +0.061 A 
ATOM      5  C   UNL     1       4.739  -7.248   5.723  0.00  0.00    +0.025 A 
ATOM      6  C   UNL     1       6.068  -7.624   5.762  0.00  0.00    +0.002 A 
ATOM      7  C   UNL     1       6.463  -8.726   6.499  0.00  0.00    +0.002 A 
ATOM      8  C   UNL     1       5.527  -9.460   7.207  0.00  0.00    +0.028 A 
ATOM      9  C   UNL     1       4.198  -9.086   7.177  0.00  0.00    +0.068 A 
ATOM     10  N   UNL     1       3.217  -9.781   7.899  0.00  0.00    -0.316 N 
ATOM     11  C   UNL     1       3.274 -10.989   8.509  0.00  0.00    +0.092 A 
ATOM     12  C   UNL     1       2.068 -11.234   9.071  0.00  0.00    +0.020 A 
ATOM     13  C   UNL     1       1.236 -10.126   8.795  0.00  0.00    +0.025 A 
ATOM     14  C   UNL     1       1.957  -9.253   8.083  0.00  0.00    +0.049 A 
ATOM     15  C   UNL     1       1.565  -7.898   7.535  0.00  0.00    +0.159 C 
ENDROOT
BRANCH  15  16
ATOM     16  C   UNL     1       1.751  -6.841   8.593  0.00  0.00    -0.021 A 
ATOM     17  C   UNL     1       3.016  -6.353   8.866  0.00  0.00    +0.009 A 
ATOM     18  C   UNL     1       3.190  -5.385   9.835  0.00  0.00    +0.046 A 
ATOM     19  C   UNL     1       2.094  -4.901  10.535  0.00  0.00    +0.120 A 
ATOM     20  C   UNL     1       0.826  -5.392  10.260  0.00  0.00    +0.046 A 
ATOM     21  C   UNL     1       0.657  -6.357   9.286  0.00  0.00    +0.009 A 
BRANCH  19  22
ATOM     22  O   UNL     1       2.263  -3.949  11.490  0.00  0.00    -0.495 OA
ATOM     23  C   UNL     1       1.090  -3.497  12.170  0.00  0.00    +0.277 C 
ENDBRANCH  19  22
ENDBRANCH  15  16
BRANCH   1  24
ATOM     24  C   UNL     1       0.521  -6.492   5.301  0.00  0.00    +0.205 C 
BRANCH  24  28
ATOM     25  N   UNL     1      -0.365  -5.767   1.808  0.00  0.00    -0.289 N 
ATOM     26  C   UNL     1      -0.218  -6.416   2.980  0.00  0.00    +0.303 C 
ATOM     27  O   UNL     1      -0.515  -7.593   3.065  0.00  0.00    -0.253 OA
ATOM     28  N   UNL     1       0.258  -5.762   4.058  0.00  0.00    -0.274 N 
ATOM     29  H   UNL     1      -0.198  -4.813   1.758  0.00  0.00    +0.151 HD
BRANCH  28  30
ATOM     30  C   UNL     1       0.513  -4.321   3.987  0.00  0.00    +0.078 C 
ATOM     31  C   UNL     1       1.338  -3.693   5.111  0.00  0.00    +0.024 C 
ATOM     32  C   UNL     1      -0.167  -3.431   5.029  0.00  0.00    +0.024 C 
ENDBRANCH  28  30
BRANCH  25  33
ATOM     33  C   UNL     1      -0.776  -6.503   0.610  0.00  0.00    +0.226 C 
BRANCH  33  34
ATOM     34  C   UNL     1      -0.866  -5.553  -0.556  0.00  0.00    +0.324 C 
ATOM     35  O   UNL     1      -0.613  -4.382  -0.403  0.00  0.00    -0.249 OA
BRANCH  34  36
ATOM     36  O   UNL     1      -1.228  -6.008  -1.766  0.00  0.00    -0.464 OA
BRANCH  36  38
ATOM     37  C   UNL     1      -1.718  -5.752  -4.119  0.00  0.00    +0.048 C 
ATOM     38  C   UNL     1      -1.292  -5.052  -2.826  0.00  0.00    +0.229 C 
ENDBRANCH  36  38
ENDBRANCH  34  36
ENDBRANCH  33  34
ENDBRANCH  25  33
ENDBRANCH  24  28
ENDBRANCH   1  24
TORSDOF 9
