REMARK  Name = ZINC60039896
REMARK  9 active torsions:
REMARK  status: ('A' for Active; 'I' for Inactive)
REMARK    1  A    between atoms: C_1  and  C_2
REMARK    2  A    between atoms: C_2  and  C_3
REMARK    3  A    between atoms: C_3  and  N_4
REMARK    4  A    between atoms: N_4  and  C_5
REMARK    5  A    between atoms: N_4  and  C_22
REMARK    6  A    between atoms: C_5  and  C_6
REMARK    7  A    between atoms: N_11  and  C_12
REMARK    8  A    between atoms: C_15  and  C_18
REMARK    9  A    between atoms: C_19  and  C_21
REMARK                            x       y       z     vdW  Elec       q    Type
REMARK                         _______ _______ _______ _____ _____    ______ ____
ROOT
ATOM      1  C   UNL     1       1.449  -2.139  -2.477  0.00  0.00    -0.021 C 
ENDROOT
BRANCH   1   2
ATOM      2  C   UNL     1       2.867  -1.744  -2.151  0.00  0.00    +0.034 A 
ATOM      3  C   UNL     1       3.662  -2.529  -1.383  0.00  0.00    +0.070 A 
ATOM      4  S   UNL     1       5.162  -1.561  -1.359  0.00  0.00    -0.060 S 
ATOM      5  C   UNL     1       4.628  -0.281  -2.313  0.00  0.00    +0.172 A 
ATOM      6  N   UNL     1       3.391  -0.622  -2.605  0.00  0.00    -0.231 NA
ATOM      7  N   UNL     1       5.327   0.857  -2.702  0.00  0.00    -0.219 N 
ATOM      8  C   UNL     1       4.763   1.735  -3.555  0.00  0.00    +0.223 C 
ATOM      9  O   UNL     1       3.616   1.579  -3.916  0.00  0.00    -0.275 OA
ATOM     10  C   UNL     1       5.559   2.910  -4.062  0.00  0.00    +0.110 C 
BRANCH   7  11
ATOM     11  C   UNL     1       6.615   1.092  -2.206  0.00  0.00    +0.043 A 
ATOM     12  C   UNL     1       6.850   2.167  -1.359  0.00  0.00    +0.024 A 
ATOM     13  C   UNL     1       8.122   2.395  -0.871  0.00  0.00    +0.005 A 
ATOM     14  C   UNL     1       9.161   1.554  -1.225  0.00  0.00    -0.050 A 
ATOM     15  C   UNL     1       8.931   0.483  -2.069  0.00  0.00    +0.005 A 
ATOM     16  C   UNL     1       7.660   0.246  -2.555  0.00  0.00    +0.024 A 
ATOM     17  C   UNL     1      10.547   1.806  -0.692  0.00  0.00    +0.044 C 
ENDBRANCH   7  11
ENDBRANCH   1   2
BRANCH   1  18
ATOM     18  N   UNL     1       0.532  -1.504  -1.521  0.00  0.00    +0.385 N 
ATOM     19  H   UNL     1       0.810  -1.741  -0.580  0.00  0.00    -0.081 HD
BRANCH  18  20
ATOM     20  C   UNL     1      -0.836  -1.982  -1.763  0.00  0.00    -0.063 C 
ATOM     21  C   UNL     1      -0.905  -3.494  -1.518  0.00  0.00    -0.010 C 
ATOM     22  C   UNL     1      -2.372  -3.919  -1.542  0.00  0.00    +0.034 C 
ATOM     23  C   UNL     1      -3.051  -3.408  -2.785  0.00  0.00    -0.044 A 
ATOM     24  C   UNL     1      -4.250  -4.002  -3.158  0.00  0.00    +0.004 A 
ATOM     25  C   UNL     1      -4.924  -3.575  -4.282  0.00  0.00    +0.000 A 
ATOM     26  C   UNL     1      -4.404  -2.546  -5.046  0.00  0.00    +0.000 A 
ATOM     27  C   UNL     1      -3.212  -1.956  -4.679  0.00  0.00    +0.004 A 
ATOM     28  C   UNL     1      -2.530  -2.388  -3.548  0.00  0.00    -0.046 A 
ATOM     29  C   UNL     1      -1.227  -1.709  -3.214  0.00  0.00    +0.020 C 
ENDBRANCH  18  20
BRANCH  18  30
ATOM     30  C   UNL     1       0.579  -0.046  -1.693  0.00  0.00    -0.078 C 
BRANCH  30  32
ATOM     31  C   UNL     1      -0.118   2.142  -0.707  0.00  0.00    +0.002 C 
ATOM     32  C   UNL     1      -0.271   0.623  -0.610  0.00  0.00    -0.022 C 
ENDBRANCH  30  32
ENDBRANCH  18  30
ENDBRANCH   1  18
TORSDOF 6
