REMARK  Name = ZINC15692112
REMARK  9 active torsions:
REMARK  status: ('A' for Active; 'I' for Inactive)
REMARK    1  A    between atoms: C_1  and  C_2
REMARK    2  A    between atoms: C_7  and  C_9
REMARK    3  A    between atoms: C_7  and  C_28
REMARK    4  A    between atoms: C_7  and  N_59
REMARK    5  A    between atoms: C_9  and  N_10
REMARK    6  A    between atoms: C_11  and  C_13
REMARK    7  A    between atoms: C_16  and  N_19
REMARK    8  A    between atoms: N_19  and  S_20
REMARK    9  A    between atoms: S_20  and  C_23
REMARK                            x       y       z     vdW  Elec       q    Type
REMARK                         _______ _______ _______ _____ _____    ______ ____
ROOT
ATOM      1  N   UNL     1      -2.798   1.946  -3.267  0.00  0.00    -0.313 N 
ATOM      2  C   UNL     1      -3.908   2.268  -3.959  0.00  0.00    +0.244 C 
ATOM      3  O   UNL     1      -3.841   3.051  -4.887  0.00  0.00    -0.270 OA
ATOM      4  H   UNL     1      -2.852   1.321  -2.527  0.00  0.00    +0.149 HD
ENDROOT
BRANCH   2   5
ATOM      5  C   UNL     1      -5.206   1.670  -3.591  0.00  0.00    +0.037 A 
ATOM      6  C   UNL     1      -5.284   0.765  -2.529  0.00  0.00    +0.015 A 
ATOM      7  C   UNL     1      -6.497   0.213  -2.185  0.00  0.00    +0.025 A 
ATOM      8  C   UNL     1      -7.643   0.547  -2.901  0.00  0.00    +0.048 A 
ATOM      9  C   UNL     1      -7.568   1.444  -3.963  0.00  0.00    +0.025 A 
ATOM     10  C   UNL     1      -6.359   2.003  -4.309  0.00  0.00    +0.015 A 
BRANCH   8  11
ATOM     11  N   UNL     1      -8.867  -0.016  -2.554  0.00  0.00    -0.216 N 
ATOM     12  H   UNL     1      -9.309   0.253  -1.734  0.00  0.00    +0.174 HD
BRANCH  11  13
ATOM     13  S   UNL     1      -9.568  -1.145  -3.542  0.00  0.00    +0.079 S 
ATOM     14  O   UNL     1     -10.791  -1.521  -2.924  0.00  0.00    -0.149 OA
ATOM     15  O   UNL     1      -9.510  -0.622  -4.862  0.00  0.00    -0.149 OA
BRANCH  13  16
ATOM     16  C   UNL     1      -8.533  -2.571  -3.519  0.00  0.00    +0.146 A 
ATOM     17  C   UNL     1      -8.621  -3.678  -2.741  0.00  0.00    +0.036 A 
ATOM     18  C   UNL     1      -7.688  -4.685  -2.900  0.00  0.00    +0.010 A 
ATOM     19  C   UNL     1      -6.712  -4.536  -3.829  0.00  0.00    +0.047 A 
ATOM     20  S   UNL     1      -7.101  -2.937  -4.521  0.00  0.00    -0.077 S 
ENDBRANCH  13  16
ENDBRANCH  11  13
ENDBRANCH   8  11
ENDBRANCH   2   5
BRANCH   1  21
ATOM     21  C   UNL     1      -1.509   2.539  -3.632  0.00  0.00    +0.094 C 
BRANCH  21  22
ATOM     22  C   UNL     1      -0.420   2.010  -2.696  0.00  0.00    -0.013 C 
BRANCH  22  29
ATOM     23  C   UNL     1      -1.235   3.650   2.719  0.00  0.00    +0.007 C 
ATOM     24  C   UNL     1      -0.695   3.527   1.292  0.00  0.00    -0.018 C 
ATOM     25  C   UNL     1      -0.181   2.104   1.061  0.00  0.00    -0.015 C 
ATOM     26  C   UNL     1       0.301   1.970  -0.385  0.00  0.00    -0.078 C 
ATOM     27  C   UNL     1      -1.288   3.641  -1.131  0.00  0.00    -0.078 C 
ATOM     28  C   UNL     1      -1.817   3.825   0.294  0.00  0.00    -0.015 C 
ATOM     29  N   UNL     1      -0.831   2.244  -1.296  0.00  0.00    +0.386 N 
ATOM     30  H   UNL     1      -1.605   1.611  -1.065  0.00  0.00    -0.081 HD
ENDBRANCH  22  29
BRANCH  22  31
ATOM     31  C   UNL     1       0.880   2.712  -2.991  0.00  0.00    -0.022 A 
ATOM     32  C   UNL     1       2.037   2.197  -3.476  0.00  0.00    +0.009 A 
ATOM     33  C   UNL     1       3.115   3.039  -3.671  0.00  0.00    +0.008 A 
ATOM     34  C   UNL     1       2.985   4.355  -3.370  0.00  0.00    +0.045 A 
ATOM     35  S   UNL     1       1.296   4.437  -2.799  0.00  0.00    -0.103 S 
ENDBRANCH  22  31
ENDBRANCH  21  22
ENDBRANCH   1  21
TORSDOF 8
