REMARK  Name = ZINC36249702
REMARK  16 active torsions:
REMARK  status: ('A' for Active; 'I' for Inactive)
REMARK    1  A    between atoms: C_1  and  O_2
REMARK    2  A    between atoms: O_2  and  C_3
REMARK    3  A    between atoms: C_3  and  C_4
REMARK    4  A    between atoms: C_4  and  C_5
REMARK    5  A    between atoms: C_5  and  N_6
REMARK    6  A    between atoms: N_6  and  C_7
REMARK    7  A    between atoms: N_6  and  C_26
REMARK    8  A    between atoms: C_7  and  C_8
REMARK    9  A    between atoms: C_9  and  C_19
REMARK   10  A    between atoms: C_12  and  N_13
REMARK   11  A    between atoms: C_26  and  C_27
REMARK   12  A    between atoms: C_27  and  C_29
REMARK   13  A    between atoms: C_27  and  O_38
REMARK   14  A    between atoms: C_29  and  O_30
REMARK   15  A    between atoms: O_30  and  C_31
REMARK   16  A    between atoms: C_31  and  C_32
REMARK                            x       y       z     vdW  Elec       q    Type
REMARK                         _______ _______ _______ _____ _____    ______ ____
ROOT
ATOM      1  N   UNL     1       0.360  -4.091   1.595  0.00  0.00    +0.384 N 
ATOM      2  H   UNL     1      -0.515  -4.549   1.391  0.00  0.00    -0.081 HD
ENDROOT
BRANCH   1   3
ATOM      3  C   UNL     1       0.158  -2.636   1.612  0.00  0.00    -0.076 C 
BRANCH   3   4
ATOM      4  C   UNL     1      -0.489  -2.195   0.298  0.00  0.00    +0.009 C 
BRANCH   4   5
ATOM      5  C   UNL     1      -0.820  -0.703   0.367  0.00  0.00    +0.157 C 
BRANCH   5   7
ATOM      6  C   UNL     1      -1.775   1.093  -0.901  0.00  0.00    +0.193 C 
ATOM      7  O   UNL     1      -1.425  -0.292  -0.861  0.00  0.00    -0.383 OA
ENDBRANCH   5   7
ENDBRANCH   4   5
ENDBRANCH   3   4
ENDBRANCH   1   3
BRANCH   1   8
ATOM      8  C   UNL     1       0.850  -4.532   2.908  0.00  0.00    -0.035 C 
BRANCH   8   9
ATOM      9  C   UNL     1      -0.188  -4.234   3.958  0.00  0.00    +0.025 A 
ATOM     10  C   UNL     1      -0.215  -3.102   4.799  0.00  0.00    +0.117 A 
ATOM     11  N   UNL     1      -1.270  -3.200   5.575  0.00  0.00    -0.076 NA
ATOM     12  O   UNL     1      -1.945  -4.400   5.247  0.00  0.00    -0.339 OA
ATOM     13  C   UNL     1      -1.265  -5.003   4.257  0.00  0.00    +0.222 A 
BRANCH  10  14
ATOM     14  C   UNL     1       0.774  -1.996   4.807  0.00  0.00    +0.004 A 
ATOM     15  C   UNL     1       2.137  -2.277   4.732  0.00  0.00    +0.013 A 
ATOM     16  C   UNL     1       3.054  -1.246   4.739  0.00  0.00    +0.039 A 
ATOM     17  C   UNL     1       2.621   0.068   4.821  0.00  0.00    +0.123 A 
ATOM     18  C   UNL     1       1.266   0.352   4.896  0.00  0.00    +0.039 A 
ATOM     19  C   UNL     1       0.343  -0.673   4.883  0.00  0.00    +0.013 A 
ATOM     20  F   UNL     1       3.521   1.075   4.828  0.00  0.00    -0.205 F 
ENDBRANCH  10  14
BRANCH  13  21
ATOM     21  N   UNL     1      -1.602  -6.200   3.651  0.00  0.00    -0.295 N 
ATOM     22  C   UNL     1      -1.187  -7.487   4.233  0.00  0.00    +0.136 C 
ATOM     23  C   UNL     1      -2.420  -8.393   4.332  0.00  0.00    +0.179 C 
ATOM     24  O   UNL     1      -3.064  -8.451   3.057  0.00  0.00    -0.377 OA
ATOM     25  C   UNL     1      -3.560  -7.192   2.594  0.00  0.00    +0.179 C 
ATOM     26  C   UNL     1      -2.390  -6.225   2.410  0.00  0.00    +0.136 C 
ENDBRANCH  13  21
ENDBRANCH   8   9
ENDBRANCH   1   8
BRANCH   1  27
ATOM     27  C   UNL     1       1.347  -4.436   0.563  0.00  0.00    -0.044 C 
BRANCH  27  28
ATOM     28  C   UNL     1       1.430  -5.957   0.426  0.00  0.00    +0.124 C 
BRANCH  28  29
ATOM     29  O   UNL     1       2.014  -6.511   1.607  0.00  0.00    -0.391 OA
ATOM     30  H   UNL     1       2.909  -6.191   1.790  0.00  0.00    +0.210 HD
ENDBRANCH  28  29
BRANCH  28  31
ATOM     31  C   UNL     1       2.294  -6.314  -0.786  0.00  0.00    +0.189 C 
BRANCH  31  32
ATOM     32  O   UNL     1       2.278  -7.729  -0.983  0.00  0.00    -0.373 OA
BRANCH  32  33
ATOM     33  C   UNL     1       3.058  -8.170  -2.096  0.00  0.00    +0.195 C 
BRANCH  33  34
ATOM     34  C   UNL     1       2.969  -9.670  -2.209  0.00  0.00    -0.022 A 
ATOM     35  C   UNL     1       3.879 -10.469  -1.543  0.00  0.00    +0.006 A 
ATOM     36  C   UNL     1       3.797 -11.845  -1.646  0.00  0.00    +0.000 A 
ATOM     37  C   UNL     1       2.805 -12.422  -2.416  0.00  0.00    +0.000 A 
ATOM     38  C   UNL     1       1.894 -11.623  -3.082  0.00  0.00    +0.000 A 
ATOM     39  C   UNL     1       1.973 -10.248  -2.974  0.00  0.00    +0.006 A 
ENDBRANCH  33  34
ENDBRANCH  32  33
ENDBRANCH  31  32
ENDBRANCH  28  31
ENDBRANCH  27  28
ENDBRANCH   1  27
TORSDOF 15
