REMARK  Name = ZINC39559094
REMARK  5 active torsions:
REMARK  status: ('A' for Active; 'I' for Inactive)
REMARK    1  A    between atoms: C_6  and  N_7
REMARK    2  A    between atoms: C_9  and  C_14
REMARK    3  A    between atoms: N_16  and  C_17
REMARK    4  A    between atoms: C_17  and  C_18
REMARK    5  A    between atoms: N_20  and  C_21
REMARK                            x       y       z     vdW  Elec       q    Type
REMARK                         _______ _______ _______ _____ _____    ______ ____
ROOT
ATOM      1  C   UNL     1      -3.292  -3.671  -0.428  0.00  0.00    +0.218 C 
ATOM      2  O   UNL     1      -2.639  -4.175  -1.317  0.00  0.00    -0.275 OA
ATOM      3  N   UNL     1      -4.525  -4.139  -0.149  0.00  0.00    -0.306 N 
ATOM      4  H   UNL     1      -5.048  -3.736   0.561  0.00  0.00    +0.149 HD
ENDROOT
BRANCH   1   7
ATOM      5  N   UNL     1      -1.220  -0.695  -0.020  0.00  0.00    -0.271 N 
ATOM      6  C   UNL     1      -1.308  -2.157  -0.126  0.00  0.00    +0.127 C 
ATOM      7  C   UNL     1      -2.726  -2.522   0.365  0.00  0.00    +0.101 C 
ATOM      8  C   UNL     1      -3.504  -1.216   0.082  0.00  0.00    +0.110 C 
ATOM      9  C   UNL     1      -2.439  -0.141   0.098  0.00  0.00    +0.221 C 
ATOM     10  O   UNL     1      -2.654   1.048   0.199  0.00  0.00    -0.275 OA
BRANCH   5  16
ATOM     11  C   UNL     1      -0.047   1.416  -0.034  0.00  0.00    +0.024 A 
ATOM     12  C   UNL     1       1.137   2.126  -0.047  0.00  0.00    +0.017 A 
ATOM     13  C   UNL     1       2.348   1.456  -0.061  0.00  0.00    +0.018 A 
ATOM     14  C   UNL     1       2.375   0.073  -0.062  0.00  0.00    +0.017 A 
ATOM     15  C   UNL     1       1.194  -0.643  -0.049  0.00  0.00    +0.024 A 
ATOM     16  C   UNL     1      -0.022   0.027  -0.034  0.00  0.00    +0.036 A 
ATOM     17 BR   UNL     1       3.967   2.433  -0.079  0.00  0.00    -0.050 Br
ENDBRANCH   5  16
ENDBRANCH   1   7
BRANCH   3  18
ATOM     18  C   UNL     1      -5.076  -5.256  -0.921  0.00  0.00    +0.200 C 
BRANCH  18  19
ATOM     19  C   UNL     1      -6.457  -5.583  -0.414  0.00  0.00    +0.234 C 
ATOM     20  O   UNL     1      -6.935  -4.946   0.500  0.00  0.00    -0.274 OA
ATOM     21  N   UNL     1      -7.162  -6.584  -0.978  0.00  0.00    -0.284 N 
ATOM     22  H   UNL     1      -6.752  -7.144  -1.656  0.00  0.00    +0.155 HD
BRANCH  21  23
ATOM     23  C   UNL     1      -8.487  -6.815  -0.586  0.00  0.00    +0.036 A 
ATOM     24  C   UNL     1      -8.979  -8.115  -0.536  0.00  0.00    +0.025 A 
ATOM     25  C   UNL     1     -10.284  -8.349  -0.151  0.00  0.00    +0.029 A 
ATOM     26  C   UNL     1     -11.107  -7.286   0.188  0.00  0.00    +0.067 A 
ATOM     27  C   UNL     1     -10.616  -5.980   0.139  0.00  0.00    +0.069 A 
ATOM     28  C   UNL     1      -9.303  -5.748  -0.243  0.00  0.00    +0.051 A 
ATOM     29  N   UNL     1     -11.658  -5.142   0.529  0.00  0.00    -0.306 N 
ATOM     30  H   UNL     1     -11.616  -4.175   0.592  0.00  0.00    +0.170 HD
ATOM     31  C   UNL     1     -12.735  -5.903   0.802  0.00  0.00    +0.325 A 
ATOM     32  O   UNL     1     -13.815  -5.482   1.171  0.00  0.00    -0.247 OA
ATOM     33  N   UNL     1     -12.434  -7.201   0.607  0.00  0.00    -0.306 N 
ATOM     34  H   UNL     1     -13.039  -7.949   0.734  0.00  0.00    +0.170 HD
ENDBRANCH  21  23
ENDBRANCH  18  19
ENDBRANCH   3  18
TORSDOF 5
