REMARK  Name = ZINC04648907
REMARK  5 active torsions:
REMARK  status: ('A' for Active; 'I' for Inactive)
REMARK    1  A    between atoms: C_4  and  C_7
REMARK    2  A    between atoms: N_9  and  C_10
REMARK    3  A    between atoms: C_10  and  C_17
REMARK    4  A    between atoms: C_11  and  C_12
REMARK    5  A    between atoms: N_22  and  C_25
REMARK                            x       y       z     vdW  Elec       q    Type
REMARK                         _______ _______ _______ _____ _____    ______ ____
ROOT
ATOM      1  C   UNL     1      -4.836   4.083  -2.675  0.00  0.00    +0.100 C 
ATOM      2  C   UNL     1      -5.220   2.781  -2.731  0.00  0.00    +0.074 C 
ENDROOT
BRANCH   1   3
ATOM      3  C   UNL     1      -3.639   4.462  -1.918  0.00  0.00    +0.261 C 
ATOM      4  O   UNL     1      -3.595   5.536  -1.346  0.00  0.00    -0.269 OA
ATOM      5  N   UNL     1      -2.588   3.622  -1.855  0.00  0.00    -0.294 N 
ATOM      6  C   UNL     1      -1.340   4.022  -1.187  0.00  0.00    +0.127 C 
ATOM      7  C   UNL     1      -0.171   3.760  -2.141  0.00  0.00    +0.125 C 
ATOM      8  N   UNL     1      -0.213   2.362  -2.590  0.00  0.00    -0.314 N 
ATOM      9  C   UNL     1      -1.435   2.086  -3.357  0.00  0.00    +0.125 C 
ATOM     10  C   UNL     1      -2.657   2.280  -2.453  0.00  0.00    +0.127 C 
BRANCH   8  11
ATOM     11  C   UNL     1       0.920   2.041  -3.327  0.00  0.00    +0.099 A 
ATOM     12  C   UNL     1       1.067   0.756  -3.843  0.00  0.00    +0.042 A 
ATOM     13  C   UNL     1       2.197   0.452  -4.579  0.00  0.00    +0.005 A 
ATOM     14  C   UNL     1       3.147   1.446  -4.776  0.00  0.00    +0.018 A 
ATOM     15  C   UNL     1       2.938   2.698  -4.236  0.00  0.00    +0.084 A 
ATOM     16  N   UNL     1       1.839   3.033  -3.507  0.00  0.00    -0.350 N 
ATOM     17  H   UNL     1       1.710   3.974  -3.116  0.00  0.00    +0.166 HD
ENDBRANCH   8  11
ENDBRANCH   1   3
BRANCH   2  18
ATOM     18  C   UNL     1      -6.311   2.399  -3.550  0.00  0.00    +0.130 A 
ATOM     19  C   UNL     1      -6.867   1.139  -3.628  0.00  0.00    +0.049 A 
ATOM     20  C   UNL     1      -7.915   1.222  -4.558  0.00  0.00    +0.042 A 
ATOM     21  C   UNL     1      -7.957   2.498  -5.001  0.00  0.00    +0.195 A 
ATOM     22  O   UNL     1      -6.995   3.204  -4.389  0.00  0.00    -0.463 OA
ENDBRANCH   2  18
BRANCH   1  25
ATOM     23  C   UNL     1      -6.172   6.052  -2.639  0.00  0.00    +0.248 C 
ATOM     24  O   UNL     1      -5.989   6.141  -1.440  0.00  0.00    -0.270 OA
ATOM     25  N   UNL     1      -5.582   5.063  -3.340  0.00  0.00    -0.277 N 
ATOM     26  H   UNL     1      -5.675   5.030  -4.304  0.00  0.00    +0.155 HD
BRANCH  23  30
ATOM     27  C   UNL     1      -8.673   8.856  -4.618  0.00  0.00    +0.000 A 
ATOM     28  C   UNL     1      -8.379   9.023  -3.277  0.00  0.00    +0.001 A 
ATOM     29  C   UNL     1      -7.567   8.116  -2.628  0.00  0.00    +0.013 A 
ATOM     30  C   UNL     1      -7.043   7.028  -3.328  0.00  0.00    +0.037 A 
ATOM     31  C   UNL     1      -7.339   6.869  -4.683  0.00  0.00    +0.013 A 
ATOM     32  C   UNL     1      -8.157   7.780  -5.318  0.00  0.00    +0.001 A 
ENDBRANCH  23  30
ENDBRANCH   1  25
TORSDOF 5
