REMARK  Name = ZINC65734057
REMARK  13 active torsions:
REMARK  status: ('A' for Active; 'I' for Inactive)
REMARK    1  A    between atoms: C_1  and  C_2
REMARK    2  A    between atoms: C_2  and  O_4
REMARK    3  A    between atoms: O_4  and  C_5
REMARK    4  A    between atoms: C_12  and  C_14
REMARK    5  A    between atoms: C_14  and  C_16
REMARK    6  A    between atoms: C_14  and  O_37
REMARK    7  A    between atoms: C_16  and  O_17
REMARK    8  A    between atoms: O_17  and  C_18
REMARK    9  A    between atoms: C_18  and  C_19
REMARK   10  A    between atoms: C_18  and  C_25
REMARK   11  A    between atoms: C_18  and  C_31
REMARK   12  A    between atoms: C_39  and  C_41
REMARK   13  A    between atoms: C_39  and  C_42
REMARK                            x       y       z     vdW  Elec       q    Type
REMARK                         _______ _______ _______ _____ _____    ______ ____
ROOT
ATOM      1  O   UNL     1      -4.777  -1.299  -2.354  0.00  0.00    -0.357 OA
ENDROOT
BRANCH   1   2
ATOM      2  C   UNL     1      -3.884  -2.382  -2.087  0.00  0.00    +0.196 C 
BRANCH   2   3
ATOM      3  C   UNL     1      -2.526  -2.094  -2.731  0.00  0.00    +0.173 C 
BRANCH   3   8
ATOM      4  C   UNL     1      -0.224  -3.026  -3.203  0.00  0.00    +0.241 C 
ATOM      5  C   UNL     1      -0.169  -4.036  -4.342  0.00  0.00    +0.220 C 
ATOM      6  C   UNL     1      -1.056  -5.166  -3.697  0.00  0.00    +0.286 C 
ATOM      7  O   UNL     1      -2.176  -4.467  -3.265  0.00  0.00    -0.339 OA
ATOM      8  C   UNL     1      -1.610  -3.306  -2.552  0.00  0.00    +0.195 C 
ATOM      9  O   UNL     1      -0.898  -6.205  -4.601  0.00  0.00    -0.318 OA
ATOM     10  C   UNL     1       0.459  -6.053  -5.105  0.00  0.00    +0.168 C 
ATOM     11  O   UNL     1       1.005  -4.801  -4.577  0.00  0.00    -0.337 OA
ATOM     12  C   UNL     1       1.317  -7.233  -4.644  0.00  0.00    +0.074 C 
ATOM     13  C   UNL     1       0.441  -5.992  -6.633  0.00  0.00    +0.074 C 
BRANCH   4  14
ATOM     14  O   UNL     1      -0.162  -1.690  -3.707  0.00  0.00    -0.456 OA
BRANCH  14  16
ATOM     15  C   UNL     1       0.455   0.675  -3.359  0.00  0.00    +0.136 C 
ATOM     16  C   UNL     1       0.358  -0.756  -2.895  0.00  0.00    +0.304 C 
ATOM     17  O   UNL     1       0.747  -1.062  -1.793  0.00  0.00    -0.251 OA
ENDBRANCH  14  16
ENDBRANCH   4  14
ENDBRANCH   3   8
BRANCH   3  18
ATOM     18  O   UNL     1      -1.935  -0.953  -2.104  0.00  0.00    -0.387 OA
ATOM     19  H   UNL     1      -1.784  -1.060  -1.155  0.00  0.00    +0.210 HD
ENDBRANCH   3  18
ENDBRANCH   2   3
ENDBRANCH   1   2
BRANCH   1  20
ATOM     20  C   UNL     1      -6.117  -1.528  -1.914  0.00  0.00    +0.144 C 
BRANCH  20  21
ATOM     21  C   UNL     1      -6.117  -1.819  -0.435  0.00  0.00    -0.007 A 
ATOM     22  C   UNL     1      -5.828  -3.092   0.019  0.00  0.00    +0.007 A 
ATOM     23  C   UNL     1      -5.828  -3.358   1.376  0.00  0.00    +0.000 A 
ATOM     24  C   UNL     1      -6.116  -2.351   2.278  0.00  0.00    +0.000 A 
ATOM     25  C   UNL     1      -6.404  -1.078   1.824  0.00  0.00    +0.000 A 
ATOM     26  C   UNL     1      -6.400  -0.810   0.468  0.00  0.00    +0.007 A 
ENDBRANCH  20  21
BRANCH  20  27
ATOM     27  C   UNL     1      -6.952  -0.303  -2.185  0.00  0.00    -0.007 A 
ATOM     28  C   UNL     1      -8.294  -0.295  -1.856  0.00  0.00    +0.007 A 
ATOM     29  C   UNL     1      -9.060   0.829  -2.105  0.00  0.00    +0.000 A 
ATOM     30  C   UNL     1      -8.483   1.944  -2.682  0.00  0.00    +0.000 A 
ATOM     31  C   UNL     1      -7.140   1.936  -3.010  0.00  0.00    +0.000 A 
ATOM     32  C   UNL     1      -6.373   0.814  -2.758  0.00  0.00    +0.007 A 
ENDBRANCH  20  27
BRANCH  20  33
ATOM     33  C   UNL     1      -6.695  -2.705  -2.657  0.00  0.00    -0.007 A 
ATOM     34  C   UNL     1      -7.652  -3.500  -2.054  0.00  0.00    +0.007 A 
ATOM     35  C   UNL     1      -8.183  -4.580  -2.736  0.00  0.00    +0.000 A 
ATOM     36  C   UNL     1      -7.757  -4.863  -4.020  0.00  0.00    +0.000 A 
ATOM     37  C   UNL     1      -6.801  -4.067  -4.623  0.00  0.00    +0.000 A 
ATOM     38  C   UNL     1      -6.273  -2.986  -3.943  0.00  0.00    +0.007 A 
ENDBRANCH  20  33
ENDBRANCH   1  20
TORSDOF 10
