REMARK  Name = ZINC49555199
REMARK  7 active torsions:
REMARK  status: ('A' for Active; 'I' for Inactive)
REMARK    1  A    between atoms: C_1  and  C_2
REMARK    2  A    between atoms: C_6  and  C_8
REMARK    3  A    between atoms: C_10  and  C_13
REMARK    4  A    between atoms: C_13  and  C_14
REMARK    5  A    between atoms: C_14  and  N_16
REMARK    6  A    between atoms: N_23  and  C_26
REMARK    7  A    between atoms: C_26  and  C_27
REMARK                            x       y       z     vdW  Elec       q    Type
REMARK                         _______ _______ _______ _____ _____    ______ ____
ROOT
ATOM      1  N   UNL     1      -1.218  -8.089   3.373  0.00  0.00    -0.156 NA
ATOM      2  C   UNL     1      -2.241  -8.644   2.719  0.00  0.00    +0.163 A 
ATOM      3  N   UNL     1      -3.193  -8.032   1.966  0.00  0.00    -0.339 N 
ATOM      4  C   UNL     1      -4.168  -8.782   1.370  0.00  0.00    +0.024 A 
ATOM      5  C   UNL     1      -4.092 -10.105   1.595  0.00  0.00    -0.004 A 
ATOM      6  S   UNL     1      -2.660 -10.271   2.620  0.00  0.00    -0.059 S 
ATOM      7  C   UNL     1      -5.019 -11.155   1.077  0.00  0.00    -0.033 C 
ATOM      8  N   UNL     1      -6.245 -10.493   0.591  0.00  0.00    +0.386 N 
ATOM      9  C   UNL     1      -5.881  -9.388  -0.306  0.00  0.00    -0.072 C 
ATOM     10  C   UNL     1      -5.288  -8.227   0.499  0.00  0.00    +0.035 C 
ATOM     11  H   UNL     1      -3.180  -7.069   1.852  0.00  0.00    +0.167 HD
ATOM     12  H   UNL     1      -6.766 -10.133   1.375  0.00  0.00    -0.081 HD
ENDROOT
BRANCH   1  13
ATOM     13  C   UNL     1      -1.042  -6.775   3.337  0.00  0.00    +0.244 C 
ATOM     14  O   UNL     1      -1.813  -6.075   2.708  0.00  0.00    -0.273 OA
BRANCH  13  15
ATOM     15  C   UNL     1       0.113  -6.149   4.075  0.00  0.00    +0.153 C 
BRANCH  15  18
ATOM     16  C   UNL     1       0.052  -2.845   2.458  0.00  0.00    +0.109 A 
ATOM     17  N   UNL     1       0.075  -4.155   2.662  0.00  0.00    -0.243 NA
ATOM     18  C   UNL     1       0.087  -4.655   3.875  0.00  0.00    +0.058 A 
ATOM     19  C   UNL     1       0.075  -3.824   4.951  0.00  0.00    +0.071 A 
ATOM     20  S   UNL     1       0.052  -2.232   4.137  0.00  0.00    -0.075 S 
BRANCH  16  26
ATOM     21  C   UNL     1      -0.018   1.503   0.010  0.00  0.00    +0.044 C 
ATOM     22  C   UNL     1       0.002  -0.004   0.002  0.00  0.00    -0.050 A 
ATOM     23  C   UNL     1       0.006  -0.688  -1.201  0.00  0.00    +0.003 A 
ATOM     24  C   UNL     1       0.025  -2.071  -1.217  0.00  0.00    +0.001 A 
ATOM     25  C   UNL     1       0.040  -2.778  -0.032  0.00  0.00    +0.010 A 
ATOM     26  C   UNL     1       0.036  -2.094   1.184  0.00  0.00    +0.007 A 
ATOM     27  C   UNL     1       0.023  -0.699   1.194  0.00  0.00    +0.014 A 
ENDBRANCH  16  26
ENDBRANCH  15  18
ENDBRANCH  13  15
ENDBRANCH   1  13
BRANCH   8  28
ATOM     28  C   UNL     1      -7.068 -11.466  -0.140  0.00  0.00    -0.043 C 
BRANCH  28  29
ATOM     29  C   UNL     1      -7.543 -12.536   0.809  0.00  0.00    -0.064 A 
ATOM     30  C   UNL     1      -6.780 -13.671   1.008  0.00  0.00    +0.002 A 
ATOM     31  C   UNL     1      -7.215 -14.653   1.878  0.00  0.00    +0.000 A 
ATOM     32  C   UNL     1      -8.413 -14.499   2.551  0.00  0.00    +0.000 A 
ATOM     33  C   UNL     1      -9.175 -13.363   2.353  0.00  0.00    +0.000 A 
ATOM     34  C   UNL     1      -8.738 -12.380   1.485  0.00  0.00    +0.002 A 
ENDBRANCH  28  29
ENDBRANCH   8  28
TORSDOF 6
