REMARK  Name = ZINC08790415
REMARK  6 active torsions:
REMARK  status: ('A' for Active; 'I' for Inactive)
REMARK    1  A    between atoms: C_1  and  C_2
REMARK    2  A    between atoms: C_2  and  C_4
REMARK    3  A    between atoms: C_2  and  O_34
REMARK    4  A    between atoms: N_12  and  C_15
REMARK    5  A    between atoms: C_15  and  C_16
REMARK    6  A    between atoms: C_16  and  C_17
REMARK                            x       y       z     vdW  Elec       q    Type
REMARK                         _______ _______ _______ _____ _____    ______ ____
ROOT
ATOM      1  C   UNL     1       1.510  -1.383  -3.968  0.00  0.00    -0.028 C 
ATOM      2  C   UNL     1       0.522  -0.229  -4.241  0.00  0.00    +0.075 C 
ATOM      3  C   UNL     1       1.399   1.054  -4.244  0.00  0.00    +0.088 C 
ATOM      4  C   UNL     1       0.905   1.817  -3.036  0.00  0.00    +0.225 C 
ATOM      5  O   UNL     1       1.327   2.892  -2.666  0.00  0.00    -0.275 OA
ATOM      6  N   UNL     1      -0.067   1.120  -2.437  0.00  0.00    -0.241 N 
ATOM      7  C   UNL     1      -0.366  -0.041  -3.031  0.00  0.00    +0.224 C 
ATOM      8  O   UNL     1      -1.216  -0.820  -2.658  0.00  0.00    -0.275 OA
ATOM      9  C   UNL     1       2.825   0.549  -3.999  0.00  0.00    +0.050 C 
ATOM     10  C   UNL     1       3.835   1.352  -4.768  0.00  0.00    -0.026 A 
ATOM     11  C   UNL     1       4.017   1.614  -6.107  0.00  0.00    +0.024 A 
ATOM     12  C   UNL     1       5.071   2.412  -6.520  0.00  0.00    +0.041 A 
ATOM     13  C   UNL     1       5.937   2.947  -5.583  0.00  0.00    +0.022 A 
ATOM     14  C   UNL     1       5.757   2.688  -4.240  0.00  0.00    +0.025 A 
ATOM     15  C   UNL     1       4.700   1.886  -3.817  0.00  0.00    +0.036 A 
ATOM     16  N   UNL     1       4.315   1.485  -2.535  0.00  0.00    -0.286 N 
ATOM     17  C   UNL     1       3.222   0.699  -2.556  0.00  0.00    +0.211 C 
ATOM     18  O   UNL     1       2.665   0.207  -1.597  0.00  0.00    -0.277 OA
ATOM     19 CL   UNL     1       5.303   2.742  -8.209  0.00  0.00    -0.084 Cl
ATOM     20  H   UNL     1       4.781   1.743  -1.724  0.00  0.00    +0.155 HD
ATOM     21  N   UNL     1       2.805  -0.848  -4.397  0.00  0.00    +0.396 N 
ATOM     22  H   UNL     1       2.901  -0.928  -5.416  0.00  0.00    -0.083 HD
ATOM     23  H   UNL     1       3.569  -1.359  -3.939  0.00  0.00    -0.083 HD
ENDROOT
BRANCH   1  25
ATOM     24  C   UNL     1       2.113  -3.750  -4.492  0.00  0.00    +0.036 C 
ATOM     25  C   UNL     1       1.121  -2.621  -4.778  0.00  0.00    +0.098 C 
BRANCH  25  26
ATOM     26  O   UNL     1       1.147  -2.305  -6.172  0.00  0.00    -0.394 OA
ATOM     27  H   UNL     1       0.910  -3.045  -6.747  0.00  0.00    +0.210 HD
ENDBRANCH  25  26
ENDBRANCH   1  25
BRANCH   6  28
ATOM     28  C   UNL     1      -0.753   1.593  -1.232  0.00  0.00    +0.121 C 
BRANCH  28  29
ATOM     29  C   UNL     1      -0.013   1.086   0.008  0.00  0.00    +0.054 C 
BRANCH  29  30
ATOM     30  C   UNL     1      -0.718   1.572   1.248  0.00  0.00    -0.046 A 
ATOM     31  C   UNL     1      -0.360   2.779   1.819  0.00  0.00    +0.004 A 
ATOM     32  C   UNL     1      -1.010   3.227   2.953  0.00  0.00    +0.000 A 
ATOM     33  C   UNL     1      -2.012   2.463   3.523  0.00  0.00    +0.000 A 
ATOM     34  C   UNL     1      -2.366   1.254   2.955  0.00  0.00    +0.000 A 
ATOM     35  C   UNL     1      -1.719   0.808   1.818  0.00  0.00    +0.004 A 
ENDBRANCH  29  30
ENDBRANCH  28  29
ENDBRANCH   6  28
TORSDOF 5
