REMARK  Name = ZINC00949128
REMARK  5 active torsions:
REMARK  status: ('A' for Active; 'I' for Inactive)
REMARK    1  A    between atoms: C_1  and  C_2
REMARK    2  A    between atoms: C_5  and  S_8
REMARK    3  A    between atoms: S_8  and  N_11
REMARK    4  A    between atoms: C_20  and  C_22
REMARK    5  A    between atoms: N_24  and  C_25
REMARK                            x       y       z     vdW  Elec       q    Type
REMARK                         _______ _______ _______ _____ _____    ______ ____
ROOT
ATOM      1  N   UNL     1       7.160   4.538   0.002  0.00  0.00    -0.160 NA
ATOM      2  C   UNL     1       8.562   4.118   0.101  0.00  0.00    +0.145 C 
ATOM      3  C   UNL     1       8.660   2.874   0.948  0.00  0.00    -0.028 A 
ATOM      4  C   UNL     1       9.924   2.461   1.348  0.00  0.00    +0.005 A 
ATOM      5  C   UNL     1      10.079   1.326   2.117  0.00  0.00    +0.000 A 
ATOM      6  C   UNL     1       8.967   0.595   2.491  0.00  0.00    +0.000 A 
ATOM      7  C   UNL     1       7.711   1.006   2.098  0.00  0.00    +0.004 A 
ATOM      8  C   UNL     1       7.551   2.151   1.327  0.00  0.00    -0.041 A 
ATOM      9  C   UNL     1       6.149   2.546   0.946  0.00  0.00    +0.065 C 
ATOM     10  C   UNL     1       6.157   3.491  -0.254  0.00  0.00    +0.170 C 
ENDROOT
BRANCH  10  11
ATOM     11  C   UNL     1       4.796   4.118  -0.419  0.00  0.00    +0.236 C 
ATOM     12  O   UNL     1       4.200   4.537   0.550  0.00  0.00    -0.274 OA
ATOM     13  N   UNL     1       4.242   4.212  -1.644  0.00  0.00    -0.284 N 
ATOM     14  H   UNL     1       4.686   3.814  -2.410  0.00  0.00    +0.155 HD
BRANCH  13  15
ATOM     15  C   UNL     1       3.028   4.881  -1.812  0.00  0.00    +0.041 A 
ATOM     16  C   UNL     1       2.561   5.729  -0.831  0.00  0.00    +0.024 A 
ATOM     17  C   UNL     1       1.352   6.401  -0.987  0.00  0.00    +0.002 A 
ATOM     18  C   UNL     1       0.599   6.240  -2.110  0.00  0.00    +0.008 A 
ATOM     19  C   UNL     1       1.040   5.385  -3.134  0.00  0.00    -0.016 A 
ATOM     20  C   UNL     1       2.269   4.695  -2.986  0.00  0.00    +0.003 A 
ATOM     21  C   UNL     1       2.708   3.842  -4.010  0.00  0.00    +0.010 A 
ATOM     22  C   UNL     1       1.950   3.688  -5.131  0.00  0.00    +0.001 A 
ATOM     23  C   UNL     1       0.744   4.369  -5.279  0.00  0.00    +0.001 A 
ATOM     24  C   UNL     1       0.283   5.200  -4.304  0.00  0.00    +0.008 A 
ENDBRANCH  13  15
ENDBRANCH  10  11
BRANCH   1  25
ATOM     25  S   UNL     1       6.723   6.127   0.170  0.00  0.00    +0.062 S 
ATOM     26  O   UNL     1       7.837   6.901  -0.252  0.00  0.00    -0.153 OA
ATOM     27  O   UNL     1       5.436   6.259  -0.419  0.00  0.00    -0.153 OA
BRANCH  25  32
ATOM     28  C   UNL     1       6.033   7.172   6.072  0.00  0.00    +0.044 C 
ATOM     29  C   UNL     1       6.205   6.911   4.598  0.00  0.00    -0.050 A 
ATOM     30  C   UNL     1       7.438   7.100   4.002  0.00  0.00    +0.005 A 
ATOM     31  C   UNL     1       7.596   6.861   2.650  0.00  0.00    +0.029 A 
ATOM     32  C   UNL     1       6.521   6.432   1.893  0.00  0.00    +0.106 A 
ATOM     33  C   UNL     1       5.287   6.248   2.488  0.00  0.00    +0.029 A 
ATOM     34  C   UNL     1       5.130   6.484   3.841  0.00  0.00    +0.005 A 
ENDBRANCH  25  32
ENDBRANCH   1  25
TORSDOF 4
