REMARK  Name = ZINC36142303
REMARK  4 active torsions:
REMARK  status: ('A' for Active; 'I' for Inactive)
REMARK    1  A    between atoms: C_1  and  C_2
REMARK    2  A    between atoms: C_2  and  C_20
REMARK    3  A    between atoms: C_4  and  C_16
REMARK    4  A    between atoms: C_4  and  N_19
REMARK                            x       y       z     vdW  Elec       q    Type
REMARK                         _______ _______ _______ _____ _____    ______ ____
ROOT
ATOM      1  C   UNL     1       0.520   1.677   0.451  0.00  0.00    +0.055 C 
ATOM      2  C   UNL     1       0.454   0.149   0.490  0.00  0.00    +0.105 C 
ATOM      3  C   UNL     1       0.688  -0.416  -0.917  0.00  0.00    +0.050 C 
ATOM      4  C   UNL     1       2.024   0.126  -1.432  0.00  0.00    +0.065 C 
ATOM      5  C   UNL     1       3.089  -0.051  -0.377  0.00  0.00    -0.006 A 
ATOM      6  C   UNL     1       4.428   0.016  -0.773  0.00  0.00    +0.007 A 
ATOM      7  C   UNL     1       5.441  -0.131   0.120  0.00  0.00    +0.009 A 
ATOM      8  C   UNL     1       5.146  -0.354   1.476  0.00  0.00    -0.014 A 
ATOM      9  C   UNL     1       6.166  -0.510   2.431  0.00  0.00    +0.008 A 
ATOM     10  C   UNL     1       5.838  -0.723   3.735  0.00  0.00    +0.001 A 
ATOM     11  C   UNL     1       4.506  -0.789   4.138  0.00  0.00    +0.001 A 
ATOM     12  C   UNL     1       3.494  -0.644   3.240  0.00  0.00    +0.012 A 
ATOM     13  C   UNL     1       3.793  -0.423   1.886  0.00  0.00    +0.024 A 
ATOM     14  C   UNL     1       2.764  -0.271   0.929  0.00  0.00    +0.131 A 
ATOM     15  O   UNL     1       1.476  -0.357   1.349  0.00  0.00    -0.485 OA
ATOM     16  C   UNL     1      -0.918  -0.295   1.003  0.00  0.00    +0.055 C 
ENDROOT
BRANCH   4  17
ATOM     17  N   UNL     1       1.883   1.553  -1.748  0.00  0.00    +0.392 N 
ATOM     18  H   UNL     1       1.071   1.923  -1.277  0.00  0.00    -0.088 HD
ATOM     19  H   UNL     1       2.706   2.049  -1.440  0.00  0.00    -0.088 HD
ATOM     20  H   UNL     1       1.774   1.667  -2.745  0.00  0.00    -0.088 HD
ENDBRANCH   4  17
BRANCH   4  21
ATOM     21  C   UNL     1       2.422  -0.625  -2.676  0.00  0.00    +0.349 C 
ATOM     22  O   UNL     1       2.578  -0.025  -3.727  0.00  0.00    -0.248 OA
ATOM     23  O   UNL     1       2.590  -1.832  -2.633  0.00  0.00    -0.248 OA
ENDBRANCH   4  21
TORSDOF 2
