REMARK  Name = ZINC36005196
REMARK  14 active torsions:
REMARK  status: ('A' for Active; 'I' for Inactive)
REMARK    1  A    between atoms: C_1  and  C_2
REMARK    2  A    between atoms: C_2  and  O_3
REMARK    3  A    between atoms: O_3  and  C_4
REMARK    4  A    between atoms: C_4  and  C_6
REMARK    5  A    between atoms: C_7  and  C_25
REMARK    6  A    between atoms: N_8  and  C_24
REMARK    7  A    between atoms: C_12  and  C_14
REMARK    8  A    between atoms: C_17  and  C_20
REMARK    9  A    between atoms: C_20  and  C_21
REMARK   10  A    between atoms: C_20  and  C_22
REMARK   11  A    between atoms: C_20  and  C_23
REMARK   12  A    between atoms: C_25  and  N_26
REMARK   13  A    between atoms: C_30  and  C_33
REMARK   14  A    between atoms: C_34  and  C_36
REMARK                            x       y       z     vdW  Elec       q    Type
REMARK                         _______ _______ _______ _____ _____    ______ ____
ROOT
ATOM      1  C   UNL     1      -3.058  -2.543  -0.115  0.00  0.00    +0.080 C 
ATOM      2  C   UNL     1      -3.276  -3.875  -0.138  0.00  0.00    +0.041 C 
ATOM      3  N   UNL     1      -4.527  -4.388   0.053  0.00  0.00    -0.260 N 
ATOM      4  C   UNL     1      -5.612  -3.636   0.272  0.00  0.00    +0.307 C 
ATOM      5  O   UNL     1      -6.686  -4.184   0.431  0.00  0.00    -0.252 OA
ATOM      6  N   UNL     1      -5.554  -2.290   0.323  0.00  0.00    -0.288 N 
ATOM      7  C   UNL     1      -4.247  -1.638   0.136  0.00  0.00    +0.144 C 
ATOM      8  C   UNL     1      -4.691  -5.843   0.015  0.00  0.00    +0.139 C 
ATOM      9  H   UNL     1      -6.353  -1.764   0.483  0.00  0.00    +0.151 HD
ENDROOT
BRANCH   7  10
ATOM     10  C   UNL     1      -3.953  -0.814   1.363  0.00  0.00    -0.022 A 
ATOM     11  C   UNL     1      -4.119  -1.363   2.620  0.00  0.00    +0.006 A 
ATOM     12  C   UNL     1      -3.850  -0.607   3.746  0.00  0.00    +0.004 A 
ATOM     13  C   UNL     1      -3.414   0.698   3.614  0.00  0.00    -0.042 A 
ATOM     14  C   UNL     1      -3.247   1.247   2.356  0.00  0.00    +0.004 A 
ATOM     15  C   UNL     1      -3.513   0.490   1.230  0.00  0.00    +0.006 A 
BRANCH  13  16
ATOM     16  C   UNL     1      -3.121   1.522   4.841  0.00  0.00    -0.013 C 
ATOM     17  C   UNL     1      -2.019   0.846   5.659  0.00  0.00    +0.015 C 
ATOM     18  C   UNL     1      -2.659   2.918   4.419  0.00  0.00    +0.015 C 
ATOM     19  C   UNL     1      -4.388   1.640   5.691  0.00  0.00    +0.015 C 
ENDBRANCH  13  16
ENDBRANCH   7  10
BRANCH   1  20
ATOM     20  C   UNL     1      -1.762  -2.010  -0.312  0.00  0.00    +0.339 C 
ATOM     21  O   UNL     1      -1.118  -1.610   0.639  0.00  0.00    -0.245 OA
BRANCH  20  22
ATOM     22  O   UNL     1      -1.241  -1.946  -1.555  0.00  0.00    -0.462 OA
BRANCH  22  24
ATOM     23  C   UNL     1       0.491  -1.407  -3.152  0.00  0.00    +0.048 C 
ATOM     24  C   UNL     1       0.072  -1.397  -1.680  0.00  0.00    +0.229 C 
ENDBRANCH  22  24
ENDBRANCH  20  22
ENDBRANCH   1  20
BRANCH   2  25
ATOM     25  C   UNL     1      -2.120  -4.812  -0.379  0.00  0.00    +0.136 C 
BRANCH  25  26
ATOM     26  N   UNL     1      -1.914  -5.652   0.808  0.00  0.00    -0.294 NA
ATOM     27  C   UNL     1      -1.485  -4.843   1.957  0.00  0.00    +0.104 C 
ATOM     28  C   UNL     1      -1.457  -5.721   3.213  0.00  0.00    +0.124 C 
ATOM     29  N   UNL     1      -0.626  -6.903   2.939  0.00  0.00    -0.290 N 
ATOM     30  C   UNL     1      -0.909  -7.687   1.728  0.00  0.00    +0.087 C 
ATOM     31  C   UNL     1      -0.959  -6.732   0.530  0.00  0.00    +0.107 C 
ATOM     32  C   UNL     1       0.195  -8.725   1.517  0.00  0.00    +0.029 C 
ATOM     33  C   UNL     1       0.369  -7.258   3.776  0.00  0.00    +0.282 C 
ATOM     34  O   UNL     1       1.115  -8.172   3.481  0.00  0.00    -0.267 OA
BRANCH  33  35
ATOM     35  C   UNL     1       0.552  -6.542   5.043  0.00  0.00    +0.189 A 
ATOM     36  C   UNL     1       1.589  -6.708   5.916  0.00  0.00    +0.054 A 
ATOM     37  C   UNL     1       1.361  -5.827   6.985  0.00  0.00    +0.042 A 
ATOM     38  C   UNL     1       0.210  -5.170   6.721  0.00  0.00    +0.196 A 
ATOM     39  O   UNL     1      -0.272  -5.600   5.548  0.00  0.00    -0.458 OA
ENDBRANCH  33  35
ENDBRANCH  25  26
ENDBRANCH   2  25
TORSDOF 8
