REMARK  Name = ZINC24233729
REMARK  9 active torsions:
REMARK  status: ('A' for Active; 'I' for Inactive)
REMARK    1  A    between atoms: C_1  and  N_2
REMARK    2  A    between atoms: N_2  and  C_3
REMARK    3  A    between atoms: N_2  and  S_4
REMARK    4  A    between atoms: S_4  and  C_7
REMARK    5  A    between atoms: C_11  and  S_13
REMARK    6  A    between atoms: S_13  and  N_16
REMARK    7  A    between atoms: N_16  and  C_17
REMARK    8  A    between atoms: C_19  and  C_27
REMARK    9  A    between atoms: C_21  and  C_23
REMARK                            x       y       z     vdW  Elec       q    Type
REMARK                         _______ _______ _______ _____ _____    ______ ____
ROOT
ATOM      1  S   UNL     1      -1.282   5.279  -3.825  0.00  0.00    +0.092 S 
ATOM      2  O   UNL     1      -2.315   5.795  -4.652  0.00  0.00    -0.148 OA
ATOM      3  O   UNL     1      -0.809   5.968  -2.676  0.00  0.00    -0.148 OA
ENDROOT
BRANCH   1   8
ATOM      4  C   UNL     1      -1.655   1.865  -1.739  0.00  0.00    +0.107 A 
ATOM      5  C   UNL     1      -2.666   1.206  -2.414  0.00  0.00    +0.028 A 
ATOM      6  C   UNL     1      -3.260   1.795  -3.514  0.00  0.00    +0.004 A 
ATOM      7  C   UNL     1      -2.836   3.038  -3.946  0.00  0.00    +0.029 A 
ATOM      8  C   UNL     1      -1.822   3.695  -3.274  0.00  0.00    +0.112 A 
ATOM      9  C   UNL     1      -1.232   3.108  -2.170  0.00  0.00    +0.057 A 
BRANCH   4  10
ATOM     10  S   UNL     1      -0.902   1.117  -0.332  0.00  0.00    +0.060 S 
ATOM     11  O   UNL     1      -1.105  -0.284  -0.460  0.00  0.00    -0.153 OA
ATOM     12  O   UNL     1       0.391   1.692  -0.210  0.00  0.00    -0.153 OA
BRANCH  10  14
ATOM     13  C   UNL     1      -2.905   0.807   1.460  0.00  0.00    +0.131 C 
ATOM     14  N   UNL     1      -1.762   1.600   0.998  0.00  0.00    -0.183 NA
ATOM     15  C   UNL     1      -1.380   2.820   1.714  0.00  0.00    +0.131 C 
ENDBRANCH  10  14
ENDBRANCH   4  10
ENDBRANCH   1   8
BRANCH   1  16
ATOM     16  N   UNL     1       0.031   5.035  -4.804  0.00  0.00    -0.098 NA
BRANCH  16  17
ATOM     17  C   UNL     1      -0.111   4.323  -5.997  0.00  0.00    +0.075 A 
ATOM     18  C   UNL     1       0.378   3.026  -6.097  0.00  0.00    +0.039 A 
ATOM     19  C   UNL     1       0.232   2.323  -7.277  0.00  0.00    +0.057 A 
ATOM     20  C   UNL     1      -0.390   2.913  -8.362  0.00  0.00    +0.024 A 
ATOM     21  C   UNL     1      -0.873   4.205  -8.268  0.00  0.00    +0.057 A 
ATOM     22  C   UNL     1      -0.736   4.912  -7.090  0.00  0.00    +0.039 A 
BRANCH  21  23
ATOM     23  C   UNL     1      -1.552   4.843  -9.453  0.00  0.00    +0.417 C 
ATOM     24  F   UNL     1      -0.599   5.505 -10.235  0.00  0.00    -0.166 F 
ATOM     25  F   UNL     1      -2.178   3.854 -10.220  0.00  0.00    -0.166 F 
ATOM     26  F   UNL     1      -2.507   5.761  -9.005  0.00  0.00    -0.166 F 
ENDBRANCH  21  23
BRANCH  19  27
ATOM     27  C   UNL     1       0.757   0.915  -7.383  0.00  0.00    +0.417 C 
ATOM     28  F   UNL     1       0.499   0.417  -8.665  0.00  0.00    -0.166 F 
ATOM     29  F   UNL     1       2.137   0.912  -7.151  0.00  0.00    -0.166 F 
ATOM     30  F   UNL     1       0.123   0.107  -6.433  0.00  0.00    -0.166 F 
ENDBRANCH  19  27
ENDBRANCH  16  17
ENDBRANCH   1  16
TORSDOF 7
