REMARK  Name = ZINC47155538
REMARK  4 active torsions:
REMARK  status: ('A' for Active; 'I' for Inactive)
REMARK    1  A    between atoms: C_1  and  C_2
REMARK    2  A    between atoms: C_2  and  C_4
REMARK    3  A    between atoms: C_2  and  N_14
REMARK    4  A    between atoms: N_17  and  C_18
REMARK                            x       y       z     vdW  Elec       q    Type
REMARK                         _______ _______ _______ _____ _____    ______ ____
ROOT
ATOM      1  N   UNL     1      -1.367  -0.524   0.011  0.00  0.00    -0.293 N 
ATOM      2  C   UNL     1      -2.049  -0.647  -1.145  0.00  0.00    +0.304 C 
ATOM      3  O   UNL     1      -1.523  -0.341  -2.198  0.00  0.00    -0.252 OA
ATOM      4  N   UNL     1      -3.315  -1.109  -1.135  0.00  0.00    -0.269 N 
ATOM      5  H   UNL     1      -1.787  -0.769   0.850  0.00  0.00    +0.151 HD
ATOM      6  H   UNL     1      -3.713  -1.415  -0.305  0.00  0.00    +0.156 HD
ENDROOT
BRANCH   4   7
ATOM      7  C   UNL     1      -4.054  -1.147  -2.319  0.00  0.00    +0.042 A 
ATOM      8  C   UNL     1      -3.433  -1.422  -3.518  0.00  0.00    +0.024 A 
ATOM      9  C   UNL     1      -4.160  -1.462  -4.704  0.00  0.00    +0.002 A 
ATOM     10  C   UNL     1      -5.502  -1.232  -4.714  0.00  0.00    +0.008 A 
ATOM     11  C   UNL     1      -6.174  -0.949  -3.513  0.00  0.00    -0.016 A 
ATOM     12  C   UNL     1      -5.445  -0.911  -2.298  0.00  0.00    +0.003 A 
ATOM     13  C   UNL     1      -6.119  -0.633  -1.098  0.00  0.00    +0.010 A 
ATOM     14  C   UNL     1      -7.462  -0.410  -1.116  0.00  0.00    +0.001 A 
ATOM     15  C   UNL     1      -8.180  -0.453  -2.309  0.00  0.00    +0.001 A 
ATOM     16  C   UNL     1      -7.558  -0.707  -3.492  0.00  0.00    +0.008 A 
ENDBRANCH   4   7
BRANCH   1  18
ATOM     17  C   UNL     1      -0.007   1.508   0.016  0.00  0.00    +0.033 C 
ATOM     18  C   UNL     1       0.009  -0.022  -0.001  0.00  0.00    +0.102 C 
BRANCH  18  19
ATOM     19  C   UNL     1       0.739  -0.530   1.215  0.00  0.00    -0.027 A 
ATOM     20  C   UNL     1       0.094  -0.591   2.437  0.00  0.00    +0.007 A 
ATOM     21  C   UNL     1       0.757  -1.056   3.554  0.00  0.00    +0.024 A 
ATOM     22  C   UNL     1       2.084  -1.468   3.458  0.00  0.00    +0.037 A 
ATOM     23  C   UNL     1       2.722  -1.403   2.225  0.00  0.00    -0.017 A 
ATOM     24  C   UNL     1       2.056  -0.943   1.111  0.00  0.00    +0.011 A 
ATOM     25  C   UNL     1       4.128  -1.911   2.446  0.00  0.00    +0.133 C 
ATOM     26  C   UNL     1       4.169  -2.252   3.921  0.00  0.00    +0.222 C 
ATOM     27  O   UNL     1       5.117  -2.698   4.531  0.00  0.00    -0.275 OA
ATOM     28  N   UNL     1       2.957  -1.968   4.426  0.00  0.00    -0.285 N 
ATOM     29  H   UNL     1       2.715  -2.096   5.357  0.00  0.00    +0.155 HD
ENDBRANCH  18  19
ENDBRANCH   1  18
TORSDOF 3
