REMARK  Name = ZINC64041981
REMARK  7 active torsions:
REMARK  status: ('A' for Active; 'I' for Inactive)
REMARK    1  A    between atoms: C_4  and  C_7
REMARK    2  A    between atoms: C_10  and  C_13
REMARK    3  A    between atoms: C_13  and  C_15
REMARK    4  A    between atoms: C_15  and  S_16
REMARK    5  A    between atoms: S_16  and  C_17
REMARK    6  A    between atoms: C_21  and  C_29
REMARK    7  A    between atoms: N_22  and  C_23
REMARK                            x       y       z     vdW  Elec       q    Type
REMARK                         _______ _______ _______ _____ _____    ______ ____
ROOT
ATOM      1  C   UNL     1       8.653  -6.261  -0.059  0.00  0.00    +0.241 C 
ATOM      2  N   UNL     1       7.873  -6.747  -1.209  0.00  0.00    -0.237 N 
ATOM      3  N   UNL     1       7.231  -7.917  -0.788  0.00  0.00    -0.169 NA
ATOM      4  C   UNL     1       7.520  -8.197   0.455  0.00  0.00    +0.151 C 
ATOM      5  N   UNL     1       8.389  -7.246   1.004  0.00  0.00    -0.254 N 
ATOM      6  H   UNL     1       7.815  -6.336  -2.086  0.00  0.00    +0.171 HD
ENDROOT
BRANCH   4   7
ATOM      7  C   UNL     1       7.025  -9.310   1.152  0.00  0.00    +0.022 C 
ATOM      8  C   UNL     1       6.243 -10.346   0.640  0.00  0.00    +0.006 A 
ATOM      9  C   UNL     1       5.727 -10.604  -0.648  0.00  0.00    +0.010 A 
ATOM     10  C   UNL     1       4.980 -11.717  -0.864  0.00  0.00    +0.001 A 
ATOM     11  C   UNL     1       4.704 -12.623   0.163  0.00  0.00    +0.002 A 
ATOM     12  C   UNL     1       5.167 -12.438   1.424  0.00  0.00    +0.026 A 
ATOM     13  C   UNL     1       5.955 -11.298   1.726  0.00  0.00    +0.043 A 
ATOM     14  N   UNL     1       6.514 -10.897   2.851  0.00  0.00    -0.380 N 
ATOM     15  C   UNL     1       7.232  -9.640   2.614  0.00  0.00    +0.152 C 
ATOM     16  H   UNL     1       6.462 -11.361   3.700  0.00  0.00    +0.160 HD
ENDBRANCH   4   7
BRANCH   5  17
ATOM     17  C   UNL     1       8.905  -7.232   2.302  0.00  0.00    +0.038 A 
ATOM     18  C   UNL     1      10.132  -7.825   2.570  0.00  0.00    +0.023 A 
ATOM     19  C   UNL     1      10.639  -7.809   3.855  0.00  0.00    +0.002 A 
ATOM     20  C   UNL     1       9.926  -7.203   4.873  0.00  0.00    +0.000 A 
ATOM     21  C   UNL     1       8.705  -6.611   4.610  0.00  0.00    +0.002 A 
ATOM     22  C   UNL     1       8.194  -6.619   3.326  0.00  0.00    +0.023 A 
ENDBRANCH   5  17
BRANCH   1  23
ATOM     23  S   UNL     1       8.082  -4.615   0.446  0.00  0.00    -0.110 S 
BRANCH  23  24
ATOM     24  C   UNL     1       6.314  -4.848   0.784  0.00  0.00    +0.152 C 
BRANCH  24  25
ATOM     25  C   UNL     1       5.709  -3.539   1.218  0.00  0.00    +0.173 C 
ATOM     26  O   UNL     1       6.402  -2.546   1.294  0.00  0.00    -0.291 OA
BRANCH  25  30
ATOM     27  C   UNL     1       1.586  -3.325   2.179  0.00  0.00    -0.018 A 
ATOM     28  C   UNL     1       2.382  -2.182   2.266  0.00  0.00    +0.009 A 
ATOM     29  C   UNL     1       3.716  -2.248   1.956  0.00  0.00    +0.012 A 
ATOM     30  C   UNL     1       4.279  -3.465   1.552  0.00  0.00    +0.018 A 
ATOM     31  C   UNL     1       3.479  -4.610   1.465  0.00  0.00    +0.012 A 
ATOM     32  C   UNL     1       2.147  -4.540   1.782  0.00  0.00    +0.009 A 
BRANCH  27  36
ATOM     33  C   UNL     1      -2.549  -3.111   3.143  0.00  0.00    +0.000 A 
ATOM     34  C   UNL     1      -1.762  -1.975   3.224  0.00  0.00    +0.001 A 
ATOM     35  C   UNL     1      -0.420  -2.039   2.913  0.00  0.00    +0.008 A 
ATOM     36  C   UNL     1       0.144  -3.250   2.515  0.00  0.00    -0.018 A 
ATOM     37  C   UNL     1      -0.653  -4.391   2.435  0.00  0.00    +0.008 A 
ATOM     38  C   UNL     1      -1.995  -4.315   2.748  0.00  0.00    +0.001 A 
ENDBRANCH  27  36
ENDBRANCH  25  30
ENDBRANCH  24  25
ENDBRANCH  23  24
ENDBRANCH   1  23
TORSDOF 7
