REMARK  Name = ZINC20102257
REMARK  15 active torsions:
REMARK  status: ('A' for Active; 'I' for Inactive)
REMARK    1  A    between atoms: C_1  and  C_2
REMARK    2  A    between atoms: C_2  and  O_3
REMARK    3  A    between atoms: O_3  and  C_4
REMARK    4  A    between atoms: C_4  and  C_6
REMARK    5  A    between atoms: C_6  and  S_7
REMARK    6  A    between atoms: S_7  and  C_8
REMARK    7  A    between atoms: C_9  and  C_31
REMARK    8  A    between atoms: C_10  and  C_22
REMARK    9  A    between atoms: C_13  and  O_15
REMARK   10  A    between atoms: O_15  and  C_16
REMARK   11  A    between atoms: C_16  and  C_17
REMARK   12  A    between atoms: C_19  and  C_21
REMARK   13  A    between atoms: C_25  and  O_30
REMARK   14  A    between atoms: C_26  and  O_28
REMARK   15  A    between atoms: O_28  and  C_29
REMARK                            x       y       z     vdW  Elec       q    Type
REMARK                         _______ _______ _______ _____ _____    ______ ____
ROOT
ATOM      1  C   UNL     1       2.302  -4.761   3.873  0.00  0.00    +0.112 C 
ATOM      2  C   UNL     1       2.554  -6.101   4.124  0.00  0.00    +0.073 C 
ATOM      3  C   UNL     1       3.360  -6.440   5.365  0.00  0.00    +0.101 C 
ATOM      4  C   UNL     1       3.810  -5.260   6.207  0.00  0.00    +0.070 C 
ATOM      5  C   UNL     1       4.541  -5.439   7.346  0.00  0.00    +0.338 C 
ATOM      6  O   UNL     1       5.029  -4.371   8.008  0.00  0.00    -0.245 OA
ATOM      7  C   UNL     1       3.445  -3.982   5.770  0.00  0.00    +0.050 C 
ATOM      8  N   UNL     1       2.749  -3.795   4.678  0.00  0.00    -0.244 NA
ATOM      9  C   UNL     1       3.872  -2.785   6.580  0.00  0.00    +0.066 C 
ENDROOT
BRANCH   3  10
ATOM     10  C   UNL     1       4.588  -7.201   4.934  0.00  0.00    -0.031 A 
ATOM     11  C   UNL     1       5.498  -6.612   4.077  0.00  0.00    +0.008 A 
ATOM     12  C   UNL     1       6.626  -7.306   3.679  0.00  0.00    +0.049 A 
ATOM     13  C   UNL     1       6.846  -8.594   4.141  0.00  0.00    +0.158 A 
ATOM     14  C   UNL     1       5.930  -9.186   5.005  0.00  0.00    +0.162 A 
ATOM     15  C   UNL     1       4.804  -8.483   5.403  0.00  0.00    +0.054 A 
BRANCH  14  16
ATOM     16  O   UNL     1       6.142 -10.449   5.460  0.00  0.00    -0.491 OA
ATOM     17  C   UNL     1       5.160 -10.993   6.344  0.00  0.00    +0.277 C 
ENDBRANCH  14  16
BRANCH  13  18
ATOM     18  O   UNL     1       7.955  -9.277   3.750  0.00  0.00    -0.503 OA
ATOM     19  H   UNL     1       8.719  -9.151   4.329  0.00  0.00    +0.292 HD
ENDBRANCH  13  18
ENDBRANCH   3  10
BRANCH   2  20
ATOM     20  C   UNL     1       2.071  -7.125   3.247  0.00  0.00    +0.098 C 
ATOM     21  N   UNL     1       1.689  -7.938   2.552  0.00  0.00    -0.191 NA
ENDBRANCH   2  20
BRANCH   1  22
ATOM     22  S   UNL     1       1.370  -4.319   2.444  0.00  0.00    -0.094 S 
BRANCH  22  23
ATOM     23  C   UNL     1       1.296  -2.508   2.511  0.00  0.00    +0.196 C 
BRANCH  23  24
ATOM     24  C   UNL     1       0.515  -1.994   1.329  0.00  0.00    +0.317 C 
ATOM     25  O   UNL     1       0.056  -2.770   0.524  0.00  0.00    -0.250 OA
BRANCH  24  26
ATOM     26  O   UNL     1       0.330  -0.674   1.170  0.00  0.00    -0.464 OA
BRANCH  26  28
ATOM     27  C   UNL     1      -0.525   1.269   0.016  0.00  0.00    +0.048 C 
ATOM     28  C   UNL     1      -0.420  -0.257   0.027  0.00  0.00    +0.229 C 
ENDBRANCH  26  28
ENDBRANCH  24  26
ENDBRANCH  23  24
ENDBRANCH  22  23
ENDBRANCH   1  22
BRANCH   5  29
ATOM     29  O   UNL     1       4.775  -6.684   7.808  0.00  0.00    -0.457 OA
BRANCH  29  30
ATOM     30  C   UNL     1       5.548  -6.796   9.005  0.00  0.00    +0.259 C 
BRANCH  30  31
ATOM     31  C   UNL     1       5.705  -8.251   9.366  0.00  0.00    +0.006 C 
ATOM     32  C   UNL     1       6.875  -8.713   9.731  0.00  0.00    +0.007 C 
ENDBRANCH  30  31
ENDBRANCH  29  30
ENDBRANCH   5  29
TORSDOF 12
