REMARK  Name = ZINC38549713
REMARK  4 active torsions:
REMARK  status: ('A' for Active; 'I' for Inactive)
REMARK    1  A    between atoms: C_1  and  O_2
REMARK    2  A    between atoms: O_2  and  C_3
REMARK    3  A    between atoms: C_8  and  N_9
REMARK    4  A    between atoms: N_9  and  C_10
REMARK                            x       y       z     vdW  Elec       q    Type
REMARK                         _______ _______ _______ _____ _____    ______ ____
ROOT
ATOM      1  C   UNL     1       0.156  -4.239  -0.192  0.00  0.00    +0.189 C 
ATOM      2  C   UNL     1       0.157  -4.783   1.222  0.00  0.00    -0.001 C 
ATOM      3  C   UNL     1      -0.862  -5.659   1.562  0.00  0.00    +0.013 A 
ATOM      4  C   UNL     1      -0.936  -6.232   2.907  0.00  0.00    +0.032 A 
ATOM      5  C   UNL     1      -1.963  -7.102   3.212  0.00  0.00    +0.012 A 
ATOM      6  C   UNL     1      -2.922  -7.434   2.251  0.00  0.00    +0.003 A 
ATOM      7  C   UNL     1      -2.901  -6.933   0.991  0.00  0.00    +0.024 A 
ATOM      8  C   UNL     1      -1.888  -6.032   0.581  0.00  0.00    +0.042 A 
ATOM      9  N   UNL     1      -1.877  -5.547  -0.657  0.00  0.00    -0.283 N 
ATOM     10  C   UNL     1      -0.959  -4.703  -1.104  0.00  0.00    +0.242 C 
ATOM     11  O   UNL     1      -1.013  -4.300  -2.250  0.00  0.00    -0.273 OA
ATOM     12  C   UNL     1       0.096  -5.857   3.893  0.00  0.00    +0.194 C 
ATOM     13  O   UNL     1       0.076  -6.306   5.023  0.00  0.00    -0.287 OA
ATOM     14  C   UNL     1       1.155  -4.916   3.464  0.00  0.00    +0.030 A 
ATOM     15  C   UNL     1       1.155  -4.407   2.146  0.00  0.00    -0.008 A 
ATOM     16  C   UNL     1       2.168  -3.516   1.758  0.00  0.00    +0.009 A 
ATOM     17  C   UNL     1       3.145  -3.148   2.661  0.00  0.00    +0.001 A 
ATOM     18  C   UNL     1       3.139  -3.650   3.950  0.00  0.00    +0.001 A 
ATOM     19  C   UNL     1       2.150  -4.532   4.355  0.00  0.00    +0.012 A 
ATOM     20  H   UNL     1      -2.578  -5.826  -1.266  0.00  0.00    +0.155 HD
ENDROOT
BRANCH   1  21
ATOM     21  N   UNL     1       0.097  -2.777  -0.113  0.00  0.00    -0.327 N 
ATOM     22  H   UNL     1      -0.334  -2.349   0.643  0.00  0.00    +0.147 HD
BRANCH  21  28
ATOM     23  C   UNL     1       0.606  -0.608  -1.057  0.00  0.00    +0.141 A 
ATOM     24  C   UNL     1       1.173   0.158  -2.062  0.00  0.00    +0.047 A 
ATOM     25  C   UNL     1       1.786  -0.457  -3.138  0.00  0.00    +0.004 A 
ATOM     26  C   UNL     1       1.837  -1.836  -3.214  0.00  0.00    +0.002 A 
ATOM     27  C   UNL     1       1.274  -2.608  -2.214  0.00  0.00    +0.026 A 
ATOM     28  C   UNL     1       0.662  -1.998  -1.129  0.00  0.00    +0.070 A 
BRANCH  23  30
ATOM     29  C   UNL     1      -0.017   1.425   0.010  0.00  0.00    +0.277 C 
ATOM     30  O   UNL     1       0.002  -0.004   0.002  0.00  0.00    -0.493 OA
ENDBRANCH  23  30
ENDBRANCH  21  28
ENDBRANCH   1  21
TORSDOF 3
