REMARK  Name = ZINC08712199
REMARK  10 active torsions:
REMARK  status: ('A' for Active; 'I' for Inactive)
REMARK    1  A    between atoms: C_1  and  C_2
REMARK    2  A    between atoms: C_6  and  C_36
REMARK    3  A    between atoms: C_7  and  N_8
REMARK    4  A    between atoms: C_9  and  C_13
REMARK    5  A    between atoms: C_13  and  C_15
REMARK    6  A    between atoms: C_13  and  N_64
REMARK    7  A    between atoms: C_22  and  C_23
REMARK    8  A    between atoms: C_22  and  N_64
REMARK    9  A    between atoms: C_29  and  C_30
REMARK   10  A    between atoms: C_29  and  N_64
REMARK                            x       y       z     vdW  Elec       q    Type
REMARK                         _______ _______ _______ _____ _____    ______ ____
ROOT
ATOM      1  C   UNL     1      -2.661   6.399  -0.255  0.00  0.00    +0.035 C 
ENDROOT
BRANCH   1   2
ATOM      2  C   UNL     1      -3.709   5.909  -1.220  0.00  0.00    -0.054 A 
ATOM      3  C   UNL     1      -4.876   6.629  -1.397  0.00  0.00    +0.004 A 
ATOM      4  C   UNL     1      -5.836   6.183  -2.286  0.00  0.00    +0.020 A 
ATOM      5  C   UNL     1      -5.633   5.010  -2.992  0.00  0.00    +0.041 A 
ATOM      6  C   UNL     1      -4.467   4.287  -2.810  0.00  0.00    +0.020 A 
ATOM      7  C   UNL     1      -3.506   4.737  -1.925  0.00  0.00    +0.004 A 
ATOM      8 CL   UNL     1      -6.841   4.446  -4.103  0.00  0.00    -0.084 Cl
ENDBRANCH   1   2
BRANCH   1  10
ATOM      9  N   UNL     1      -1.232   7.742  -1.887  0.00  0.00    -0.198 N 
ATOM     10  C   UNL     1      -2.026   7.653  -0.797  0.00  0.00    +0.148 A 
ATOM     11  N   UNL     1      -2.140   8.857  -0.301  0.00  0.00    -0.114 NA
ATOM     12  N   UNL     1      -1.474   9.702  -1.002  0.00  0.00    -0.023 NA
ATOM     13  N   UNL     1      -0.887   9.102  -1.982  0.00  0.00    -0.039 NA
BRANCH   9  20
ATOM     14  C   UNL     1       0.730   5.909  -0.943  0.00  0.00    +0.046 C 
ATOM     15  C   UNL     1       0.121   5.786  -2.316  0.00  0.00    -0.025 A 
ATOM     16  C   UNL     1       0.512   4.761  -3.156  0.00  0.00    +0.005 A 
ATOM     17  C   UNL     1      -0.046   4.647  -4.416  0.00  0.00    +0.001 A 
ATOM     18  C   UNL     1      -0.993   5.561  -4.841  0.00  0.00    +0.005 A 
ATOM     19  C   UNL     1      -1.392   6.584  -4.003  0.00  0.00    -0.025 A 
ATOM     20  C   UNL     1      -0.834   6.701  -2.738  0.00  0.00    +0.075 A 
ATOM     21  C   UNL     1      -2.429   7.576  -4.465  0.00  0.00    +0.046 C 
ENDBRANCH   9  20
ENDBRANCH   1  10
BRANCH   1  22
ATOM     22  N   UNL     1      -3.300   6.713   1.040  0.00  0.00    +0.394 N 
ATOM     23  H   UNL     1      -3.789   7.613   0.960  0.00  0.00    -0.079 HD
BRANCH  22  24
ATOM     24  C   UNL     1      -4.280   5.663   1.387  0.00  0.00    -0.041 C 
BRANCH  24  25
ATOM     25  C   UNL     1      -5.070   6.114   2.589  0.00  0.00    -0.064 A 
ATOM     26  C   UNL     1      -4.640   5.788   3.861  0.00  0.00    +0.002 A 
ATOM     27  C   UNL     1      -5.362   6.206   4.964  0.00  0.00    +0.000 A 
ATOM     28  C   UNL     1      -6.520   6.941   4.793  0.00  0.00    +0.000 A 
ATOM     29  C   UNL     1      -6.953   7.263   3.521  0.00  0.00    +0.000 A 
ATOM     30  C   UNL     1      -6.229   6.849   2.418  0.00  0.00    +0.002 A 
ENDBRANCH  24  25
ENDBRANCH  22  24
BRANCH  22  31
ATOM     31  C   UNL     1      -2.274   6.817   2.098  0.00  0.00    -0.041 C 
BRANCH  31  32
ATOM     32  C   UNL     1      -1.613   8.168   1.999  0.00  0.00    -0.064 A 
ATOM     33  C   UNL     1      -0.350   8.281   1.449  0.00  0.00    +0.002 A 
ATOM     34  C   UNL     1       0.254   9.521   1.353  0.00  0.00    +0.000 A 
ATOM     35  C   UNL     1      -0.401  10.646   1.817  0.00  0.00    +0.000 A 
ATOM     36  C   UNL     1      -1.662  10.532   2.373  0.00  0.00    +0.000 A 
ATOM     37  C   UNL     1      -2.268   9.293   2.463  0.00  0.00    +0.002 A 
ENDBRANCH  31  32
ENDBRANCH  22  31
ENDBRANCH   1  22
TORSDOF 8
