REMARK  Name = ZINC48743433
REMARK  6 active torsions:
REMARK  status: ('A' for Active; 'I' for Inactive)
REMARK    1  A    between atoms: C_1  and  C_2
REMARK    2  A    between atoms: C_4  and  C_22
REMARK    3  A    between atoms: C_8  and  N_13
REMARK    4  A    between atoms: N_13  and  C_14
REMARK    5  A    between atoms: C_14  and  C_16
REMARK    6  A    between atoms: C_14  and  C_17
REMARK                            x       y       z     vdW  Elec       q    Type
REMARK                         _______ _______ _______ _____ _____    ______ ____
ROOT
ATOM      1  C   UNL     1      -0.018   1.503   0.010  0.00  0.00    +0.044 C 
ATOM      2  C   UNL     1       0.002  -0.004   0.002  0.00  0.00    -0.050 A 
ATOM      3  C   UNL     1       0.006  -0.691  -1.198  0.00  0.00    +0.008 A 
ATOM      4  C   UNL     1       0.025  -2.070  -1.213  0.00  0.00    -0.029 A 
ATOM      5  C   UNL     1       0.040  -2.782  -0.015  0.00  0.00    +0.038 A 
ATOM      6  C   UNL     1       0.037  -2.081   1.184  0.00  0.00    -0.031 A 
ATOM      7  C   UNL     1       0.023  -0.704   1.196  0.00  0.00    +0.007 A 
ATOM      8  C   UNL     1       0.056  -3.118   2.283  0.00  0.00    +0.050 C 
ATOM      9  C   UNL     1       0.071  -4.439   1.543  0.00  0.00    +0.208 C 
ATOM     10  O   UNL     1       0.088  -5.544   2.042  0.00  0.00    -0.277 OA
ATOM     11  N   UNL     1       0.060  -4.156   0.229  0.00  0.00    -0.286 N 
ATOM     12  C   UNL     1       0.028  -2.808  -2.527  0.00  0.00    +0.045 C 
ATOM     13  H   UNL     1       0.066  -4.829  -0.469  0.00  0.00    +0.155 HD
ENDROOT
BRANCH   8  14
ATOM     14  N   UNL     1       1.265  -2.973   3.106  0.00  0.00    +0.396 N 
ATOM     15  H   UNL     1       2.079  -3.174   2.546  0.00  0.00    -0.083 HD
ATOM     16  H   UNL     1       1.322  -2.028   3.456  0.00  0.00    -0.083 HD
BRANCH  14  17
ATOM     17  C   UNL     1       1.203  -3.910   4.236  0.00  0.00    -0.006 C 
ATOM     18  C   UNL     1       0.040  -3.528   5.153  0.00  0.00    -0.006 C 
BRANCH  17  19
ATOM     19  C   UNL     1       2.495  -3.849   5.010  0.00  0.00    +0.091 A 
ATOM     20  C   UNL     1       3.148  -4.902   5.534  0.00  0.00    +0.043 A 
ATOM     21  C   UNL     1       4.303  -4.392   6.170  0.00  0.00    +0.041 A 
ATOM     22  C   UNL     1       4.286  -3.058   5.997  0.00  0.00    +0.195 A 
ATOM     23  O   UNL     1       3.192  -2.736   5.288  0.00  0.00    -0.469 OA
ENDBRANCH  17  19
ENDBRANCH  14  17
ENDBRANCH   8  14
TORSDOF 3
