REMARK  Name = ZINC39669793
REMARK  9 active torsions:
REMARK  status: ('A' for Active; 'I' for Inactive)
REMARK    1  A    between atoms: C_1  and  C_2
REMARK    2  A    between atoms: C_3  and  C_13
REMARK    3  A    between atoms: C_4  and  C_7
REMARK    4  A    between atoms: C_17  and  C_26
REMARK    5  A    between atoms: N_28  and  C_29
REMARK    6  A    between atoms: C_29  and  C_30
REMARK    7  A    between atoms: C_30  and  C_31
REMARK    8  A    between atoms: C_30  and  C_32
REMARK    9  A    between atoms: C_30  and  N_33
REMARK                            x       y       z     vdW  Elec       q    Type
REMARK                         _______ _______ _______ _____ _____    ______ ____
ROOT
ATOM      1  C   UNL     1      -2.187  -0.944   0.900  0.00  0.00    +0.252 C 
ATOM      2  O   UNL     1      -2.922  -1.026  -0.066  0.00  0.00    -0.270 OA
ATOM      3  N   UNL     1      -2.685  -0.566   2.094  0.00  0.00    -0.296 N 
ATOM      4  C   UNL     1      -1.939  -0.314   3.350  0.00  0.00    +0.121 C 
ATOM      5  C   UNL     1      -2.631   0.919   3.973  0.00  0.00    +0.100 C 
ATOM      6  C   UNL     1      -4.050   0.915   3.379  0.00  0.00    -0.004 C 
ATOM      7  C   UNL     1      -4.101  -0.304   2.446  0.00  0.00    +0.115 C 
ATOM      8  C   UNL     1      -4.292   2.193   2.582  0.00  0.00    -0.010 C 
ATOM      9  C   UNL     1      -5.728   2.192   2.049  0.00  0.00    -0.082 C 
ATOM     10  N   UNL     1      -6.668   2.106   3.173  0.00  0.00    +0.379 N 
ATOM     11  C   UNL     1      -6.491   0.832   3.879  0.00  0.00    -0.082 C 
ATOM     12  C   UNL     1      -5.087   0.776   4.489  0.00  0.00    -0.010 C 
ATOM     13  H   UNL     1      -6.498   2.870   3.810  0.00  0.00    -0.086 HD
ATOM     14  H   UNL     1      -7.613   2.167   2.824  0.00  0.00    -0.086 HD
ENDROOT
BRANCH   1  17
ATOM     15  C   UNL     1       0.040   1.038  -0.038  0.00  0.00    +0.090 C 
ATOM     16  C   UNL     1       0.229  -0.404   0.357  0.00  0.00    +0.147 A 
ATOM     17  C   UNL     1      -0.754  -1.256   0.764  0.00  0.00    +0.106 A 
ATOM     18  C   UNL     1      -0.108  -2.548   1.042  0.00  0.00    +0.126 A 
ATOM     19  N   UNL     1       1.168  -2.395   0.795  0.00  0.00    -0.077 NA
ATOM     20  O   UNL     1       1.388  -1.067   0.362  0.00  0.00    -0.359 OA
BRANCH  18  21
ATOM     21  C   UNL     1      -0.775  -3.786   1.513  0.00  0.00    +0.004 A 
ATOM     22  C   UNL     1      -1.858  -3.708   2.386  0.00  0.00    +0.010 A 
ATOM     23  C   UNL     1      -2.475  -4.864   2.821  0.00  0.00    +0.001 A 
ATOM     24  C   UNL     1      -2.020  -6.097   2.392  0.00  0.00    +0.000 A 
ATOM     25  C   UNL     1      -0.944  -6.181   1.526  0.00  0.00    +0.001 A 
ATOM     26  C   UNL     1      -0.324  -5.031   1.080  0.00  0.00    +0.010 A 
ENDBRANCH  18  21
ENDBRANCH   1  17
BRANCH   5  27
ATOM     27  C   UNL     1      -1.902   2.180   3.588  0.00  0.00    +0.218 C 
ATOM     28  O   UNL     1      -1.263   2.221   2.558  0.00  0.00    -0.275 OA
ATOM     29  N   UNL     1      -1.961   3.264   4.388  0.00  0.00    -0.313 N 
ATOM     30  H   UNL     1      -2.472   3.231   5.212  0.00  0.00    +0.149 HD
BRANCH  29  31
ATOM     31  C   UNL     1      -1.252   4.490   4.014  0.00  0.00    +0.126 C 
BRANCH  31  32
ATOM     32  C   UNL     1      -1.370   5.513   5.146  0.00  0.00    +0.032 C 
ATOM     33  C   UNL     1      -0.624   4.997   6.378  0.00  0.00    +0.029 C 
ATOM     34  C   UNL     1      -0.758   6.842   4.698  0.00  0.00    +0.029 C 
BRANCH  32  35
ATOM     35  N   UNL     1      -2.787   5.713   5.479  0.00  0.00    -0.291 NA
ATOM     36  C   UNL     1      -3.553   6.129   4.295  0.00  0.00    +0.113 C 
ATOM     37  C   UNL     1      -5.030   6.269   4.673  0.00  0.00    +0.175 C 
ATOM     38  O   UNL     1      -5.155   7.198   5.753  0.00  0.00    -0.377 OA
ATOM     39  C   UNL     1      -4.422   6.823   6.923  0.00  0.00    +0.175 C 
ATOM     40  C   UNL     1      -2.938   6.689   6.568  0.00  0.00    +0.113 C 
ENDBRANCH  32  35
ENDBRANCH  31  32
ENDBRANCH  29  31
ENDBRANCH   5  27
TORSDOF 6
