REMARK  Name = ZINC37006610
REMARK  10 active torsions:
REMARK  status: ('A' for Active; 'I' for Inactive)
REMARK    1  A    between atoms: C_1  and  C_2
REMARK    2  A    between atoms: C_5  and  C_41
REMARK    3  A    between atoms: N_8  and  C_10
REMARK    4  A    between atoms: C_10  and  C_11
REMARK    5  A    between atoms: C_11  and  C_12
REMARK    6  A    between atoms: C_12  and  N_13
REMARK    7  A    between atoms: C_14  and  C_16
REMARK    8  A    between atoms: C_16  and  C_40
REMARK    9  A    between atoms: N_29  and  C_30
REMARK   10  A    between atoms: C_30  and  C_31
REMARK                            x       y       z     vdW  Elec       q    Type
REMARK                         _______ _______ _______ _____ _____    ______ ____
ROOT
ATOM      1  C   UNL     1       7.354  -2.175   3.962  0.00  0.00    +0.129 C 
ATOM      2  C   UNL     1       7.993  -2.386   5.334  0.00  0.00    +0.157 C 
ATOM      3  N   UNL     1       7.750  -1.203   6.168  0.00  0.00    -0.334 N 
ATOM      4  C   UNL     1       7.621  -1.092   7.512  0.00  0.00    +0.050 A 
ATOM      5  C   UNL     1       7.656  -2.036   8.539  0.00  0.00    +0.026 A 
ATOM      6  C   UNL     1       7.489  -1.569   9.829  0.00  0.00    +0.002 A 
ATOM      7  C   UNL     1       7.294  -0.226  10.111  0.00  0.00    +0.001 A 
ATOM      8  C   UNL     1       7.253   0.727   9.127  0.00  0.00    +0.010 A 
ATOM      9  C   UNL     1       7.419   0.285   7.806  0.00  0.00    +0.001 A 
ATOM     10  C   UNL     1       7.426   0.979   6.582  0.00  0.00    +0.041 A 
ATOM     11  C   UNL     1       7.619   0.069   5.605  0.00  0.00    +0.106 A 
ATOM     12  C   UNL     1       7.686   0.253   4.144  0.00  0.00    +0.264 C 
ATOM     13  O   UNL     1       7.751   1.359   3.640  0.00  0.00    -0.268 OA
ATOM     14  N   UNL     1       7.671  -0.872   3.391  0.00  0.00    -0.276 N 
ATOM     15  C   UNL     1       7.856  -3.266   3.014  0.00  0.00    +0.043 C 
ENDROOT
BRANCH   1  17
ATOM     16  N   UNL     1       5.051  -1.765   3.158  0.00  0.00    -0.314 N 
ATOM     17  C   UNL     1       5.858  -2.298   4.097  0.00  0.00    +0.238 C 
ATOM     18  O   UNL     1       5.381  -2.876   5.050  0.00  0.00    -0.273 OA
ATOM     19  H   UNL     1       5.433  -1.368   2.359  0.00  0.00    +0.149 HD
BRANCH  16  20
ATOM     20  C   UNL     1       3.598  -1.786   3.344  0.00  0.00    +0.102 C 
BRANCH  20  21
ATOM     21  C   UNL     1       2.916  -1.234   2.090  0.00  0.00    +0.000 C 
BRANCH  21  22
ATOM     22  C   UNL     1       1.399  -1.368   2.235  0.00  0.00    -0.077 C 
BRANCH  22  28
ATOM     23  C   UNL     1       0.669   2.645  -0.473  0.00  0.00    +0.005 C 
ATOM     24  C   UNL     1       0.395   1.143  -0.367  0.00  0.00    -0.031 C 
ATOM     25  C   UNL     1      -1.116   0.899  -0.352  0.00  0.00    +0.003 C 
ATOM     26  C   UNL     1      -1.379  -0.599  -0.168  0.00  0.00    -0.031 C 
ATOM     27  C   UNL     1      -0.702  -1.075   1.119  0.00  0.00    -0.076 C 
ATOM     28  N   UNL     1       0.744  -0.838   1.031  0.00  0.00    +0.380 N 
ATOM     29  C   UNL     1       1.008   0.602   0.926  0.00  0.00    -0.076 C 
ATOM     30  C   UNL     1      -2.887  -0.845  -0.074  0.00  0.00    +0.005 C 
ATOM     31  H   UNL     1       1.112  -1.306   0.217  0.00  0.00    -0.082 HD
ENDBRANCH  22  28
ENDBRANCH  21  22
ENDBRANCH  20  21
ENDBRANCH  16  20
ENDBRANCH   1  17
BRANCH  14  32
ATOM     32  C   UNL     1       7.982  -0.777   1.963  0.00  0.00    +0.144 C 
BRANCH  32  33
ATOM     33  C   UNL     1       9.476  -0.803   1.771  0.00  0.00    -0.026 A 
ATOM     34  C   UNL     1      10.210   0.360   1.909  0.00  0.00    +0.009 A 
ATOM     35  C   UNL     1      11.582   0.341   1.735  0.00  0.00    +0.050 A 
ATOM     36  C   UNL     1      12.224  -0.846   1.421  0.00  0.00    +0.166 A 
ATOM     37  C   UNL     1      11.485  -2.018   1.282  0.00  0.00    +0.167 A 
ATOM     38  C   UNL     1      10.111  -1.992   1.464  0.00  0.00    +0.054 A 
ATOM     39  O   UNL     1      12.338  -3.038   0.974  0.00  0.00    -0.453 OA
ATOM     40  C   UNL     1      13.550  -2.404   0.525  0.00  0.00    +0.466 C 
ATOM     41  O   UNL     1      13.540  -1.132   1.200  0.00  0.00    -0.453 OA
ENDBRANCH  32  33
ENDBRANCH  14  32
TORSDOF 7
