REMARK  Name = ZINC39946478
REMARK  5 active torsions:
REMARK  status: ('A' for Active; 'I' for Inactive)
REMARK    1  A    between atoms: C_1  and  N_2
REMARK    2  A    between atoms: N_4  and  N_21
REMARK    3  A    between atoms: C_5  and  C_9
REMARK    4  A    between atoms: C_12  and  C_15
REMARK    5  A    between atoms: C_22  and  C_23
REMARK                            x       y       z     vdW  Elec       q    Type
REMARK                         _______ _______ _______ _____ _____    ______ ____
ROOT
ATOM      1  C   UNL     1      -0.042   1.465   0.038  0.00  0.00    +0.141 C 
ATOM      2  N   UNL     1      -0.015   0.001   0.019  0.00  0.00    -0.369 N 
ATOM      3  C   UNL     1       0.579  -0.653   0.978  0.00  0.00    +0.151 C 
ATOM      4  N   UNL     1       0.627  -2.020   1.172  0.00  0.00    -0.195 N 
ATOM      5  C   UNL     1       1.624  -2.573   2.067  0.00  0.00    +0.140 C 
ATOM      6  C   UNL     1       2.510  -1.492   2.728  0.00  0.00    +0.106 C 
ATOM      7  S   UNL     1       1.527   0.013   2.338  0.00  0.00    -0.089 S 
ATOM      8  H   UNL     1      -0.440  -0.483  -0.706  0.00  0.00    +0.161 HD
ENDROOT
BRANCH   5   9
ATOM      9  C   UNL     1       2.510  -3.510   1.287  0.00  0.00    -0.024 A 
ATOM     10  C   UNL     1       2.909  -3.175   0.006  0.00  0.00    +0.006 A 
ATOM     11  C   UNL     1       3.720  -4.029  -0.713  0.00  0.00    +0.009 A 
ATOM     12  C   UNL     1       4.137  -5.232  -0.146  0.00  0.00    -0.018 A 
ATOM     13  C   UNL     1       3.732  -5.565   1.144  0.00  0.00    +0.009 A 
ATOM     14  C   UNL     1       2.925  -4.700   1.857  0.00  0.00    +0.006 A 
BRANCH  12  15
ATOM     15  C   UNL     1       5.008  -6.155  -0.915  0.00  0.00    -0.018 A 
ATOM     16  C   UNL     1       5.418  -5.819  -2.204  0.00  0.00    +0.008 A 
ATOM     17  C   UNL     1       6.229  -6.681  -2.914  0.00  0.00    +0.001 A 
ATOM     18  C   UNL     1       6.635  -7.876  -2.348  0.00  0.00    +0.000 A 
ATOM     19  C   UNL     1       6.231  -8.215  -1.069  0.00  0.00    +0.001 A 
ATOM     20  C   UNL     1       5.425  -7.357  -0.348  0.00  0.00    +0.008 A 
ENDBRANCH  12  15
ENDBRANCH   5   9
BRANCH   4  21
ATOM     21  N   UNL     1      -0.279  -2.861   0.512  0.00  0.00    -0.185 NA
ATOM     22  C   UNL     1      -0.300  -4.143   0.784  0.00  0.00    +0.136 C 
BRANCH  22  23
ATOM     23  C   UNL     1      -1.126  -5.001   0.050  0.00  0.00    +0.000 C 
ATOM     24  C   UNL     1      -1.271  -6.379   0.214  0.00  0.00    +0.004 A 
ATOM     25  C   UNL     1      -0.679  -7.300   1.106  0.00  0.00    +0.010 A 
ATOM     26  C   UNL     1      -1.015  -8.613   1.037  0.00  0.00    +0.001 A 
ATOM     27  C   UNL     1      -1.939  -9.085   0.101  0.00  0.00    +0.002 A 
ATOM     28  C   UNL     1      -2.545  -8.258  -0.785  0.00  0.00    +0.026 A 
ATOM     29  C   UNL     1      -2.245  -6.870  -0.775  0.00  0.00    +0.043 A 
ATOM     30  N   UNL     1      -2.690  -5.876  -1.516  0.00  0.00    -0.380 N 
ATOM     31  C   UNL     1      -2.056  -4.627  -1.084  0.00  0.00    +0.150 C 
ATOM     32  H   UNL     1      -3.338  -5.958  -2.233  0.00  0.00    +0.160 HD
ENDBRANCH  22  23
ENDBRANCH   4  21
TORSDOF 4
