REMARK  Name = ZINC13501120
REMARK  9 active torsions:
REMARK  status: ('A' for Active; 'I' for Inactive)
REMARK    1  A    between atoms: C_1  and  C_2
REMARK    2  A    between atoms: C_2  and  C_3
REMARK    3  A    between atoms: C_3  and  C_5
REMARK    4  A    between atoms: C_3  and  N_69
REMARK    5  A    between atoms: N_9  and  C_10
REMARK    6  A    between atoms: C_15  and  C_16
REMARK    7  A    between atoms: C_15  and  N_69
REMARK    8  A    between atoms: C_22  and  C_28
REMARK    9  A    between atoms: C_29  and  N_69
REMARK                            x       y       z     vdW  Elec       q    Type
REMARK                         _______ _______ _______ _____ _____    ______ ____
ROOT
ATOM      1  N   UNL     1      -3.448   0.599  -1.770  0.00  0.00    +0.391 N 
ATOM      2  H   UNL     1      -2.879   0.107  -2.469  0.00  0.00    -0.080 HD
ENDROOT
BRANCH   1   3
ATOM      3  C   UNL     1      -4.031   1.807  -2.389  0.00  0.00    -0.067 C 
ATOM      4  C   UNL     1      -5.301   1.423  -3.152  0.00  0.00    -0.015 C 
ATOM      5  C   UNL     1      -5.892   2.667  -3.817  0.00  0.00    -0.002 C 
ATOM      6  C   UNL     1      -4.871   3.259  -4.791  0.00  0.00    -0.000 C 
ATOM      7  C   UNL     1      -3.602   3.643  -4.029  0.00  0.00    -0.002 C 
ATOM      8  C   UNL     1      -3.010   2.398  -3.363  0.00  0.00    -0.015 C 
ENDBRANCH   1   3
BRANCH   1   9
ATOM      9  C   UNL     1      -4.524  -0.302  -1.307  0.00  0.00    +0.003 C 
BRANCH   9  10
ATOM     10  C   UNL     1      -3.967  -1.697  -1.187  0.00  0.00    +0.138 A 
ATOM     11  N   UNL     1      -2.840  -2.043  -0.614  0.00  0.00    -0.115 NA
ATOM     12  N   UNL     1      -2.718  -3.322  -0.717  0.00  0.00    -0.023 NA
ATOM     13  N   UNL     1      -3.738  -3.800  -1.339  0.00  0.00    -0.044 NA
ATOM     14  N   UNL     1      -4.534  -2.830  -1.641  0.00  0.00    -0.228 N 
BRANCH  14  15
ATOM     15  C   UNL     1      -5.811  -2.942  -2.349  0.00  0.00    +0.111 C 
ATOM     16  C   UNL     1      -6.761  -3.884  -1.581  0.00  0.00    +0.027 C 
ATOM     17  C   UNL     1      -7.516  -4.652  -2.695  0.00  0.00    +0.002 C 
ATOM     18  C   UNL     1      -6.417  -4.875  -3.763  0.00  0.00    +0.002 C 
ATOM     19  C   UNL     1      -5.593  -3.571  -3.736  0.00  0.00    +0.027 C 
ENDBRANCH  14  15
ENDBRANCH   9  10
BRANCH   9  21
ATOM     20  C   UNL     1      -5.800   1.480  -0.108  0.00  0.00    +0.002 C 
ATOM     21  C   UNL     1      -5.055   0.154   0.054  0.00  0.00    -0.011 C 
ENDBRANCH   9  21
ENDBRANCH   1   9
BRANCH   1  22
ATOM     22  C   UNL     1      -2.585   0.981  -0.632  0.00  0.00    -0.036 C 
BRANCH  22  23
ATOM     23  C   UNL     1      -1.298   1.552  -1.171  0.00  0.00    +0.001 A 
ATOM     24  C   UNL     1      -1.090   2.891  -1.143  0.00  0.00    +0.017 A 
ATOM     25  C   UNL     1       0.168   3.414  -1.680  0.00  0.00    -0.001 A 
ATOM     26  C   UNL     1       0.437   4.787  -1.683  0.00  0.00    +0.010 A 
ATOM     27  C   UNL     1       1.620   5.244  -2.192  0.00  0.00    +0.001 A 
ATOM     28  C   UNL     1       2.557   4.357  -2.705  0.00  0.00    +0.005 A 
ATOM     29  C   UNL     1       2.313   3.001  -2.712  0.00  0.00    -0.026 A 
ATOM     30  C   UNL     1       1.115   2.513  -2.199  0.00  0.00    +0.052 A 
ATOM     31  N   UNL     1       0.845   1.161  -2.194  0.00  0.00    -0.322 N 
ATOM     32  H   UNL     1       1.499   0.541  -2.553  0.00  0.00    +0.169 HD
ATOM     33  C   UNL     1      -0.313   0.690  -1.699  0.00  0.00    +0.251 A 
ATOM     34  O   UNL     1      -0.519  -0.511  -1.710  0.00  0.00    -0.268 OA
ATOM     35  C   UNL     1       3.339   2.050  -3.273  0.00  0.00    +0.046 C 
ENDBRANCH  22  23
ENDBRANCH   1  22
TORSDOF 7
