REMARK  Name = ZINC06062385
REMARK  9 active torsions:
REMARK  status: ('A' for Active; 'I' for Inactive)
REMARK    1  A    between atoms: C_1  and  C_2
REMARK    2  A    between atoms: C_2  and  C_3
REMARK    3  A    between atoms: C_3  and  C_4
REMARK    4  A    between atoms: C_4  and  N_5
REMARK    5  A    between atoms: N_5  and  C_6
REMARK    6  A    between atoms: C_14  and  C_16
REMARK    7  A    between atoms: C_16  and  O_17
REMARK    8  A    between atoms: O_17  and  C_18
REMARK    9  A    between atoms: C_21  and  N_25
REMARK                            x       y       z     vdW  Elec       q    Type
REMARK                         _______ _______ _______ _____ _____    ______ ____
ROOT
ATOM      1  N   UNL     1      -0.346   1.188  -2.438  0.00  0.00    -0.294 N 
ATOM      2  C   UNL     1      -0.816   1.493  -1.213  0.00  0.00    +0.253 C 
ATOM      3  O   UNL     1      -0.242   1.085  -0.225  0.00  0.00    -0.272 OA
ENDROOT
BRANCH   1   4
ATOM      4  C   UNL     1       0.790   0.274  -2.581  0.00  0.00    +0.099 C 
ATOM      5  C   UNL     1       0.455  -1.077  -1.927  0.00  0.00    +0.046 C 
ATOM      6  C   UNL     1       1.740  -1.929  -1.787  0.00  0.00    +0.168 C 
ATOM      7  S   UNL     1       3.057  -0.653  -1.651  0.00  0.00    -0.029 S 
ATOM      8  O   UNL     1       3.935  -0.775  -2.762  0.00  0.00    -0.174 OA
ATOM      9  O   UNL     1       3.590  -0.674  -0.334  0.00  0.00    -0.174 OA
ATOM     10  C   UNL     1       2.035   0.866  -1.860  0.00  0.00    +0.188 C 
ENDBRANCH   1   4
BRANCH   1  11
ATOM     11  C   UNL     1      -0.971   1.771  -3.628  0.00  0.00    +0.108 C 
BRANCH  11  12
ATOM     12  C   UNL     1      -0.279   3.092  -3.972  0.00  0.00    +0.019 C 
BRANCH  12  14
ATOM     13  C   UNL     1      -0.241   5.022  -5.559  0.00  0.00    +0.004 C 
ATOM     14  C   UNL     1      -0.932   3.701  -5.215  0.00  0.00    -0.002 C 
ENDBRANCH  12  14
ENDBRANCH  11  12
ENDBRANCH   1  11
BRANCH   2  15
ATOM     15  C   UNL     1      -2.053   2.341  -1.069  0.00  0.00    +0.324 C 
BRANCH  15  16
ATOM     16  O   UNL     1      -2.308   2.582   0.316  0.00  0.00    -0.481 OA
BRANCH  16  17
ATOM     17  C   UNL     1      -3.397   3.336   0.621  0.00  0.00    +0.140 A 
ATOM     18  C   UNL     1      -4.203   3.834  -0.392  0.00  0.00    +0.049 A 
ATOM     19  C   UNL     1      -5.309   4.600  -0.079  0.00  0.00    +0.036 A 
ATOM     20  C   UNL     1      -5.613   4.872   1.242  0.00  0.00    +0.128 A 
ATOM     21  C   UNL     1      -4.812   4.377   2.254  0.00  0.00    +0.056 A 
ATOM     22  C   UNL     1      -3.707   3.605   1.947  0.00  0.00    +0.085 A 
ATOM     23 CL   UNL     1      -2.704   2.978   3.218  0.00  0.00    -0.080 Cl
BRANCH  20  24
ATOM     24  N   UNL     1      -6.800   5.692   1.573  0.00  0.00    +0.056 N 
ATOM     25  O   UNL     1      -7.507   6.128   0.683  0.00  0.00    -0.126 OA
ATOM     26  O   UNL     1      -7.069   5.932   2.737  0.00  0.00    -0.126 OA
ENDBRANCH  20  24
ENDBRANCH  16  17
ENDBRANCH  15  16
ENDBRANCH   2  15
TORSDOF 8
