REMARK  Name = ZINC38884152
REMARK  10 active torsions:
REMARK  status: ('A' for Active; 'I' for Inactive)
REMARK    1  A    between atoms: C_1  and  C_2
REMARK    2  A    between atoms: C_7  and  O_8
REMARK    3  A    between atoms: O_8  and  C_9
REMARK    4  A    between atoms: C_9  and  C_10
REMARK    5  A    between atoms: C_10  and  C_12
REMARK    6  A    between atoms: C_10  and  N_13
REMARK    7  A    between atoms: C_14  and  C_16
REMARK    8  A    between atoms: N_19  and  C_22
REMARK    9  A    between atoms: C_22  and  C_23
REMARK   10  A    between atoms: C_25  and  C_28
REMARK                            x       y       z     vdW  Elec       q    Type
REMARK                         _______ _______ _______ _____ _____    ______ ____
ROOT
ATOM      1  C   UNL     1       3.036   2.162   6.011  0.00  0.00    +0.071 C 
ATOM      2  C   UNL     1       4.189   1.302   5.486  0.00  0.00    -0.006 C 
ATOM      3  C   UNL     1       5.496   2.091   5.589  0.00  0.00    -0.077 C 
ATOM      4  N   UNL     1       5.748   2.447   6.991  0.00  0.00    +0.386 N 
ATOM      5  C   UNL     1       4.683   3.331   7.479  0.00  0.00    -0.077 C 
ATOM      6  C   UNL     1       3.345   2.589   7.449  0.00  0.00    -0.006 C 
ATOM      7  H   UNL     1       5.770   1.608   7.551  0.00  0.00    -0.081 HD
ENDROOT
BRANCH   1   9
ATOM      8  N   UNL     1       1.289   0.881   4.818  0.00  0.00    -0.309 N 
ATOM      9  C   UNL     1       1.759   1.363   5.986  0.00  0.00    +0.216 C 
ATOM     10  O   UNL     1       1.153   1.155   7.016  0.00  0.00    -0.276 OA
ATOM     11  H   UNL     1       1.773   1.048   3.994  0.00  0.00    +0.149 HD
BRANCH   8  12
ATOM     12  C   UNL     1       0.047   0.104   4.793  0.00  0.00    +0.107 C 
ATOM     13  C   UNL     1      -1.148   1.056   4.712  0.00  0.00    +0.031 C 
BRANCH  12  14
ATOM     14  C   UNL     1       0.048  -0.820   3.574  0.00  0.00    +0.251 C 
BRANCH  14  15
ATOM     15  O   UNL     1       0.025  -0.033   2.381  0.00  0.00    -0.490 OA
BRANCH  15  22
ATOM     16  C   UNL     1      -0.018   1.503   0.010  0.00  0.00    +0.047 C 
ATOM     17  C   UNL     1       0.002  -0.004   0.002  0.00  0.00    -0.009 A 
ATOM     18  C   UNL     1       0.006  -0.689  -1.198  0.00  0.00    +0.007 A 
ATOM     19  C   UNL     1       0.024  -2.071  -1.206  0.00  0.00    +0.000 A 
ATOM     20  C   UNL     1       0.039  -2.772  -0.014  0.00  0.00    +0.004 A 
ATOM     21  C   UNL     1       0.036  -2.092   1.188  0.00  0.00    +0.046 A 
ATOM     22  C   UNL     1       0.023  -0.705   1.199  0.00  0.00    +0.123 A 
ENDBRANCH  15  22
ENDBRANCH  14  15
ENDBRANCH  12  14
ENDBRANCH   8  12
ENDBRANCH   1   9
BRANCH   4  23
ATOM     23  C   UNL     1       7.041   3.136   7.095  0.00  0.00    +0.022 C 
BRANCH  23  24
ATOM     24  C   UNL     1       7.358   3.393   8.545  0.00  0.00    +0.211 A 
ATOM     25  N   UNL     1       8.015   2.591   9.333  0.00  0.00    -0.192 NA
ATOM     26  C   UNL     1       8.117   3.132  10.562  0.00  0.00    +0.209 A 
ATOM     27  N   UNL     1       7.514   4.298  10.556  0.00  0.00    -0.056 NA
ATOM     28  O   UNL     1       7.016   4.486   9.239  0.00  0.00    -0.340 OA
BRANCH  26  29
ATOM     29  C   UNL     1       8.794   2.518  11.722  0.00  0.00    +0.060 A 
ATOM     30  C   UNL     1       8.933   3.001  12.996  0.00  0.00    +0.019 A 
ATOM     31  C   UNL     1       9.612   2.242  13.922  0.00  0.00    +0.008 A 
ATOM     32  C   UNL     1      10.122   1.040  13.546  0.00  0.00    +0.046 A 
ATOM     33  S   UNL     1       9.637   0.947  11.831  0.00  0.00    -0.093 S 
ENDBRANCH  26  29
ENDBRANCH  23  24
ENDBRANCH   4  23
TORSDOF 8
