REMARK  Name = ZINC02391171
REMARK  2 active torsions:
REMARK  status: ('A' for Active; 'I' for Inactive)
REMARK    1  A    between atoms: C_3  and  N_10
REMARK    2  A    between atoms: C_4  and  P_8
REMARK                            x       y       z     vdW  Elec       q    Type
REMARK                         _______ _______ _______ _____ _____    ______ ____
ROOT
ATOM      1  C   UNL     1      -1.218   1.751   0.017  0.00  0.00    +0.022 A 
ATOM      2  C   UNL     1      -0.013   1.076   0.008  0.00  0.00    +0.025 A 
ATOM      3  C   UNL     1       1.180   1.787   0.000  0.00  0.00    +0.040 A 
ATOM      4  C   UNL     1       1.158   3.176   0.008  0.00  0.00    +0.090 A 
ATOM      5  C   UNL     1      -0.050   3.846   0.022  0.00  0.00    +0.038 A 
ATOM      6  C   UNL     1      -1.237   3.134   0.030  0.00  0.00    +0.042 A 
ATOM      7 CL   UNL     1      -2.753   3.979   0.048  0.00  0.00    -0.084 Cl
ENDROOT
BRANCH   4   8
ATOM      8  P   UNL     1       2.713   4.109  -0.002  0.00  0.00    +0.418 P 
ATOM      9  O   UNL     1       3.124   4.370  -1.399  0.00  0.00    -0.248 OA
ATOM     10  O   UNL     1       2.504   5.509   0.766  0.00  0.00    -0.135 OA
ATOM     11  O   UNL     1       3.856   3.255   0.743  0.00  0.00    -0.135 OA
ENDBRANCH   4   8
BRANCH   3  12
ATOM     12  N   UNL     1       2.401   1.107  -0.015  0.00  0.00    -0.357 N 
ATOM     13  H   UNL     1       2.416   0.137  -0.020  0.00  0.00    +0.142 HD
ATOM     14  H   UNL     1       3.233   1.605  -0.020  0.00  0.00    +0.142 HD
ENDBRANCH   3  12
TORSDOF 2
