REMARK  Name = ZINC17094778
REMARK  6 active torsions:
REMARK  status: ('A' for Active; 'I' for Inactive)
REMARK    1  A    between atoms: C_1  and  O_2
REMARK    2  A    between atoms: O_2  and  C_3
REMARK    3  A    between atoms: C_5  and  C_13
REMARK    4  A    between atoms: C_7  and  N_10
REMARK    5  A    between atoms: C_8  and  O_9
REMARK    6  A    between atoms: C_24  and  C_27
REMARK                            x       y       z     vdW  Elec       q    Type
REMARK                         _______ _______ _______ _____ _____    ______ ____
ROOT
ATOM      1  C   UNL     1       2.403   0.379  -4.230  0.00  0.00    +0.063 C 
ATOM      2  C   UNL     1       3.897   0.068  -4.330  0.00  0.00    +0.109 C 
ATOM      3  C   UNL     1       4.076  -1.306  -4.923  0.00  0.00    +0.218 C 
ATOM      4  O   UNL     1       5.005  -2.001  -4.570  0.00  0.00    -0.275 OA
ATOM      5  N   UNL     1       3.209  -1.762  -5.844  0.00  0.00    -0.289 N 
ATOM      6  C   UNL     1       2.164  -0.989  -6.281  0.00  0.00    +0.018 C 
ATOM      7  C   UNL     1       1.734   0.059  -5.546  0.00  0.00    +0.020 C 
ATOM      8  C   UNL     1       0.671   0.869  -5.979  0.00  0.00    +0.162 C 
ATOM      9  O   UNL     1       0.306   1.797  -5.285  0.00  0.00    -0.292 OA
ATOM     10  C   UNL     1      -0.022   0.605  -7.288  0.00  0.00    +0.088 C 
ATOM     11  C   UNL     1       0.968  -0.061  -8.250  0.00  0.00    +0.032 C 
ATOM     12  C   UNL     1       1.505  -1.336  -7.592  0.00  0.00    +0.059 C 
ATOM     13  H   UNL     1       3.325  -2.655  -6.205  0.00  0.00    +0.155 HD
ENDROOT
BRANCH  11  14
ATOM     14  C   UNL     1       0.266  -0.408  -9.538  0.00  0.00    -0.043 A 
ATOM     15  C   UNL     1      -0.819  -1.266  -9.524  0.00  0.00    +0.007 A 
ATOM     16  C   UNL     1      -1.463  -1.585 -10.704  0.00  0.00    +0.038 A 
ATOM     17  C   UNL     1      -1.022  -1.046 -11.900  0.00  0.00    +0.123 A 
ATOM     18  C   UNL     1       0.064  -0.188 -11.913  0.00  0.00    +0.038 A 
ATOM     19  C   UNL     1       0.704   0.134 -10.731  0.00  0.00    +0.007 A 
ATOM     20  F   UNL     1      -1.651  -1.358 -13.055  0.00  0.00    -0.205 F 
ENDBRANCH  11  14
BRANCH   1  23
ATOM     21  C   UNL     1       0.606  -0.608  -1.056  0.00  0.00    +0.164 A 
ATOM     22  C   UNL     1       1.173   0.159  -2.062  0.00  0.00    +0.053 A 
ATOM     23  C   UNL     1       1.787  -0.456  -3.137  0.00  0.00    -0.034 A 
ATOM     24  C   UNL     1       1.837  -1.836  -3.212  0.00  0.00    +0.041 A 
ATOM     25  C   UNL     1       1.274  -2.606  -2.212  0.00  0.00    +0.171 A 
ATOM     26  C   UNL     1       0.662  -1.996  -1.129  0.00  0.00    +0.189 A 
BRANCH  25  27
ATOM     27  N   UNL     1       1.329  -4.083  -2.296  0.00  0.00    +0.060 N 
ATOM     28  O   UNL     1       1.867  -4.615  -3.239  0.00  0.00    -0.126 OA
ATOM     29  O   UNL     1       0.837  -4.757  -1.421  0.00  0.00    -0.126 OA
ENDBRANCH  25  27
BRANCH  21  31
ATOM     30  C   UNL     1      -0.017   1.425   0.010  0.00  0.00    +0.277 C 
ATOM     31  O   UNL     1       0.002  -0.004   0.002  0.00  0.00    -0.491 OA
ENDBRANCH  21  31
BRANCH  26  32
ATOM     32  O   UNL     1       0.112  -2.753  -0.142  0.00  0.00    -0.502 OA
ATOM     33  H   UNL     1      -0.816  -2.979  -0.291  0.00  0.00    +0.292 HD
ENDBRANCH  26  32
ENDBRANCH   1  23
TORSDOF 5
