REMARK  Name = ZINC16975465
REMARK  7 active torsions:
REMARK  status: ('A' for Active; 'I' for Inactive)
REMARK    1  A    between atoms: C_1  and  C_2
REMARK    2  A    between atoms: C_4  and  N_28
REMARK    3  A    between atoms: C_7  and  N_8
REMARK    4  A    between atoms: C_9  and  C_11
REMARK    5  A    between atoms: N_13  and  C_14
REMARK    6  A    between atoms: C_14  and  C_15
REMARK    7  A    between atoms: C_15  and  C_21
REMARK                            x       y       z     vdW  Elec       q    Type
REMARK                         _______ _______ _______ _____ _____    ______ ____
ROOT
ATOM      1  C   UNL     1       1.220   1.844   0.011  0.00  0.00    +0.299 C 
ATOM      2  O   UNL     1       1.190   3.057   0.018  0.00  0.00    -0.265 OA
ATOM      3  N   UNL     1       2.402   1.198  -0.018  0.00  0.00    -0.307 N 
ATOM      4  H   UNL     1       2.425   0.229  -0.022  0.00  0.00    +0.149 HD
ENDROOT
BRANCH   1   6
ATOM      5  N   UNL     1      -1.238   1.712   0.060  0.00  0.00    -0.278 N 
ATOM      6  C   UNL     1      -0.056   1.066   0.036  0.00  0.00    +0.303 C 
ATOM      7  O   UNL     1      -0.026  -0.147   0.030  0.00  0.00    -0.265 OA
ATOM      8  H   UNL     1      -1.262   2.678   0.146  0.00  0.00    +0.155 HD
BRANCH   5  15
ATOM      9  C   UNL     1      -3.598   2.857   1.163  0.00  0.00    +0.046 C 
ATOM     10  C   UNL     1      -3.606   1.512   0.485  0.00  0.00    -0.027 A 
ATOM     11  C   UNL     1      -4.784   0.798   0.379  0.00  0.00    +0.038 A 
ATOM     12  C   UNL     1      -4.791  -0.439  -0.238  0.00  0.00    +0.127 A 
ATOM     13  C   UNL     1      -3.621  -0.964  -0.757  0.00  0.00    +0.034 A 
ATOM     14  C   UNL     1      -2.442  -0.253  -0.660  0.00  0.00    +0.026 A 
ATOM     15  C   UNL     1      -2.430   0.990  -0.040  0.00  0.00    +0.037 A 
BRANCH  12  16
ATOM     16  N   UNL     1      -6.054  -1.204  -0.344  0.00  0.00    +0.056 N 
ATOM     17  O   UNL     1      -6.062  -2.294  -0.887  0.00  0.00    -0.126 OA
ATOM     18  O   UNL     1      -7.085  -0.744   0.113  0.00  0.00    -0.126 OA
ENDBRANCH  12  16
ENDBRANCH   5  15
ENDBRANCH   1   6
BRANCH   3  19
ATOM     19  C   UNL     1       3.653   1.961  -0.042  0.00  0.00    +0.116 C 
BRANCH  19  20
ATOM     20  C   UNL     1       4.833   1.000  -0.197  0.00  0.00    +0.015 C 
ATOM     21  C   UNL     1       4.793  -0.046   0.921  0.00  0.00    +0.041 C 
ATOM     22  C   UNL     1       4.955   0.656   2.272  0.00  0.00    +0.160 C 
ATOM     23  O   UNL     1       6.181   1.390   2.282  0.00  0.00    -0.380 OA
ATOM     24  C   UNL     1       6.256   2.414   1.288  0.00  0.00    +0.160 C 
ATOM     25  C   UNL     1       6.147   1.782  -0.102  0.00  0.00    +0.041 C 
BRANCH  20  26
ATOM     26  C   UNL     1       4.751   0.313  -1.536  0.00  0.00    -0.039 A 
ATOM     27  C   UNL     1       4.666   1.063  -2.694  0.00  0.00    +0.005 A 
ATOM     28  C   UNL     1       4.596   0.433  -3.922  0.00  0.00    +0.020 A 
ATOM     29  C   UNL     1       4.601  -0.948  -3.992  0.00  0.00    +0.041 A 
ATOM     30  C   UNL     1       4.681  -1.699  -2.833  0.00  0.00    +0.020 A 
ATOM     31  C   UNL     1       4.756  -1.068  -1.605  0.00  0.00    +0.005 A 
ATOM     32 CL   UNL     1       4.507  -1.740  -5.534  0.00  0.00    -0.084 Cl
ENDBRANCH  20  26
ENDBRANCH  19  20
ENDBRANCH   3  19
TORSDOF 6
