REMARK  Name = ZINC36347424
REMARK  11 active torsions:
REMARK  status: ('A' for Active; 'I' for Inactive)
REMARK    1  A    between atoms: C_1  and  C_2
REMARK    2  A    between atoms: C_2  and  C_3
REMARK    3  A    between atoms: C_2  and  C_4
REMARK    4  A    between atoms: C_2  and  C_5
REMARK    5  A    between atoms: C_8  and  C_11
REMARK    6  A    between atoms: C_11  and  N_12
REMARK    7  A    between atoms: C_21  and  C_23
REMARK    8  A    between atoms: C_25  and  O_31
REMARK    9  A    between atoms: C_27  and  O_29
REMARK   10  A    between atoms: O_29  and  C_30
REMARK   11  A    between atoms: O_31  and  C_32
REMARK                            x       y       z     vdW  Elec       q    Type
REMARK                         _______ _______ _______ _____ _____    ______ ____
ROOT
ATOM      1  N   UNL     1       2.385  -0.896  -5.924  0.00  0.00    +0.391 N 
ATOM      2  C   UNL     1       2.880   0.400  -5.452  0.00  0.00    -0.075 C 
ATOM      3  C   UNL     1       2.771   1.458  -6.542  0.00  0.00    +0.003 C 
ATOM      4  C   UNL     1       1.532   1.192  -7.401  0.00  0.00    +0.119 C 
ATOM      5  N   UNL     1       1.896   0.280  -8.492  0.00  0.00    -0.352 N 
ATOM      6  C   UNL     1       1.567   0.418  -9.806  0.00  0.00    +0.086 A 
ATOM      7  C   UNL     1       2.073  -0.634 -10.481  0.00  0.00    +0.019 A 
ATOM      8  C   UNL     1       2.744  -1.451  -9.548  0.00  0.00    +0.021 A 
ATOM      9  C   UNL     1       2.627  -0.865  -8.341  0.00  0.00    +0.009 A 
ATOM     10  C   UNL     1       3.208  -1.372  -7.044  0.00  0.00    +0.011 C 
ATOM     11  H   UNL     1       1.429  -0.795  -6.231  0.00  0.00    -0.080 HD
ENDROOT
BRANCH  10  12
ATOM     12  C   UNL     1       3.222  -2.878  -7.053  0.00  0.00    -0.048 A 
ATOM     13  C   UNL     1       2.036  -3.579  -7.160  0.00  0.00    +0.048 A 
ATOM     14  C   UNL     1       2.046  -4.966  -7.168  0.00  0.00    +0.124 A 
ATOM     15  C   UNL     1       3.248  -5.650  -7.071  0.00  0.00    +0.091 A 
ATOM     16  C   UNL     1       4.437  -4.946  -6.964  0.00  0.00    +0.124 A 
ATOM     17  C   UNL     1       4.422  -3.558  -6.961  0.00  0.00    +0.048 A 
BRANCH  16  18
ATOM     18  O   UNL     1       5.617  -5.613  -6.868  0.00  0.00    -0.495 OA
ATOM     19  C   UNL     1       5.557  -7.041  -6.882  0.00  0.00    +0.277 C 
ENDBRANCH  16  18
BRANCH  14  20
ATOM     20  O   UNL     1       0.878  -5.654  -7.273  0.00  0.00    -0.495 OA
ATOM     21  C   UNL     1       0.964  -7.080  -7.276  0.00  0.00    +0.277 C 
ENDBRANCH  14  20
ENDBRANCH  10  12
BRANCH   1  22
ATOM     22  C   UNL     1       2.444  -1.870  -4.826  0.00  0.00    -0.042 C 
BRANCH  22  26
ATOM     23  C   UNL     1      -0.155  -0.626  -1.673  0.00  0.00    -0.042 A 
ATOM     24  C   UNL     1      -0.633  -1.442  -2.681  0.00  0.00    +0.004 A 
ATOM     25  C   UNL     1       0.208  -1.845  -3.701  0.00  0.00    +0.002 A 
ATOM     26  C   UNL     1       1.527  -1.431  -3.714  0.00  0.00    -0.064 A 
ATOM     27  C   UNL     1       2.005  -0.614  -2.706  0.00  0.00    +0.002 A 
ATOM     28  C   UNL     1       1.163  -0.208  -1.688  0.00  0.00    +0.004 A 
BRANCH  23  30
ATOM     29  C   UNL     1      -1.168   1.339  -0.550  0.00  0.00    +0.015 C 
ATOM     30  C   UNL     1      -1.071  -0.188  -0.560  0.00  0.00    -0.013 C 
ATOM     31  C   UNL     1      -0.514  -0.672   0.781  0.00  0.00    +0.015 C 
ATOM     32  C   UNL     1      -2.462  -0.786  -0.779  0.00  0.00    +0.015 C 
ENDBRANCH  23  30
ENDBRANCH  22  26
ENDBRANCH   1  22
TORSDOF 6
