REMARK  Name = ZINC34731294
REMARK  11 active torsions:
REMARK  status: ('A' for Active; 'I' for Inactive)
REMARK    1  A    between atoms: C_1  and  C_2
REMARK    2  A    between atoms: C_2  and  C_3
REMARK    3  A    between atoms: C_4  and  C_37
REMARK    4  A    between atoms: N_11  and  C_26
REMARK    5  A    between atoms: N_14  and  C_17
REMARK    6  A    between atoms: C_17  and  C_18
REMARK    7  A    between atoms: C_21  and  C_25
REMARK    8  A    between atoms: C_23  and  C_24
REMARK    9  A    between atoms: C_26  and  C_27
REMARK   10  A    between atoms: N_29  and  C_30
REMARK   11  A    between atoms: C_30  and  C_31
REMARK                            x       y       z     vdW  Elec       q    Type
REMARK                         _______ _______ _______ _____ _____    ______ ____
ROOT
ATOM      1  C   UNL     1       0.535  -0.393  -1.153  0.00  0.00    -0.040 C 
ATOM      2  C   UNL     1       1.821  -0.692  -1.168  0.00  0.00    -0.064 C 
ATOM      3  C   UNL     1       2.169  -1.124  -2.574  0.00  0.00    +0.073 C 
ATOM      4  C   UNL     1       0.884  -1.019  -3.338  0.00  0.00    +0.004 A 
ATOM      5  C   UNL     1      -0.090  -0.590  -2.491  0.00  0.00    +0.003 A 
ATOM      6  C   UNL     1      -1.439  -0.434  -3.076  0.00  0.00    +0.078 A 
ATOM      7  C   UNL     1      -2.677   0.015  -2.406  0.00  0.00    +0.266 A 
ATOM      8  O   UNL     1      -2.666   0.312  -1.225  0.00  0.00    -0.267 OA
ATOM      9  N   UNL     1      -3.816   0.093  -3.118  0.00  0.00    -0.251 N 
ATOM     10  C   UNL     1      -3.861  -0.227  -4.422  0.00  0.00    +0.334 A 
ATOM     11  O   UNL     1      -4.915  -0.141  -5.021  0.00  0.00    -0.246 OA
ATOM     12  N   UNL     1      -2.759  -0.642  -5.079  0.00  0.00    -0.283 N 
ATOM     13  C   UNL     1      -1.563  -0.747  -4.426  0.00  0.00    +0.098 A 
ATOM     14  S   UNL     1       0.077  -1.224  -4.902  0.00  0.00    -0.074 S 
ATOM     15  C   UNL     1       2.768  -0.616   0.002  0.00  0.00    +0.039 C 
ENDROOT
BRANCH   1  17
ATOM     16  C   UNL     1      -0.261   1.613   0.069  0.00  0.00    +0.009 C 
ATOM     17  C   UNL     1      -0.209   0.084   0.067  0.00  0.00    +0.032 C 
ENDBRANCH   1  17
BRANCH  12  18
ATOM     18  C   UNL     1      -2.845  -0.983  -6.501  0.00  0.00    +0.162 C 
BRANCH  18  19
ATOM     19  C   UNL     1      -2.671   0.265  -7.328  0.00  0.00    -0.025 A 
ATOM     20  C   UNL     1      -2.343   1.460  -6.715  0.00  0.00    +0.006 A 
ATOM     21  C   UNL     1      -2.183   2.604  -7.474  0.00  0.00    +0.004 A 
ATOM     22  C   UNL     1      -2.351   2.554  -8.845  0.00  0.00    -0.050 A 
ATOM     23  C   UNL     1      -2.679   1.359  -9.458  0.00  0.00    +0.007 A 
ATOM     24  C   UNL     1      -2.834   0.213  -8.700  0.00  0.00    -0.045 A 
ATOM     25  C   UNL     1      -3.186  -1.091  -9.368  0.00  0.00    +0.044 C 
ATOM     26  C   UNL     1      -2.178   3.802  -9.672  0.00  0.00    +0.044 C 
ENDBRANCH  18  19
ENDBRANCH  12  18
BRANCH   9  27
ATOM     27  C   UNL     1      -5.042   0.538  -2.452  0.00  0.00    +0.225 C 
BRANCH  27  28
ATOM     28  C   UNL     1      -5.159   2.037  -2.564  0.00  0.00    +0.233 C 
ATOM     29  O   UNL     1      -4.302   2.670  -3.143  0.00  0.00    -0.274 OA
ATOM     30  N   UNL     1      -6.215   2.673  -2.021  0.00  0.00    -0.310 N 
ATOM     31  H   UNL     1      -6.901   2.166  -1.558  0.00  0.00    +0.149 HD
BRANCH  30  32
ATOM     32  C   UNL     1      -6.329   4.129  -2.129  0.00  0.00    +0.139 C 
BRANCH  32  33
ATOM     33  C   UNL     1      -7.590   4.588  -1.444  0.00  0.00    -0.030 A 
ATOM     34  C   UNL     1      -8.773   4.669  -2.156  0.00  0.00    +0.005 A 
ATOM     35  C   UNL     1      -9.930   5.089  -1.528  0.00  0.00    +0.000 A 
ATOM     36  C   UNL     1      -9.905   5.428  -0.188  0.00  0.00    +0.000 A 
ATOM     37  C   UNL     1      -8.723   5.346   0.524  0.00  0.00    +0.000 A 
ATOM     38  C   UNL     1      -7.566   4.921  -0.103  0.00  0.00    +0.005 A 
ENDBRANCH  32  33
ENDBRANCH  30  32
ENDBRANCH  27  28
ENDBRANCH   9  27
TORSDOF 7
