REMARK  Name = ZINC57783574
REMARK  5 active torsions:
REMARK  status: ('A' for Active; 'I' for Inactive)
REMARK    1  A    between atoms: C_2  and  S_14
REMARK    2  A    between atoms: C_6  and  C_7
REMARK    3  A    between atoms: S_14  and  N_17
REMARK    4  A    between atoms: N_17  and  C_18
REMARK    5  A    between atoms: C_23  and  C_24
REMARK                            x       y       z     vdW  Elec       q    Type
REMARK                         _______ _______ _______ _____ _____    ______ ____
ROOT
ATOM      1  S   UNL     1       1.865   3.477   0.002  0.00  0.00    +0.093 S 
ATOM      2  O   UNL     1       3.169   3.477  -0.561  0.00  0.00    -0.148 OA
ATOM      3  O   UNL     1       0.803   4.255  -0.534  0.00  0.00    -0.148 OA
ENDROOT
BRANCH   1   5
ATOM      4  C   UNL     1      -0.017   1.375   0.010  0.00  0.00    +0.061 A 
ATOM      5  C   UNL     1       1.314   1.804  -0.001  0.00  0.00    +0.128 A 
ATOM      6  C   UNL     1       2.105   0.704  -0.014  0.00  0.00    +0.112 A 
ATOM      7  N   UNL     1       1.320  -0.401  -0.013  0.00  0.00    -0.355 N 
ATOM      8  H   UNL     1       1.635  -1.318  -0.021  0.00  0.00    +0.166 HD
ATOM      9  C   UNL     1       0.002  -0.004   0.002  0.00  0.00    +0.104 A 
BRANCH   9  10
ATOM     10  C   UNL     1      -1.169  -0.887   0.009  0.00  0.00    +0.263 C 
ATOM     11  O   UNL     1      -2.289  -0.412   0.022  0.00  0.00    -0.268 OA
ATOM     12  N   UNL     1      -1.005  -2.225   0.000  0.00  0.00    -0.296 N 
ATOM     13  C   UNL     1       0.286  -2.929  -0.010  0.00  0.00    +0.108 C 
ATOM     14  C   UNL     1      -0.018  -4.442  -0.044  0.00  0.00    +0.020 C 
ATOM     15  C   UNL     1      -1.457  -4.494  -0.622  0.00  0.00    +0.020 C 
ATOM     16  C   UNL     1      -2.089  -3.224   0.005  0.00  0.00    +0.108 C 
ENDBRANCH   9  10
ENDBRANCH   1   5
BRANCH   1  17
ATOM     17  N   UNL     1       2.033   3.934   1.585  0.00  0.00    -0.097 NA
BRANCH  17  18
ATOM     18  C   UNL     1       2.458   5.219   1.895  0.00  0.00    +0.091 A 
ATOM     19  C   UNL     1       2.739   6.125   0.881  0.00  0.00    +0.068 A 
ATOM     20  C   UNL     1       3.163   7.403   1.191  0.00  0.00    +0.160 A 
ATOM     21  C   UNL     1       3.312   7.792   2.519  0.00  0.00    +0.159 A 
ATOM     22  C   UNL     1       3.038   6.907   3.538  0.00  0.00    +0.058 A 
ATOM     23  C   UNL     1       2.602   5.610   3.238  0.00  0.00    +0.090 A 
ATOM     24  F   UNL     1       3.727   9.045   2.810  0.00  0.00    -0.202 F 
ATOM     25  F   UNL     1       3.435   8.280   0.200  0.00  0.00    -0.202 F 
BRANCH  23  26
ATOM     26  C   UNL     1       2.303   4.663   4.319  0.00  0.00    +0.389 C 
ATOM     27  O   UNL     1       2.429   5.008   5.487  0.00  0.00    -0.241 OA
ATOM     28  O   UNL     1       1.927   3.529   4.053  0.00  0.00    -0.241 OA
ENDBRANCH  23  26
ENDBRANCH  17  18
ENDBRANCH   1  17
TORSDOF 5
