REMARK  Name = ZINC10019204
REMARK  6 active torsions:
REMARK  status: ('A' for Active; 'I' for Inactive)
REMARK    1  A    between atoms: C_10  and  C_11
REMARK    2  A    between atoms: C_11  and  C_13
REMARK    3  A    between atoms: C_11  and  N_52
REMARK    4  A    between atoms: C_13  and  N_14
REMARK    5  A    between atoms: C_15  and  C_17
REMARK    6  A    between atoms: C_21  and  N_23
REMARK                            x       y       z     vdW  Elec       q    Type
REMARK                         _______ _______ _______ _____ _____    ______ ____
ROOT
ATOM      1  C   UNL     1      -0.743   1.592  -1.231  0.00  0.00    -0.020 C 
ENDROOT
BRANCH   1  11
ATOM      2  C   UNL     1      -0.126  -2.395  -4.381  0.00  0.00    +0.001 A 
ATOM      3  C   UNL     1      -0.895  -2.154  -3.244  0.00  0.00    +0.001 A 
ATOM      4  C   UNL     1      -0.843  -0.954  -2.605  0.00  0.00    +0.009 A 
ATOM      5  C   UNL     1      -0.001   0.059  -3.095  0.00  0.00    -0.016 A 
ATOM      6  C   UNL     1       0.782  -0.187  -4.250  0.00  0.00    -0.018 A 
ATOM      7  C   UNL     1       0.701  -1.439  -4.884  0.00  0.00    +0.008 A 
ATOM      8  C   UNL     1       1.625   0.825  -4.740  0.00  0.00    +0.008 A 
ATOM      9  C   UNL     1       1.678   2.026  -4.100  0.00  0.00    +0.001 A 
ATOM     10  C   UNL     1       0.905   2.269  -2.967  0.00  0.00    +0.003 A 
ATOM     11  C   UNL     1       0.082   1.311  -2.461  0.00  0.00    -0.052 A 
ENDBRANCH   1  11
BRANCH   1  16
ATOM     12  C   UNL     1      -1.726   3.562  -2.270  0.00  0.00    -0.078 C 
ATOM     13  C   UNL     1      -2.303   4.900  -1.742  0.00  0.00    -0.020 C 
ATOM     14  C   UNL     1      -2.650   4.570  -0.272  0.00  0.00    -0.020 C 
ATOM     15  C   UNL     1      -1.776   3.354   0.085  0.00  0.00    -0.078 C 
ATOM     16  N   UNL     1      -0.977   3.062  -1.106  0.00  0.00    +0.385 N 
ATOM     17  H   UNL     1      -0.072   3.543  -1.044  0.00  0.00    -0.081 HD
ENDBRANCH   1  16
BRANCH   1  18
ATOM     18  C   UNL     1      -0.002   1.082   0.007  0.00  0.00    +0.094 C 
BRANCH  18  19
ATOM     19  N   UNL     1       1.228   1.856   0.193  0.00  0.00    -0.313 N 
ATOM     20  C   UNL     1       2.099   1.514   1.164  0.00  0.00    +0.244 C 
ATOM     21  O   UNL     1       1.863   0.565   1.886  0.00  0.00    -0.270 OA
ATOM     22  H   UNL     1       1.417   2.613  -0.383  0.00  0.00    +0.149 HD
BRANCH  20  23
ATOM     23  C   UNL     1       3.340   2.295   1.351  0.00  0.00    +0.039 A 
ATOM     24  C   UNL     1       3.616   3.382   0.520  0.00  0.00    +0.014 A 
ATOM     25  C   UNL     1       4.773   4.109   0.704  0.00  0.00    +0.023 A 
ATOM     26  C   UNL     1       5.666   3.756   1.702  0.00  0.00    +0.071 A 
ATOM     27  C   UNL     1       5.400   2.675   2.526  0.00  0.00    +0.145 A 
ATOM     28  C   UNL     1       4.243   1.944   2.356  0.00  0.00    +0.047 A 
ATOM     29 CL   UNL     1       7.124   4.672   1.922  0.00  0.00    -0.081 Cl
BRANCH  27  30
ATOM     30  N   UNL     1       6.358   2.305   3.592  0.00  0.00    +0.058 N 
ATOM     31  O   UNL     1       6.125   1.355   4.317  0.00  0.00    -0.126 OA
ATOM     32  O   UNL     1       7.380   2.950   3.743  0.00  0.00    -0.126 OA
ENDBRANCH  27  30
ENDBRANCH  20  23
ENDBRANCH  18  19
ENDBRANCH   1  18
TORSDOF 6
