REMARK  Name = ZINC12878705
REMARK  6 active torsions:
REMARK  status: ('A' for Active; 'I' for Inactive)
REMARK    1  A    between atoms: C_1  and  C_2
REMARK    2  A    between atoms: C_5  and  C_8
REMARK    3  A    between atoms: C_8  and  N_9
REMARK    4  A    between atoms: C_15  and  C_31
REMARK    5  A    between atoms: C_27  and  C_30
REMARK    6  A    between atoms: C_34  and  C_37
REMARK                            x       y       z     vdW  Elec       q    Type
REMARK                         _______ _______ _______ _____ _____    ______ ____
ROOT
ATOM      1  N   UNL     1       7.439   0.088  -1.965  0.00  0.00    -0.286 N 
ATOM      2  C   UNL     1       8.024   1.410  -2.110  0.00  0.00    +0.204 C 
ATOM      3  C   UNL     1       7.391   2.409  -1.196  0.00  0.00    +0.234 C 
ATOM      4  O   UNL     1       7.778   3.557  -1.256  0.00  0.00    -0.274 OA
ATOM      5  N   UNL     1       6.427   2.120  -0.318  0.00  0.00    -0.280 N 
ATOM      6  C   UNL     1       5.749   3.218   0.396  0.00  0.00    +0.122 C 
ATOM      7  C   UNL     1       4.277   3.251  -0.031  0.00  0.00    +0.069 C 
ATOM      8  C   UNL     1       3.729   1.847  -0.024  0.00  0.00    -0.008 A 
ATOM      9  C   UNL     1       2.344   1.422  -0.012  0.00  0.00    +0.004 A 
ATOM     10  C   UNL     1       1.136   2.127   0.003  0.00  0.00    +0.010 A 
ATOM     11  C   UNL     1      -0.017   1.381   0.010  0.00  0.00    +0.001 A 
ATOM     12  C   UNL     1       0.002  -0.004   0.002  0.00  0.00    +0.002 A 
ATOM     13  C   UNL     1       1.183  -0.727  -0.012  0.00  0.00    +0.026 A 
ATOM     14  C   UNL     1       2.369   0.004  -0.018  0.00  0.00    +0.047 A 
ATOM     15  N   UNL     1       3.680  -0.380  -0.030  0.00  0.00    -0.356 N 
ATOM     16  H   UNL     1       3.993  -1.298  -0.036  0.00  0.00    +0.166 HD
ATOM     17  C   UNL     1       4.485   0.727  -0.033  0.00  0.00    +0.054 A 
ATOM     18  C   UNL     1       5.995   0.750  -0.042  0.00  0.00    +0.151 C 
ATOM     19  C   UNL     1       6.527  -0.221  -1.043  0.00  0.00    +0.246 C 
ATOM     20  O   UNL     1       6.105  -1.357  -1.016  0.00  0.00    -0.273 OA
ATOM     21  C   UNL     1       6.504   0.358   1.347  0.00  0.00    +0.048 C 
ENDROOT
BRANCH   7  22
ATOM     22  C   UNL     1       3.492   4.103   0.934  0.00  0.00    -0.038 A 
ATOM     23  C   UNL     1       3.446   3.766   2.273  0.00  0.00    +0.004 A 
ATOM     24  C   UNL     1       2.730   4.550   3.159  0.00  0.00    +0.003 A 
ATOM     25  C   UNL     1       2.053   5.665   2.703  0.00  0.00    -0.050 A 
ATOM     26  C   UNL     1       2.095   6.000   1.362  0.00  0.00    +0.003 A 
ATOM     27  C   UNL     1       2.815   5.219   0.478  0.00  0.00    +0.004 A 
ATOM     28  C   UNL     1       1.268   6.517   3.667  0.00  0.00    +0.044 C 
ENDBRANCH   7  22
BRANCH   1  29
ATOM     29  C   UNL     1       7.877  -0.966  -2.884  0.00  0.00    +0.143 C 
BRANCH  29  34
ATOM     30  C   UNL     1       4.482  -0.979  -7.561  0.00  0.00    +0.044 C 
ATOM     31  C   UNL     1       5.368  -0.975  -6.341  0.00  0.00    -0.050 A 
ATOM     32  C   UNL     1       6.511  -0.199  -6.319  0.00  0.00    +0.003 A 
ATOM     33  C   UNL     1       7.323  -0.196  -5.200  0.00  0.00    +0.005 A 
ATOM     34  C   UNL     1       6.991  -0.969  -4.103  0.00  0.00    -0.030 A 
ATOM     35  C   UNL     1       5.851  -1.750  -4.128  0.00  0.00    +0.005 A 
ATOM     36  C   UNL     1       5.036  -1.749  -5.244  0.00  0.00    +0.003 A 
ENDBRANCH  29  34
ENDBRANCH   1  29
TORSDOF 3
