REMARK  Name = ZINC61591289
REMARK  3 active torsions:
REMARK  status: ('A' for Active; 'I' for Inactive)
REMARK    1  A    between atoms: C_1  and  C_2
REMARK    2  A    between atoms: C_8  and  C_10
REMARK    3  A    between atoms: C_10  and  N_11
REMARK                            x       y       z     vdW  Elec       q    Type
REMARK                         _______ _______ _______ _____ _____    ______ ____
ROOT
ATOM      1  N   UNL     1       0.799  -0.401   3.684  0.00  0.00    -0.272 N 
ATOM      2  C   UNL     1       0.661  -1.553   4.366  0.00  0.00    +0.343 A 
ATOM      3  O   UNL     1      -0.123  -2.445   4.105  0.00  0.00    -0.245 OA
ATOM      4  N   UNL     1       1.540  -1.550   5.389  0.00  0.00    -0.249 N 
ATOM      5  H   UNL     1       1.663  -2.252   6.046  0.00  0.00    +0.191 HD
ATOM      6  N   UNL     1       2.244  -0.337   5.322  0.00  0.00    -0.275 N 
ATOM      7  C   UNL     1       1.764   0.340   4.259  0.00  0.00    +0.177 A 
ATOM      8  S   UNL     1       2.291   1.881   3.732  0.00  0.00    -0.011 S 
ATOM      9  H   UNL     1       2.945  -0.044   5.924  0.00  0.00    +0.189 HD
ENDROOT
BRANCH   1  10
ATOM     10  C   UNL     1       0.026  -0.018   2.500  0.00  0.00    +0.132 C 
BRANCH  10  17
ATOM     11  C   UNL     1      -0.019   1.526   0.010  0.00  0.00    +0.008 C 
ATOM     12  C   UNL     1       0.002  -0.004   0.002  0.00  0.00    -0.009 C 
ATOM     13  C   UNL     1       0.718  -0.497  -1.257  0.00  0.00    +0.003 C 
ATOM     14  C   UNL     1       0.739  -2.027  -1.265  0.00  0.00    +0.000 C 
ATOM     15  C   UNL     1       1.479  -2.534  -0.026  0.00  0.00    +0.000 C 
ATOM     16  C   UNL     1       0.763  -2.041   1.233  0.00  0.00    +0.005 C 
ATOM     17  C   UNL     1       0.742  -0.511   1.242  0.00  0.00    +0.012 C 
ENDBRANCH  10  17
ENDBRANCH   1  10
TORSDOF 2
