REMARK  Name = ZINC49524026
REMARK  6 active torsions:
REMARK  status: ('A' for Active; 'I' for Inactive)
REMARK    1  A    between atoms: C_4  and  C_8
REMARK    2  A    between atoms: C_8  and  C_14
REMARK    3  A    between atoms: C_14  and  N_15
REMARK    4  A    between atoms: C_16  and  C_18
REMARK    5  A    between atoms: C_18  and  C_19
REMARK    6  A    between atoms: C_19  and  N_20
REMARK                            x       y       z     vdW  Elec       q    Type
REMARK                         _______ _______ _______ _____ _____    ______ ____
ROOT
ATOM      1  C   UNL     1       4.446  -0.417  -1.348  0.00  0.00    +0.116 C 
ENDROOT
BRANCH   1   2
ATOM      2  C   UNL     1       3.756  -0.719  -0.017  0.00  0.00    +0.019 C 
ATOM      3  C   UNL     1       4.746  -0.515   1.134  0.00  0.00    +0.041 C 
ATOM      4  C   UNL     1       5.899  -1.512   0.987  0.00  0.00    +0.160 C 
ATOM      5  O   UNL     1       5.378  -2.843   0.971  0.00  0.00    -0.380 OA
ATOM      6  C   UNL     1       4.482  -3.105  -0.111  0.00  0.00    +0.160 C 
ATOM      7  C   UNL     1       3.272  -2.173  -0.008  0.00  0.00    +0.041 C 
BRANCH   2  11
ATOM      8  C   UNL     1       0.417   1.901   0.489  0.00  0.00    +0.004 A 
ATOM      9  C   UNL     1       1.458   1.927   1.398  0.00  0.00    +0.039 A 
ATOM     10  C   UNL     1       2.540   1.078   1.235  0.00  0.00    +0.129 A 
ATOM     11  C   UNL     1       2.579   0.204   0.162  0.00  0.00    +0.014 A 
ATOM     12  C   UNL     1       1.536   0.181  -0.747  0.00  0.00    +0.047 A 
ATOM     13  C   UNL     1       0.456   1.030  -0.583  0.00  0.00    +0.020 A 
ATOM     14 CL   UNL     1       1.583  -0.914  -2.093  0.00  0.00    -0.083 Cl
ATOM     15  F   UNL     1       3.558   1.103   2.123  0.00  0.00    -0.205 F 
ENDBRANCH   2  11
ENDBRANCH   1   2
BRANCH   1  16
ATOM     16  N   UNL     1       4.798   1.004  -1.405  0.00  0.00    -0.314 N 
ATOM     17  C   UNL     1       5.363   1.514  -2.517  0.00  0.00    +0.215 C 
ATOM     18  O   UNL     1       5.580   0.797  -3.470  0.00  0.00    -0.276 OA
ATOM     19  H   UNL     1       4.623   1.577  -0.642  0.00  0.00    +0.149 HD
BRANCH  17  20
ATOM     20  C   UNL     1       5.724   2.976  -2.575  0.00  0.00    +0.117 C 
BRANCH  20  21
ATOM     21  C   UNL     1       6.346   3.294  -3.937  0.00  0.00    +0.135 C 
BRANCH  21  22
ATOM     22  N   UNL     1       6.697   4.715  -3.993  0.00  0.00    -0.300 N 
ATOM     23  C   UNL     1       5.779   5.623  -4.447  0.00  0.00    +0.096 A 
ATOM     24  C   UNL     1       6.103   6.933  -4.499  0.00  0.00    +0.088 A 
ATOM     25  C   UNL     1       7.393   7.340  -4.080  0.00  0.00    +0.254 A 
ATOM     26  O   UNL     1       7.707   8.516  -4.117  0.00  0.00    -0.268 OA
ATOM     27  N   UNL     1       8.268   6.415  -3.638  0.00  0.00    -0.275 N 
ATOM     28  H   UNL     1       9.153   6.687  -3.349  0.00  0.00    +0.173 HD
ATOM     29  C   UNL     1       7.917   5.116  -3.592  0.00  0.00    +0.329 A 
ATOM     30  O   UNL     1       8.716   4.294  -3.187  0.00  0.00    -0.246 OA
ENDBRANCH  21  22
ENDBRANCH  20  21
ENDBRANCH  17  20
ENDBRANCH   1  16
TORSDOF 6
