REMARK  Name = ZINC27520972
REMARK  9 active torsions:
REMARK  status: ('A' for Active; 'I' for Inactive)
REMARK    1  A    between atoms: C_1  and  C_2
REMARK    2  A    between atoms: C_2  and  O_3
REMARK    3  A    between atoms: O_3  and  C_4
REMARK    4  A    between atoms: C_4  and  C_6
REMARK    5  A    between atoms: C_7  and  C_32
REMARK    6  A    between atoms: C_8  and  C_31
REMARK    7  A    between atoms: C_10  and  N_11
REMARK    8  A    between atoms: C_13  and  C_22
REMARK    9  A    between atoms: N_24  and  C_25
REMARK                            x       y       z     vdW  Elec       q    Type
REMARK                         _______ _______ _______ _____ _____    ______ ____
ROOT
ATOM      1  N   UNL     1      -1.092  -1.445  -4.213  0.00  0.00    -0.319 N 
ATOM      2  C   UNL     1      -1.092  -2.433  -5.090  0.00  0.00    +0.212 A 
ATOM      3  C   UNL     1      -2.296  -3.253  -5.314  0.00  0.00    +0.098 A 
ATOM      4  C   UNL     1      -2.425  -3.872  -6.550  0.00  0.00    +0.030 A 
ATOM      5  C   UNL     1      -1.381  -3.702  -7.496  0.00  0.00    +0.018 A 
ATOM      6  C   UNL     1      -1.544  -4.131  -8.820  0.00  0.00    +0.011 A 
ATOM      7  C   UNL     1      -0.545  -3.924  -9.729  0.00  0.00    +0.001 A 
ATOM      8  C   UNL     1       0.633  -3.297  -9.352  0.00  0.00    +0.004 A 
ATOM      9  C   UNL     1       0.823  -2.882  -8.049  0.00  0.00    +0.047 A 
ATOM     10  C   UNL     1      -0.174  -3.090  -7.106  0.00  0.00    +0.137 A 
ATOM     11  O   UNL     1       0.015  -2.724  -5.818  0.00  0.00    -0.439 OA
ATOM     12  H   UNL     1      -1.920  -1.175  -3.787  0.00  0.00    +0.169 HD
ENDROOT
BRANCH   1  17
ATOM     13  C   UNL     1       0.272   0.250  -3.017  0.00  0.00    +0.093 A 
ATOM     14  C   UNL     1       1.627   0.725  -2.893  0.00  0.00    -0.024 A 
ATOM     15  C   UNL     1       2.585   0.137  -3.630  0.00  0.00    -0.008 A 
ATOM     16  S   UNL     1       1.698  -1.108  -4.546  0.00  0.00    -0.075 S 
ATOM     17  C   UNL     1       0.058  -0.812  -3.912  0.00  0.00    +0.095 A 
ATOM     18  C   UNL     1       4.058   0.455  -3.672  0.00  0.00    +0.052 C 
ATOM     19  C   UNL     1       1.963   1.857  -1.956  0.00  0.00    +0.045 C 
BRANCH  13  20
ATOM     20  C   UNL     1      -0.790   0.822  -2.271  0.00  0.00    +0.342 C 
ATOM     21  O   UNL     1      -1.071   0.377  -1.174  0.00  0.00    -0.245 OA
BRANCH  20  22
ATOM     22  O   UNL     1      -1.489   1.859  -2.779  0.00  0.00    -0.461 OA
BRANCH  22  24
ATOM     23  C   UNL     1      -3.217   3.547  -2.708  0.00  0.00    +0.048 C 
ATOM     24  C   UNL     1      -2.546   2.385  -1.973  0.00  0.00    +0.229 C 
ENDBRANCH  22  24
ENDBRANCH  20  22
ENDBRANCH  13  20
ENDBRANCH   1  17
BRANCH   3  25
ATOM     25  C   UNL     1      -3.322  -3.409  -4.269  0.00  0.00    +0.253 C 
ATOM     26  O   UNL     1      -4.366  -3.980  -4.521  0.00  0.00    -0.270 OA
ATOM     27  N   UNL     1      -3.104  -2.919  -3.032  0.00  0.00    -0.281 N 
ATOM     28  H   UNL     1      -2.297  -2.413  -2.846  0.00  0.00    +0.155 HD
BRANCH  27  29
ATOM     29  C   UNL     1      -4.040  -3.140  -2.017  0.00  0.00    +0.034 A 
ATOM     30  C   UNL     1      -5.395  -3.190  -2.320  0.00  0.00    +0.023 A 
ATOM     31  C   UNL     1      -6.317  -3.408  -1.315  0.00  0.00    +0.002 A 
ATOM     32  C   UNL     1      -5.893  -3.577  -0.010  0.00  0.00    +0.000 A 
ATOM     33  C   UNL     1      -4.545  -3.527   0.295  0.00  0.00    +0.002 A 
ATOM     34  C   UNL     1      -3.617  -3.315  -0.706  0.00  0.00    +0.023 A 
ENDBRANCH  27  29
ENDBRANCH   3  25
TORSDOF 6
