REMARK  Name = ZINC06166491
REMARK  9 active torsions:
REMARK  status: ('A' for Active; 'I' for Inactive)
REMARK    1  A    between atoms: C_1  and  C_2
REMARK    2  A    between atoms: C_2  and  O_3
REMARK    3  A    between atoms: O_3  and  C_4
REMARK    4  A    between atoms: C_13  and  C_14
REMARK    5  A    between atoms: N_15  and  N_16
REMARK    6  A    between atoms: C_17  and  C_19
REMARK    7  A    between atoms: C_19  and  C_21
REMARK    8  A    between atoms: C_19  and  N_22
REMARK    9  A    between atoms: C_33  and  C_37
REMARK                            x       y       z     vdW  Elec       q    Type
REMARK                         _______ _______ _______ _____ _____    ______ ____
ROOT
ATOM      1  N   UNL     1      -2.572   8.058   0.068  0.00  0.00    -0.205 N 
ATOM      2  C   UNL     1      -2.563   9.405   0.075  0.00  0.00    +0.255 C 
ATOM      3  O   UNL     1      -1.509  10.005   0.068  0.00  0.00    -0.272 OA
ATOM      4  H   UNL     1      -3.416   7.578   0.074  0.00  0.00    +0.177 HD
ENDROOT
BRANCH   1   6
ATOM      5  C   UNL     1      -1.372   6.050   0.046  0.00  0.00    +0.142 C 
ATOM      6  N   UNL     1      -1.364   7.349   0.053  0.00  0.00    -0.188 NA
BRANCH   5  16
ATOM      7  C   UNL     1       1.117   5.981   0.022  0.00  0.00    +0.130 A 
ATOM      8  C   UNL     1       2.316   5.269   0.008  0.00  0.00    +0.047 A 
ATOM      9  C   UNL     1       2.342   3.910   0.001  0.00  0.00    +0.012 A 
ATOM     10  C   UNL     1       1.148   3.168   0.008  0.00  0.00    -0.017 A 
ATOM     11  C   UNL     1       1.163   1.762   0.000  0.00  0.00    +0.008 A 
ATOM     12  C   UNL     1      -0.013   1.076   0.008  0.00  0.00    +0.001 A 
ATOM     13  C   UNL     1      -1.234   1.745   0.017  0.00  0.00    +0.001 A 
ATOM     14  C   UNL     1      -1.286   3.107   0.030  0.00  0.00    +0.009 A 
ATOM     15  C   UNL     1      -0.096   3.845   0.023  0.00  0.00    -0.006 A 
ATOM     16  C   UNL     1      -0.104   5.306   0.030  0.00  0.00    +0.044 A 
BRANCH   7  17
ATOM     17  O   UNL     1       1.138   7.338   0.029  0.00  0.00    -0.492 OA
BRANCH  17  19
ATOM     18  C   UNL     1       2.244   9.487   0.030  0.00  0.00    +0.048 C 
ATOM     19  C   UNL     1       2.421   7.967   0.020  0.00  0.00    +0.226 C 
ENDBRANCH  17  19
ENDBRANCH   7  17
ENDBRANCH   5  16
ENDBRANCH   1   6
BRANCH   2  20
ATOM     20  C   UNL     1      -3.864  10.168   0.091  0.00  0.00    +0.176 C 
ATOM     21  C   UNL     1      -4.656   9.797   1.347  0.00  0.00    +0.041 C 
BRANCH  20  22
ATOM     22  N   UNL     1      -3.586  11.606   0.096  0.00  0.00    -0.287 N 
ATOM     23  C   UNL     1      -2.869  12.142   1.117  0.00  0.00    +0.204 A 
ATOM     24  N   UNL     1      -2.602  13.420   1.158  0.00  0.00    -0.230 NA
ATOM     25  C   UNL     1      -3.024  14.237   0.197  0.00  0.00    +0.116 A 
ATOM     26  C   UNL     1      -3.771  13.776  -0.898  0.00  0.00    +0.076 A 
ATOM     27  C   UNL     1      -4.043  12.369  -0.915  0.00  0.00    +0.263 A 
ATOM     28  O   UNL     1      -4.681  11.872  -1.827  0.00  0.00    -0.267 OA
ATOM     29  C   UNL     1      -4.166  14.789  -1.876  0.00  0.00    -0.023 A 
ATOM     30  C   UNL     1      -3.777  16.058  -1.633  0.00  0.00    -0.004 A 
ATOM     31  S   UNL     1      -2.876  15.979  -0.109  0.00  0.00    -0.073 S 
ATOM     32  C   UNL     1      -4.052  17.268  -2.474  0.00  0.00    +0.046 C 
ATOM     33  C   UNL     1      -5.163  16.920  -3.475  0.00  0.00    -0.009 C 
ATOM     34  C   UNL     1      -4.827  15.580  -4.136  0.00  0.00    +0.008 C 
ATOM     35  C   UNL     1      -4.979  14.447  -3.121  0.00  0.00    +0.037 C 
ATOM     36  C   UNL     1      -5.251  18.012  -4.543  0.00  0.00    +0.008 C 
ENDBRANCH  20  22
ENDBRANCH   2  20
TORSDOF 6
