REMARK  Name = ZINC44878239
REMARK  10 active torsions:
REMARK  status: ('A' for Active; 'I' for Inactive)
REMARK    1  A    between atoms: C_1  and  C_2
REMARK    2  A    between atoms: N_7  and  C_9
REMARK    3  A    between atoms: C_9  and  C_10
REMARK    4  A    between atoms: C_13  and  C_16
REMARK    5  A    between atoms: C_16  and  N_17
REMARK    6  A    between atoms: C_18  and  C_20
REMARK    7  A    between atoms: C_20  and  N_21
REMARK    8  A    between atoms: N_21  and  C_22
REMARK    9  A    between atoms: N_21  and  S_28
REMARK   10  A    between atoms: S_28  and  C_31
REMARK                            x       y       z     vdW  Elec       q    Type
REMARK                         _______ _______ _______ _____ _____    ______ ____
ROOT
ATOM      1  N   UNL     1       3.591 -11.001   1.587  0.00  0.00    -0.310 N 
ATOM      2  C   UNL     1       2.720 -11.699   0.832  0.00  0.00    +0.232 C 
ATOM      3  O   UNL     1       2.816 -12.906   0.753  0.00  0.00    -0.274 OA
ATOM      4  H   UNL     1       3.514 -10.036   1.650  0.00  0.00    +0.149 HD
ENDROOT
BRANCH   1   5
ATOM      5  C   UNL     1       4.654 -11.700   2.314  0.00  0.00    +0.139 C 
BRANCH   5   9
ATOM      6  C   UNL     1       7.007  -8.864   4.474  0.00  0.00    -0.064 A 
ATOM      7  C   UNL     1       5.901  -9.441   5.070  0.00  0.00    +0.002 A 
ATOM      8  C   UNL     1       5.139 -10.359   4.371  0.00  0.00    +0.005 A 
ATOM      9  C   UNL     1       5.484 -10.699   3.076  0.00  0.00    -0.030 A 
ATOM     10  C   UNL     1       6.589 -10.121   2.480  0.00  0.00    +0.005 A 
ATOM     11  C   UNL     1       7.348  -9.200   3.178  0.00  0.00    +0.002 A 
BRANCH   6  12
ATOM     12  C   UNL     1       7.837  -7.863   5.237  0.00  0.00    -0.043 C 
BRANCH  12  18
ATOM     13  C   UNL     1       8.609  -3.091   6.009  0.00  0.00    +0.005 C 
ATOM     14  C   UNL     1       7.688  -4.115   5.342  0.00  0.00    -0.031 C 
ATOM     15  C   UNL     1       6.266  -3.956   5.888  0.00  0.00    -0.001 C 
ATOM     16  C   UNL     1       5.370  -5.035   5.273  0.00  0.00    -0.018 C 
ATOM     17  C   UNL     1       5.959  -6.414   5.579  0.00  0.00    -0.078 C 
ATOM     18  N   UNL     1       7.307  -6.512   5.008  0.00  0.00    +0.383 N 
ATOM     19  C   UNL     1       8.191  -5.528   5.644  0.00  0.00    -0.075 C 
ATOM     20  H   UNL     1       7.266  -6.333   4.016  0.00  0.00    -0.081 HD
ENDBRANCH  12  18
ENDBRANCH   6  12
ENDBRANCH   5   9
ENDBRANCH   1   5
BRANCH   2  21
ATOM     21  C   UNL     1       1.626 -10.980   0.084  0.00  0.00    +0.227 C 
BRANCH  21  22
ATOM     22  N   UNL     1       0.820 -11.954  -0.656  0.00  0.00    -0.194 N 
BRANCH  22  23
ATOM     23  C   UNL     1      -0.233 -12.616  -0.021  0.00  0.00    +0.052 A 
ATOM     24  C   UNL     1      -0.153 -13.982   0.218  0.00  0.00    +0.025 A 
ATOM     25  C   UNL     1      -1.196 -14.633   0.847  0.00  0.00    +0.002 A 
ATOM     26  C   UNL     1      -2.319 -13.927   1.238  0.00  0.00    +0.000 A 
ATOM     27  C   UNL     1      -2.402 -12.567   1.001  0.00  0.00    +0.002 A 
ATOM     28  C   UNL     1      -1.360 -11.909   0.378  0.00  0.00    +0.025 A 
ENDBRANCH  22  23
BRANCH  22  29
ATOM     29  S   UNL     1       1.157 -12.269  -2.247  0.00  0.00    +0.075 S 
ATOM     30  O   UNL     1       0.003 -12.896  -2.790  0.00  0.00    -0.150 OA
ATOM     31  O   UNL     1       1.703 -11.075  -2.791  0.00  0.00    -0.150 OA
BRANCH  29  32
ATOM     32  C   UNL     1       2.445 -13.471  -2.278  0.00  0.00    +0.109 A 
ATOM     33  C   UNL     1       3.763 -13.075  -2.147  0.00  0.00    +0.031 A 
ATOM     34  C   UNL     1       4.774 -14.017  -2.171  0.00  0.00    +0.040 A 
ATOM     35  C   UNL     1       4.466 -15.358  -2.326  0.00  0.00    +0.124 A 
ATOM     36  C   UNL     1       3.146 -15.753  -2.458  0.00  0.00    +0.040 A 
ATOM     37  C   UNL     1       2.136 -14.810  -2.428  0.00  0.00    +0.031 A 
ATOM     38  F   UNL     1       5.454 -16.279  -2.350  0.00  0.00    -0.205 F 
ENDBRANCH  29  32
ENDBRANCH  22  29
ENDBRANCH  21  22
ENDBRANCH   2  21
TORSDOF 9
