REMARK  Name = ZINC18352893
REMARK  8 active torsions:
REMARK  status: ('A' for Active; 'I' for Inactive)
REMARK    1  A    between atoms: C_2  and  C_3
REMARK    2  A    between atoms: C_3  and  N_4
REMARK    3  A    between atoms: C_5  and  C_7
REMARK    4  A    between atoms: C_7  and  O_8
REMARK    5  A    between atoms: O_8  and  C_9
REMARK    6  A    between atoms: C_9  and  C_11
REMARK    7  A    between atoms: C_25  and  C_26
REMARK    8  A    between atoms: C_29  and  N_32
REMARK                            x       y       z     vdW  Elec       q    Type
REMARK                         _______ _______ _______ _____ _____    ______ ____
ROOT
ATOM      1  C   UNL     1      -7.486   8.131   0.772  0.00  0.00    +0.073 A 
ATOM      2  C   UNL     1      -8.721   7.393   0.506  0.00  0.00    +0.015 A 
ATOM      3  C   UNL     1      -9.975   8.004   0.607  0.00  0.00    +0.011 A 
ATOM      4  C   UNL     1     -11.101   7.280   0.345  0.00  0.00    +0.001 A 
ATOM      5  C   UNL     1     -11.017   5.938  -0.022  0.00  0.00    +0.002 A 
ATOM      6  C   UNL     1      -9.813   5.313  -0.129  0.00  0.00    +0.028 A 
ATOM      7  C   UNL     1      -8.630   6.028   0.135  0.00  0.00    +0.072 A 
ATOM      8  N   UNL     1      -7.437   5.442   0.042  0.00  0.00    -0.247 NA
ATOM      9  C   UNL     1      -6.306   6.086   0.280  0.00  0.00    +0.072 A 
ATOM     10  C   UNL     1      -6.286   7.444   0.646  0.00  0.00    -0.007 A 
ATOM     11  C   UNL     1      -4.999   8.180   0.898  0.00  0.00    +0.038 C 
ATOM     12  C   UNL     1      -3.871   7.216   1.255  0.00  0.00    +0.009 C 
ATOM     13  C   UNL     1      -3.747   6.151   0.164  0.00  0.00    +0.037 C 
ATOM     14  C   UNL     1      -5.029   5.347   0.157  0.00  0.00    -0.021 C 
ATOM     15  C   UNL     1      -5.009   4.008   0.048  0.00  0.00    +0.013 C 
ENDROOT
BRANCH  15  16
ATOM     16  C   UNL     1      -3.744   3.311  -0.244  0.00  0.00    -0.025 A 
ATOM     17  C   UNL     1      -3.508   2.037   0.278  0.00  0.00    +0.010 A 
ATOM     18  C   UNL     1      -2.321   1.391   0.000  0.00  0.00    +0.033 A 
ATOM     19  C   UNL     1      -1.366   2.002  -0.793  0.00  0.00    +0.126 A 
ATOM     20  C   UNL     1      -1.591   3.266  -1.309  0.00  0.00    +0.033 A 
ATOM     21  C   UNL     1      -2.775   3.922  -1.045  0.00  0.00    +0.010 A 
BRANCH  19  22
ATOM     22  N   UNL     1      -0.095   1.302  -1.086  0.00  0.00    +0.056 N 
ATOM     23  O   UNL     1       0.108   0.191  -0.630  0.00  0.00    -0.126 OA
ATOM     24  O   UNL     1       0.746   1.835  -1.788  0.00  0.00    -0.126 OA
ENDBRANCH  19  22
ENDBRANCH  15  16
BRANCH   1  25
ATOM     25  C   UNL     1      -7.515   9.556   1.161  0.00  0.00    +0.341 C 
ATOM     26  O   UNL     1      -7.579   9.864   2.334  0.00  0.00    -0.245 OA
BRANCH  25  27
ATOM     27  O   UNL     1      -7.470  10.514   0.215  0.00  0.00    -0.452 OA
BRANCH  27  28
ATOM     28  C   UNL     1      -7.502  11.893   0.670  0.00  0.00    +0.328 C 
BRANCH  28  30
ATOM     29  N   UNL     1      -7.461  14.151  -0.337  0.00  0.00    -0.302 N 
ATOM     30  C   UNL     1      -7.444  12.816  -0.519  0.00  0.00    +0.251 C 
ATOM     31  O   UNL     1      -7.382  12.358  -1.640  0.00  0.00    -0.272 OA
ATOM     32  H   UNL     1      -7.511  14.518   0.559  0.00  0.00    +0.150 HD
BRANCH  29  33
ATOM     33  C   UNL     1      -7.405  15.049  -1.494  0.00  0.00    +0.193 C 
BRANCH  33  35
ATOM     34  C   UNL     1      -7.463  17.561  -0.664  0.00  0.00    +0.005 C 
ATOM     35  C   UNL     1      -7.437  16.446  -1.032  0.00  0.00    -0.087 C 
ENDBRANCH  33  35
ENDBRANCH  29  33
ENDBRANCH  28  30
ENDBRANCH  27  28
ENDBRANCH  25  27
ENDBRANCH   1  25
TORSDOF 8
