REMARK  Name = ZINC12273577
REMARK  11 active torsions:
REMARK  status: ('A' for Active; 'I' for Inactive)
REMARK    1  A    between atoms: C_1  and  C_2
REMARK    2  A    between atoms: C_2  and  C_4
REMARK    3  A    between atoms: C_2  and  O_20
REMARK    4  A    between atoms: N_6  and  C_7
REMARK    5  A    between atoms: C_10  and  N_17
REMARK    6  A    between atoms: C_12  and  C_13
REMARK    7  A    between atoms: O_20  and  C_21
REMARK    8  A    between atoms: C_21  and  C_23
REMARK    9  A    between atoms: C_23  and  C_24
REMARK   10  A    between atoms: C_24  and  C_25
REMARK   11  A    between atoms: C_28  and  C_30
REMARK                            x       y       z     vdW  Elec       q    Type
REMARK                         _______ _______ _______ _____ _____    ______ ____
ROOT
ATOM      1  C   UNL     1       8.176  -0.789  -2.600  0.00  0.00    +0.062 C 
ATOM      2  C   UNL     1       7.668   0.654  -2.602  0.00  0.00    +0.259 C 
ENDROOT
BRANCH   2   3
ATOM      3  C   UNL     1       8.225   1.380  -3.800  0.00  0.00    +0.258 C 
ATOM      4  O   UNL     1       7.473   1.853  -4.626  0.00  0.00    -0.271 OA
ATOM      5  N   UNL     1       9.558   1.504  -3.954  0.00  0.00    -0.282 N 
ATOM      6  H   UNL     1      10.157   1.196  -3.256  0.00  0.00    +0.155 HD
BRANCH   5   7
ATOM      7  C   UNL     1      10.078   2.074  -5.121  0.00  0.00    +0.045 A 
ATOM      8  C   UNL     1       9.341   2.044  -6.298  0.00  0.00    +0.026 A 
ATOM      9  C   UNL     1       9.857   2.609  -7.448  0.00  0.00    +0.034 A 
ATOM     10  C   UNL     1      11.105   3.204  -7.428  0.00  0.00    +0.127 A 
ATOM     11  C   UNL     1      11.841   3.236  -6.258  0.00  0.00    +0.047 A 
ATOM     12  C   UNL     1      11.328   2.678  -5.103  0.00  0.00    +0.078 A 
BRANCH  12  13
ATOM     13  C   UNL     1      12.128   2.718  -3.826  0.00  0.00    +0.419 C 
ATOM     14  F   UNL     1      13.343   3.372  -4.058  0.00  0.00    -0.166 F 
ATOM     15  F   UNL     1      11.407   3.407  -2.846  0.00  0.00    -0.166 F 
ATOM     16  F   UNL     1      12.377   1.412  -3.391  0.00  0.00    -0.166 F 
ENDBRANCH  12  13
BRANCH  10  17
ATOM     17  N   UNL     1      11.655   3.809  -8.662  0.00  0.00    +0.056 N 
ATOM     18  O   UNL     1      11.008   3.782  -9.694  0.00  0.00    -0.126 OA
ATOM     19  O   UNL     1      12.754   4.334  -8.646  0.00  0.00    -0.126 OA
ENDBRANCH  10  17
ENDBRANCH   5   7
ENDBRANCH   2   3
BRANCH   2  20
ATOM     20  O   UNL     1       6.218   0.657  -2.666  0.00  0.00    -0.452 OA
BRANCH  20  21
ATOM     21  C   UNL     1       5.557   0.642  -1.497  0.00  0.00    +0.308 C 
ATOM     22  O   UNL     1       6.170   0.627  -0.456  0.00  0.00    -0.251 OA
BRANCH  21  23
ATOM     23  C   UNL     1       4.050   0.644  -1.484  0.00  0.00    +0.130 C 
BRANCH  23  24
ATOM     24  C   UNL     1       3.553   0.625  -0.037  0.00  0.00    +0.107 C 
BRANCH  24  25
ATOM     25  C   UNL     1       2.046   0.627  -0.023  0.00  0.00    +0.197 A 
ATOM     26  N   UNL     1       1.288  -0.433  -0.031  0.00  0.00    -0.221 NA
ATOM     27  C   UNL     1       0.003  -0.049  -0.014  0.00  0.00    +0.161 A 
ATOM     28  C   UNL     1      -0.018   1.309   0.005  0.00  0.00    +0.158 A 
ATOM     29  O   UNL     1       1.270   1.719  -0.002  0.00  0.00    -0.440 OA
BRANCH  28  30
ATOM     30  C   UNL     1      -1.217   2.172   0.022  0.00  0.00    +0.054 A 
ATOM     31  C   UNL     1      -1.329   3.198   0.961  0.00  0.00    +0.014 A 
ATOM     32  C   UNL     1      -2.452   4.000   0.971  0.00  0.00    +0.001 A 
ATOM     33  C   UNL     1      -3.466   3.790   0.054  0.00  0.00    +0.003 A 
ATOM     34  C   UNL     1      -3.364   2.775  -0.880  0.00  0.00    +0.039 A 
ATOM     35  C   UNL     1      -2.243   1.967  -0.906  0.00  0.00    +0.134 A 
ATOM     36  F   UNL     1      -2.140   0.980  -1.822  0.00  0.00    -0.205 F 
ENDBRANCH  28  30
ENDBRANCH  24  25
ENDBRANCH  23  24
ENDBRANCH  21  23
ENDBRANCH  20  21
ENDBRANCH   2  20
TORSDOF 10
