REMARK  Name = ZINC48943871
REMARK  6 active torsions:
REMARK  status: ('A' for Active; 'I' for Inactive)
REMARK    1  A    between atoms: C_1  and  C_2
REMARK    2  A    between atoms: C_6  and  C_19
REMARK    3  A    between atoms: C_8  and  N_11
REMARK    4  A    between atoms: C_12  and  C_14
REMARK    5  A    between atoms: C_19  and  C_20
REMARK    6  A    between atoms: C_19  and  C_21
REMARK                            x       y       z     vdW  Elec       q    Type
REMARK                         _______ _______ _______ _____ _____    ______ ____
ROOT
ATOM      1  C   UNL     1      -0.019   1.526   0.010  0.00  0.00    +0.007 C 
ATOM      2  C   UNL     1       0.002  -0.004   0.002  0.00  0.00    -0.012 C 
ATOM      3  C   UNL     1       0.718  -0.497  -1.257  0.00  0.00    +0.004 C 
ATOM      4  C   UNL     1       0.739  -2.027  -1.265  0.00  0.00    +0.006 C 
ATOM      5  C   UNL     1       1.479  -2.534  -0.026  0.00  0.00    +0.012 C 
ATOM      6  C   UNL     1       0.763  -2.041   1.233  0.00  0.00    +0.077 C 
ATOM      7  C   UNL     1       0.742  -0.511   1.242  0.00  0.00    +0.026 C 
ENDROOT
BRANCH   6   8
ATOM      8  N   UNL     1      -0.612  -2.548   1.244  0.00  0.00    -0.307 N 
ATOM      9  C   UNL     1      -1.268  -2.692   2.412  0.00  0.00    +0.265 C 
ATOM     10  O   UNL     1      -0.719  -2.401   3.457  0.00  0.00    -0.268 OA
ATOM     11  H   UNL     1      -1.049  -2.780   0.410  0.00  0.00    +0.149 HD
BRANCH   9  12
ATOM     12  C   UNL     1      -2.654  -3.203   2.422  0.00  0.00    +0.154 A 
ATOM     13  C   UNL     1      -3.384  -3.369   3.593  0.00  0.00    +0.155 A 
ATOM     14  N   UNL     1      -4.597  -3.831   3.429  0.00  0.00    -0.198 NA
ATOM     15  S   UNL     1      -4.749  -4.029   1.835  0.00  0.00    +0.116 S 
ATOM     16  N   UNL     1      -3.301  -3.535   1.318  0.00  0.00    -0.186 NA
ENDBRANCH   9  12
ENDBRANCH   6   8
BRANCH   5  17
ATOM     17  C   UNL     1       1.500  -4.064  -0.034  0.00  0.00    -0.012 C 
ATOM     18  C   UNL     1       2.216  -4.557  -1.293  0.00  0.00    +0.007 C 
ATOM     19  C   UNL     1       2.240  -4.571   1.205  0.00  0.00    +0.007 C 
ENDBRANCH   5  17
TORSDOF 3
