REMARK  Name = ZINC38769047
REMARK  12 active torsions:
REMARK  status: ('A' for Active; 'I' for Inactive)
REMARK    1  A    between atoms: C_1  and  C_2
REMARK    2  A    between atoms: C_5  and  C_8
REMARK    3  A    between atoms: C_8  and  O_9
REMARK    4  A    between atoms: O_9  and  C_10
REMARK    5  A    between atoms: C_13  and  C_17
REMARK    6  A    between atoms: C_14  and  O_16
REMARK    7  A    between atoms: C_19  and  C_24
REMARK    8  A    between atoms: C_20  and  C_23
REMARK    9  A    between atoms: C_27  and  O_32
REMARK   10  A    between atoms: C_28  and  O_30
REMARK   11  A    between atoms: O_30  and  C_31
REMARK   12  A    between atoms: O_32  and  C_33
REMARK                            x       y       z     vdW  Elec       q    Type
REMARK                         _______ _______ _______ _____ _____    ______ ____
ROOT
ATOM      1  C   UNL     1       1.608  -6.079  -0.040  0.00  0.00    +0.124 A 
ATOM      2  C   UNL     1       0.519  -6.939  -0.044  0.00  0.00    +0.046 A 
ATOM      3  C   UNL     1       0.717  -8.306  -0.053  0.00  0.00    +0.013 A 
ATOM      4  C   UNL     1       1.999  -8.821  -0.056  0.00  0.00    +0.022 A 
ATOM      5  C   UNL     1       3.092  -7.965  -0.052  0.00  0.00    +0.126 A 
ATOM      6  C   UNL     1       2.896  -6.593  -0.050  0.00  0.00    +0.091 A 
ENDROOT
BRANCH   4   7
ATOM      7  C   UNL     1       2.212 -10.313  -0.065  0.00  0.00    +0.164 C 
ATOM      8  C   UNL     1       2.471 -10.812  -1.476  0.00  0.00    +0.011 C 
ATOM      9  C   UNL     1       1.441 -11.662  -1.707  0.00  0.00    +0.064 C 
ATOM     10  N   UNL     1       0.634 -11.723  -0.642  0.00  0.00    -0.182 NA
ATOM     11  N   UNL     1       0.975 -11.018   0.315  0.00  0.00    -0.297 N 
ATOM     12  C   UNL     1       1.233 -12.430  -2.987  0.00  0.00    +0.068 C 
ATOM     13  H   UNL     1       0.513 -10.941   1.164  0.00  0.00    +0.183 HD
BRANCH   8  14
ATOM     14  C   UNL     1       3.576 -10.456  -2.378  0.00  0.00    -0.014 A 
ATOM     15  C   UNL     1       4.890 -10.811  -2.050  0.00  0.00    +0.012 A 
ATOM     16  C   UNL     1       5.924 -10.476  -2.897  0.00  0.00    +0.050 A 
ATOM     17  C   UNL     1       5.667  -9.788  -4.075  0.00  0.00    +0.162 A 
ATOM     18  C   UNL     1       4.361  -9.431  -4.408  0.00  0.00    +0.162 A 
ATOM     19  C   UNL     1       3.318  -9.768  -3.568  0.00  0.00    +0.057 A 
BRANCH  18  20
ATOM     20  O   UNL     1       4.114  -8.757  -5.563  0.00  0.00    -0.491 OA
ATOM     21  C   UNL     1       2.753  -8.424  -5.841  0.00  0.00    +0.277 C 
ENDBRANCH  18  20
BRANCH  17  22
ATOM     22  O   UNL     1       6.691  -9.462  -4.906  0.00  0.00    -0.491 OA
ATOM     23  C   UNL     1       8.004  -9.857  -4.504  0.00  0.00    +0.277 C 
ENDBRANCH  17  22
ENDBRANCH   8  14
ENDBRANCH   4   7
BRANCH   5  24
ATOM     24  O   UNL     1       4.353  -8.472  -0.056  0.00  0.00    -0.506 OA
ATOM     25  H   UNL     1       4.717  -8.614  -0.940  0.00  0.00    +0.292 HD
ENDBRANCH   5  24
BRANCH   1  26
ATOM     26  O   UNL     1       1.413  -4.734  -0.032  0.00  0.00    -0.487 OA
BRANCH  26  27
ATOM     27  C   UNL     1       0.059  -4.275  -0.021  0.00  0.00    +0.264 C 
BRANCH  27  32
ATOM     28  C   UNL     1      -0.018   1.503   0.010  0.00  0.00    +0.044 C 
ATOM     29  C   UNL     1       0.002  -0.004   0.002  0.00  0.00    -0.050 A 
ATOM     30  C   UNL     1       0.006  -0.689  -1.199  0.00  0.00    +0.004 A 
ATOM     31  C   UNL     1       0.025  -2.071  -1.206  0.00  0.00    +0.007 A 
ATOM     32  C   UNL     1       0.040  -2.768  -0.013  0.00  0.00    -0.010 A 
ATOM     33  C   UNL     1       0.037  -2.084   1.188  0.00  0.00    +0.007 A 
ATOM     34  C   UNL     1       0.023  -0.702   1.195  0.00  0.00    +0.004 A 
ENDBRANCH  27  32
ENDBRANCH  26  27
ENDBRANCH   1  26
TORSDOF 8
