REMARK  Name = ZINC00902272
REMARK  9 active torsions:
REMARK  status: ('A' for Active; 'I' for Inactive)
REMARK    1  A    between atoms: C_1  and  C_2
REMARK    2  A    between atoms: C_2  and  C_3
REMARK    3  A    between atoms: C_10  and  N_14
REMARK    4  A    between atoms: C_11  and  C_12
REMARK    5  A    between atoms: C_15  and  C_17
REMARK    6  A    between atoms: C_17  and  S_18
REMARK    7  A    between atoms: S_18  and  C_19
REMARK    8  A    between atoms: C_21  and  C_29
REMARK    9  A    between atoms: C_23  and  C_25
REMARK                            x       y       z     vdW  Elec       q    Type
REMARK                         _______ _______ _______ _____ _____    ______ ____
ROOT
ATOM      1  N   UNL     1       1.465  -2.129   7.358  0.00  0.00    -0.278 N 
ATOM      2  C   UNL     1       0.885  -1.391   8.324  0.00  0.00    +0.228 C 
ATOM      3  O   UNL     1       0.164  -0.461   8.027  0.00  0.00    -0.275 OA
ATOM      4  H   UNL     1       2.042  -2.872   7.595  0.00  0.00    +0.155 HD
ENDROOT
BRANCH   1  11
ATOM      5  C   UNL     1       0.742  -0.511   1.242  0.00  0.00    -0.006 C 
ATOM      6  C   UNL     1       0.868  -2.036   1.176  0.00  0.00    +0.008 C 
ATOM      7  C   UNL     1       1.813  -2.528   2.274  0.00  0.00    +0.037 C 
ATOM      8  C   UNL     1       1.355  -1.952   3.606  0.00  0.00    -0.018 A 
ATOM      9  C   UNL     1       0.527  -0.886   3.662  0.00  0.00    -0.004 A 
ATOM     10  S   UNL     1       0.287  -0.595   5.390  0.00  0.00    -0.077 S 
ATOM     11  C   UNL     1       1.239  -1.826   6.022  0.00  0.00    +0.090 A 
ATOM     12  C   UNL     1       1.747  -2.468   4.905  0.00  0.00    +0.084 A 
ATOM     13  C   UNL     1      -0.046  -0.128   2.503  0.00  0.00    +0.046 C 
BRANCH   5  15
ATOM     14  C   UNL     1      -0.019   1.526   0.010  0.00  0.00    +0.004 C 
ATOM     15  C   UNL     1       0.002  -0.004   0.002  0.00  0.00    +0.000 C 
ENDBRANCH   5  15
BRANCH  12  16
ATOM     16  C   UNL     1       2.621  -3.596   5.027  0.00  0.00    +0.102 C 
ATOM     17  N   UNL     1       3.315  -4.490   5.123  0.00  0.00    -0.191 NA
ENDBRANCH  12  16
ENDBRANCH   1  11
BRANCH   2  18
ATOM     18  C   UNL     1       1.131  -1.720   9.774  0.00  0.00    +0.173 C 
BRANCH  18  19
ATOM     19  S   UNL     1       0.217  -0.554  10.822  0.00  0.00    -0.077 S 
BRANCH  19  20
ATOM     20  C   UNL     1       0.603  -1.065  12.464  0.00  0.00    +0.190 A 
ATOM     21  N   UNL     1       0.076  -0.406  13.484  0.00  0.00    -0.219 NA
ATOM     22  C   UNL     1       0.349  -0.768  14.738  0.00  0.00    +0.111 A 
ATOM     23  C   UNL     1       1.202  -1.858  14.959  0.00  0.00    +0.064 A 
ATOM     24  C   UNL     1       1.727  -2.515  13.863  0.00  0.00    +0.149 A 
ATOM     25  N   UNL     1       1.408  -2.102  12.645  0.00  0.00    -0.218 NA
BRANCH  22  26
ATOM     26  C   UNL     1      -0.237  -0.033  15.875  0.00  0.00    +0.153 A 
ATOM     27  C   UNL     1      -1.079   1.033  15.789  0.00  0.00    +0.051 A 
ATOM     28  C   UNL     1      -1.387   1.414  17.108  0.00  0.00    +0.042 A 
ATOM     29  C   UNL     1      -0.726   0.572  17.928  0.00  0.00    +0.196 A 
ATOM     30  O   UNL     1      -0.037  -0.304  17.180  0.00  0.00    -0.461 OA
ENDBRANCH  22  26
BRANCH  24  31
ATOM     31  C   UNL     1       2.649  -3.692  14.050  0.00  0.00    +0.434 C 
ATOM     32  F   UNL     1       1.897  -4.870  14.099  0.00  0.00    -0.164 F 
ATOM     33  F   UNL     1       3.548  -3.756  12.980  0.00  0.00    -0.164 F 
ATOM     34  F   UNL     1       3.359  -3.542  15.246  0.00  0.00    -0.164 F 
ENDBRANCH  24  31
ENDBRANCH  19  20
ENDBRANCH  18  19
ENDBRANCH   2  18
TORSDOF 8
