REMARK  Name = ZINC01375071
REMARK  12 active torsions:
REMARK  status: ('A' for Active; 'I' for Inactive)
REMARK    1  A    between atoms: C_1  and  C_2
REMARK    2  A    between atoms: C_2  and  C_3
REMARK    3  A    between atoms: C_3  and  C_5
REMARK    4  A    between atoms: C_3  and  N_17
REMARK    5  A    between atoms: N_9  and  C_10
REMARK    6  A    between atoms: C_10  and  C_11
REMARK    7  A    between atoms: N_17  and  C_18
REMARK    8  A    between atoms: N_17  and  C_28
REMARK    9  A    between atoms: C_18  and  C_19
REMARK   10  A    between atoms: C_28  and  C_29
REMARK   11  A    between atoms: C_33  and  C_42
REMARK   12  A    between atoms: C_34  and  C_41
REMARK                            x       y       z     vdW  Elec       q    Type
REMARK                         _______ _______ _______ _____ _____    ______ ____
ROOT
ATOM      1  N   UNL     1      -2.059  -0.316   1.385  0.00  0.00    -0.284 NA
ENDROOT
BRANCH   1   2
ATOM      2  C   UNL     1      -1.720  -0.634  -0.009  0.00  0.00    +0.127 C 
BRANCH   2   3
ATOM      3  C   UNL     1      -2.923  -0.396  -0.886  0.00  0.00    +0.169 A 
ATOM      4  N   UNL     1      -4.157  -0.759  -0.635  0.00  0.00    -0.112 NA
ATOM      5  N   UNL     1      -4.892  -0.375  -1.622  0.00  0.00    -0.023 NA
ATOM      6  N   UNL     1      -4.158   0.222  -2.495  0.00  0.00    -0.044 NA
ATOM      7  N   UNL     1      -2.938   0.234  -2.075  0.00  0.00    -0.223 N 
BRANCH   7   8
ATOM      8  C   UNL     1      -1.786   0.821  -2.764  0.00  0.00    +0.182 C 
BRANCH   8   9
ATOM      9  C   UNL     1      -1.156  -0.215  -3.659  0.00  0.00    -0.026 A 
ATOM     10  C   UNL     1      -0.158  -1.036  -3.169  0.00  0.00    +0.005 A 
ATOM     11  C   UNL     1       0.420  -1.986  -3.990  0.00  0.00    +0.000 A 
ATOM     12  C   UNL     1       0.001  -2.115  -5.301  0.00  0.00    +0.000 A 
ATOM     13  C   UNL     1      -0.998  -1.293  -5.791  0.00  0.00    +0.000 A 
ATOM     14  C   UNL     1      -1.579  -0.346  -4.968  0.00  0.00    +0.005 A 
ENDBRANCH   8   9
ENDBRANCH   7   8
ENDBRANCH   2   3
BRANCH   2  16
ATOM     15  C   UNL     1      -0.009  -2.316   0.687  0.00  0.00    +0.006 C 
ATOM     16  C   UNL     1      -1.298  -2.101  -0.109  0.00  0.00    +0.023 C 
ENDBRANCH   2  16
ENDBRANCH   1   2
BRANCH   1  17
ATOM     17  C   UNL     1      -3.268  -1.035   1.809  0.00  0.00    +0.120 C 
BRANCH  17  18
ATOM     18  C   UNL     1      -3.361  -1.016   3.313  0.00  0.00    -0.030 A 
ATOM     19  C   UNL     1      -2.677  -1.960   4.058  0.00  0.00    +0.009 A 
ATOM     20  C   UNL     1      -2.759  -1.947   5.438  0.00  0.00    +0.050 A 
ATOM     21  C   UNL     1      -3.527  -0.988   6.078  0.00  0.00    +0.166 A 
ATOM     22  C   UNL     1      -4.215  -0.038   5.328  0.00  0.00    +0.167 A 
ATOM     23  C   UNL     1      -4.124  -0.053   3.946  0.00  0.00    +0.054 A 
ATOM     24  O   UNL     1      -4.891   0.786   6.181  0.00  0.00    -0.453 OA
ATOM     25  C   UNL     1      -4.938   0.083   7.437  0.00  0.00    +0.466 C 
ATOM     26  O   UNL     1      -3.771  -0.760   7.402  0.00  0.00    -0.453 OA
ENDBRANCH  17  18
ENDBRANCH   1  17
BRANCH   1  27
ATOM     27  C   UNL     1      -2.216   1.133   1.571  0.00  0.00    +0.126 C 
BRANCH  27  28
ATOM     28  C   UNL     1      -0.857   1.784   1.612  0.00  0.00    +0.031 A 
ATOM     29  C   UNL     1      -0.349   2.358   0.493  0.00  0.00    +0.020 A 
ATOM     30  C   UNL     1       0.973   2.982   0.566  0.00  0.00    -0.001 A 
ATOM     31  C   UNL     1       1.549   3.591  -0.554  0.00  0.00    +0.013 A 
ATOM     32  C   UNL     1       2.784   4.165  -0.453  0.00  0.00    -0.047 A 
ATOM     33  C   UNL     1       3.474   4.149   0.752  0.00  0.00    -0.046 A 
ATOM     34  C   UNL     1       2.926   3.555   1.869  0.00  0.00    +0.030 A 
ATOM     35  C   UNL     1       1.669   2.965   1.790  0.00  0.00    +0.049 A 
ATOM     36  N   UNL     1       1.097   2.364   2.891  0.00  0.00    -0.322 N 
ATOM     37  H   UNL     1       1.578   2.353   3.733  0.00  0.00    +0.169 HD
ATOM     38  C   UNL     1      -0.120   1.798   2.815  0.00  0.00    +0.254 A 
ATOM     39  O   UNL     1      -0.598   1.281   3.810  0.00  0.00    -0.268 OA
ATOM     40  C   UNL     1       4.836   4.788   0.840  0.00  0.00    +0.044 C 
ATOM     41  C   UNL     1       3.404   4.820  -1.660  0.00  0.00    +0.044 C 
ENDBRANCH  27  28
ENDBRANCH   1  27
TORSDOF 9
