REMARK  Name = ZINC39986312
REMARK  8 active torsions:
REMARK  status: ('A' for Active; 'I' for Inactive)
REMARK    1  A    between atoms: C_1  and  C_2
REMARK    2  A    between atoms: C_5  and  N_34
REMARK    3  A    between atoms: C_7  and  S_8
REMARK    4  A    between atoms: S_8  and  N_11
REMARK    5  A    between atoms: N_11  and  C_12
REMARK    6  A    between atoms: C_14  and  C_23
REMARK    7  A    between atoms: C_15  and  O_22
REMARK    8  A    between atoms: C_32  and  O_33
REMARK                            x       y       z     vdW  Elec       q    Type
REMARK                         _______ _______ _______ _____ _____    ______ ____
ROOT
ATOM      1  C   UNL     1       1.752   2.442   2.282  0.00  0.00    +0.057 A 
ATOM      2  C   UNL     1       0.693   3.206   1.886  0.00  0.00    +0.037 A 
ATOM      3  C   UNL     1       0.895   4.407   1.188  0.00  0.00    +0.030 A 
ATOM      4  C   UNL     1       2.179   4.842   0.886  0.00  0.00    +0.132 A 
ATOM      5  C   UNL     1       3.284   4.067   1.286  0.00  0.00    +0.026 A 
ATOM      6  C   UNL     1       3.070   2.859   1.996  0.00  0.00    +0.008 A 
ATOM      7  C   UNL     1       4.175   2.093   2.397  0.00  0.00    +0.010 A 
ATOM      8  C   UNL     1       5.435   2.521   2.107  0.00  0.00    +0.001 A 
ATOM      9  C   UNL     1       5.646   3.711   1.415  0.00  0.00    +0.001 A 
ATOM     10  C   UNL     1       4.599   4.475   0.999  0.00  0.00    +0.012 A 
ENDROOT
BRANCH   3  11
ATOM     11  C   UNL     1      -0.271   5.217   0.769  0.00  0.00    +0.035 A 
ATOM     12  C   UNL     1      -0.937   4.937  -0.447  0.00  0.00    -0.007 A 
ATOM     13  C   UNL     1      -0.515   3.893  -1.283  0.00  0.00    +0.009 A 
ATOM     14  C   UNL     1      -1.180   3.650  -2.447  0.00  0.00    +0.001 A 
ATOM     15  C   UNL     1      -2.275   4.425  -2.822  0.00  0.00    +0.001 A 
ATOM     16  C   UNL     1      -2.711   5.447  -2.035  0.00  0.00    +0.008 A 
ATOM     17  C   UNL     1      -2.050   5.726  -0.827  0.00  0.00    -0.017 A 
ATOM     18  C   UNL     1      -2.476   6.774   0.009  0.00  0.00    +0.012 A 
ATOM     19  C   UNL     1      -1.821   7.028   1.175  0.00  0.00    +0.046 A 
ATOM     20  C   UNL     1      -0.727   6.258   1.569  0.00  0.00    +0.125 A 
BRANCH  20  21
ATOM     21  O   UNL     1      -0.098   6.531   2.742  0.00  0.00    -0.506 OA
ATOM     22  H   UNL     1       0.624   7.170   2.661  0.00  0.00    +0.292 HD
ENDBRANCH  20  21
ENDBRANCH   3  11
BRANCH   1  23
ATOM     23  N   UNL     1       1.532   1.250   2.977  0.00  0.00    -0.216 N 
ATOM     24  H   UNL     1       2.147   0.974   3.674  0.00  0.00    +0.174 HD
BRANCH  23  25
ATOM     25  S   UNL     1       0.220   0.307   2.609  0.00  0.00    +0.073 S 
ATOM     26  O   UNL     1       0.296  -0.839   3.446  0.00  0.00    -0.150 OA
ATOM     27  O   UNL     1       0.171   0.214   1.192  0.00  0.00    -0.150 OA
BRANCH  25  34
ATOM     28  C   UNL     1      -0.396   1.085   5.467  0.00  0.00    +0.046 C 
ATOM     29  C   UNL     1      -1.412   1.509   4.438  0.00  0.00    -0.024 A 
ATOM     30  C   UNL     1      -2.537   2.213   4.826  0.00  0.00    +0.007 A 
ATOM     31  C   UNL     1      -3.468   2.602   3.882  0.00  0.00    +0.033 A 
ATOM     32  C   UNL     1      -3.276   2.287   2.550  0.00  0.00    +0.128 A 
ATOM     33  C   UNL     1      -2.151   1.584   2.162  0.00  0.00    +0.061 A 
ATOM     34  C   UNL     1      -1.217   1.199   3.105  0.00  0.00    +0.114 A 
BRANCH  32  35
ATOM     35  N   UNL     1      -4.274   2.703   1.540  0.00  0.00    +0.056 N 
ATOM     36  O   UNL     1      -5.258   3.317   1.879  0.00  0.00    -0.126 OA
ATOM     37  O   UNL     1      -4.106   2.428   0.374  0.00  0.00    -0.126 OA
ENDBRANCH  32  35
ENDBRANCH  25  34
ENDBRANCH  23  25
ENDBRANCH   1  23
BRANCH   4  38
ATOM     38  O   UNL     1       2.368   6.005   0.209  0.00  0.00    -0.506 OA
ATOM     39  H   UNL     1       2.453   6.782   0.779  0.00  0.00    +0.292 HD
ENDBRANCH   4  38
TORSDOF 7
