REMARK  Name = ZINC02472348
REMARK  5 active torsions:
REMARK  status: ('A' for Active; 'I' for Inactive)
REMARK    1  A    between atoms: C_1  and  C_2
REMARK    2  A    between atoms: C_2  and  C_3
REMARK    3  A    between atoms: C_2  and  C_4
REMARK    4  A    between atoms: C_7  and  C_10
REMARK    5  A    between atoms: C_13  and  C_22
REMARK                            x       y       z     vdW  Elec       q    Type
REMARK                         _______ _______ _______ _____ _____    ______ ____
ROOT
ATOM      1  C   UNL     1      -0.299   8.039   1.485  0.00  0.00    +0.143 C 
ATOM      2  C   UNL     1      -0.332   6.506   1.463  0.00  0.00    +0.058 C 
ATOM      3  C   UNL     1      -0.079   6.003   0.037  0.00  0.00    +0.106 C 
ATOM      4  N   UNL     1      -1.165   6.489  -0.837  0.00  0.00    -0.307 N 
ATOM      5  C   UNL     1      -1.550   7.813  -0.658  0.00  0.00    +0.216 A 
ATOM      6  N   UNL     1      -1.153   8.545   0.410  0.00  0.00    -0.224 N 
ATOM      7  N   UNL     1      -1.716   9.812   0.256  0.00  0.00    -0.132 NA
ATOM      8  C   UNL     1      -2.405   9.787  -0.863  0.00  0.00    +0.233 A 
ATOM      9  N   UNL     1      -2.301   8.569  -1.413  0.00  0.00    -0.180 NA
ATOM     10  N   UNL     1      -3.130  10.856  -1.392  0.00  0.00    -0.326 N 
ATOM     11  H   UNL     1      -1.587   5.917  -1.496  0.00  0.00    +0.149 HD
ATOM     12  H   UNL     1      -3.151  11.706  -0.925  0.00  0.00    +0.145 HD
ATOM     13  H   UNL     1      -3.612  10.749  -2.227  0.00  0.00    +0.145 HD
ENDROOT
BRANCH   3  14
ATOM     14  C   UNL     1      -0.059   4.497   0.027  0.00  0.00    -0.027 A 
ATOM     15  C   UNL     1       1.148   3.822   0.012  0.00  0.00    +0.007 A 
ATOM     16  C   UNL     1       1.167   2.440   0.004  0.00  0.00    +0.020 A 
ATOM     17  C   UNL     1      -0.021   1.732   0.012  0.00  0.00    +0.041 A 
ATOM     18  C   UNL     1      -1.229   2.407   0.021  0.00  0.00    +0.020 A 
ATOM     19  C   UNL     1      -1.247   3.789   0.035  0.00  0.00    +0.007 A 
ATOM     20 CL   UNL     1       0.002  -0.004   0.002  0.00  0.00    -0.084 Cl
ENDBRANCH   3  14
BRANCH   1  24
ATOM     21  C   UNL     1      -1.739   9.448   5.252  0.00  0.00    -0.045 A 
ATOM     22  C   UNL     1      -0.456   9.758   4.842  0.00  0.00    +0.004 A 
ATOM     23  C   UNL     1       0.010   9.302   3.623  0.00  0.00    +0.006 A 
ATOM     24  C   UNL     1      -0.807   8.536   2.814  0.00  0.00    -0.023 A 
ATOM     25  C   UNL     1      -2.092   8.230   3.221  0.00  0.00    +0.006 A 
ATOM     26  C   UNL     1      -2.557   8.682   4.442  0.00  0.00    +0.004 A 
BRANCH  21  28
ATOM     27  C   UNL     1      -3.478  10.825   6.360  0.00  0.00    +0.012 C 
ATOM     28  C   UNL     1      -2.247   9.944   6.581  0.00  0.00    +0.013 C 
ATOM     29  C   UNL     1      -2.625   8.750   7.460  0.00  0.00    +0.012 C 
ENDBRANCH  21  28
ENDBRANCH   1  24
TORSDOF 3
