REMARK  Name = ZINC63375451
REMARK  8 active torsions:
REMARK  status: ('A' for Active; 'I' for Inactive)
REMARK    1  A    between atoms: C_1  and  C_2
REMARK    2  A    between atoms: C_11  and  O_13
REMARK    3  A    between atoms: O_13  and  C_14
REMARK    4  A    between atoms: C_14  and  C_16
REMARK    5  A    between atoms: C_14  and  C_17
REMARK    6  A    between atoms: N_19  and  C_20
REMARK    7  A    between atoms: C_20  and  C_21
REMARK    8  A    between atoms: C_21  and  C_22
REMARK                            x       y       z     vdW  Elec       q    Type
REMARK                         _______ _______ _______ _____ _____    ______ ____
ROOT
ATOM      1  C   UNL     1      -0.003  -4.371   4.636  0.00  0.00    +0.256 C 
ATOM      2  C   UNL     1      -1.475  -4.782   4.550  0.00  0.00    +0.062 C 
ENDROOT
BRANCH   1   3
ATOM      3  C   UNL     1       0.628  -5.014   5.844  0.00  0.00    +0.254 C 
ATOM      4  O   UNL     1       1.027  -4.325   6.759  0.00  0.00    -0.272 OA
ATOM      5  N   UNL     1       0.748  -6.355   5.908  0.00  0.00    -0.312 N 
ATOM      6  H   UNL     1       0.429  -6.906   5.176  0.00  0.00    +0.149 HD
BRANCH   5   7
ATOM      7  C   UNL     1       1.362  -6.980   7.082  0.00  0.00    +0.108 C 
BRANCH   7   8
ATOM      8  C   UNL     1       1.376  -8.499   6.902  0.00  0.00    +0.052 C 
BRANCH   8   9
ATOM      9  C   UNL     1       2.007  -9.142   8.110  0.00  0.00    -0.040 C 
ATOM     10  C   UNL     1       1.368  -9.644   9.192  0.00  0.00    -0.001 A 
ATOM     11  C   UNL     1      -0.051  -9.736   9.554  0.00  0.00    +0.010 A 
ATOM     12  C   UNL     1      -0.392 -10.304  10.733  0.00  0.00    +0.001 A 
ATOM     13  C   UNL     1       0.574 -10.805  11.616  0.00  0.00    +0.002 A 
ATOM     14  C   UNL     1       1.897 -10.757  11.353  0.00  0.00    +0.026 A 
ATOM     15  C   UNL     1       2.369 -10.181  10.141  0.00  0.00    +0.043 A 
ATOM     16  N   UNL     1       3.579 -10.018   9.665  0.00  0.00    -0.380 N 
ATOM     17  C   UNL     1       3.483  -9.364   8.355  0.00  0.00    +0.144 C 
ATOM     18  H   UNL     1       4.401 -10.289  10.104  0.00  0.00    +0.160 HD
ENDBRANCH   8   9
ENDBRANCH   7   8
ENDBRANCH   5   7
ENDBRANCH   1   3
BRANCH   1  19
ATOM     19  O   UNL     1       0.088  -2.950   4.751  0.00  0.00    -0.478 OA
BRANCH  19  30
ATOM     20  C   UNL     1       0.187   1.490  -0.002  0.00  0.00    +0.045 C 
ATOM     21  C   UNL     1      -0.017  -0.003   0.003  0.00  0.00    -0.033 A 
ATOM     22  C   UNL     1      -0.228  -0.682  -1.155  0.00  0.00    +0.096 A 
ATOM     23  C   UNL     1      -0.415  -2.079  -1.124  0.00  0.00    +0.337 A 
ATOM     24  O   UNL     1      -0.603  -2.676  -2.169  0.00  0.00    -0.245 OA
ATOM     25  O   UNL     1      -0.391  -2.769   0.027  0.00  0.00    -0.422 OA
ATOM     26  C   UNL     1      -0.187  -2.155   1.213  0.00  0.00    +0.143 A 
ATOM     27  C   UNL     1       0.013  -0.762   1.255  0.00  0.00    +0.022 A 
ATOM     28  C   UNL     1       0.231  -0.123   2.480  0.00  0.00    +0.035 A 
ATOM     29  C   UNL     1       0.254  -0.855   3.633  0.00  0.00    +0.083 A 
ATOM     30  C   UNL     1       0.062  -2.235   3.596  0.00  0.00    +0.143 A 
ATOM     31  C   UNL     1      -0.165  -2.882   2.393  0.00  0.00    +0.094 A 
ATOM     32 CL   UNL     1       0.524  -0.061   5.153  0.00  0.00    -0.080 Cl
ENDBRANCH  19  30
ENDBRANCH   1  19
TORSDOF 6
