REMARK  Name = ZINC33332060
REMARK  9 active torsions:
REMARK  status: ('A' for Active; 'I' for Inactive)
REMARK    1  A    between atoms: C_1  and  N_2
REMARK    2  A    between atoms: N_2  and  C_3
REMARK    3  A    between atoms: N_2  and  C_26
REMARK    4  A    between atoms: C_3  and  C_4
REMARK    5  A    between atoms: C_4  and  N_5
REMARK    6  A    between atoms: C_6  and  C_8
REMARK    7  A    between atoms: C_8  and  C_9
REMARK    8  A    between atoms: C_9  and  C_10
REMARK    9  A    between atoms: C_10  and  N_11
REMARK                            x       y       z     vdW  Elec       q    Type
REMARK                         _______ _______ _______ _____ _____    ______ ____
ROOT
ATOM      1  C   UNL     1       7.495   2.179   4.016  0.00  0.00    +0.031 C 
ENDROOT
BRANCH   1   2
ATOM      2  C   UNL     1       6.159   1.438   3.928  0.00  0.00    +0.097 C 
BRANCH   2   4
ATOM      3  N   UNL     1       4.184   1.401   2.439  0.00  0.00    -0.317 N 
ATOM      4  C   UNL     1       5.397   1.918   2.719  0.00  0.00    +0.213 C 
ATOM      5  O   UNL     1       5.876   2.768   1.999  0.00  0.00    -0.276 OA
ATOM      6  H   UNL     1       3.750   0.630   3.092  0.00  0.00    +0.149 HD
BRANCH   3   7
ATOM      7  C   UNL     1       3.444   1.868   1.264  0.00  0.00    +0.085 C 
BRANCH   7   8
ATOM      8  C   UNL     1       2.108   1.127   1.176  0.00  0.00    -0.060 C 
BRANCH   8  10
ATOM      9  C   UNL     1       2.056   1.218  -1.243  0.00  0.00    -0.096 C 
ATOM     10  N   UNL     1       1.365   1.594  -0.002  0.00  0.00    +0.381 N 
ATOM     11  H   UNL     1       1.321   2.693   0.040  0.00  0.00    -0.082 HD
BRANCH  10  12
ATOM     12  C   UNL     1      -0.013   1.086   0.008  0.00  0.00    -0.069 C 
ATOM     13  C   UNL     1      -0.729   1.579   1.267  0.00  0.00    -0.015 C 
ATOM     14  C   UNL     1      -2.164   1.050   1.278  0.00  0.00    -0.002 C 
ATOM     15  C   UNL     1      -2.904   1.556   0.038  0.00  0.00    -0.000 C 
ATOM     16  C   UNL     1      -2.188   1.063  -1.221  0.00  0.00    -0.002 C 
ATOM     17  C   UNL     1      -0.753   1.593  -1.232  0.00  0.00    -0.015 C 
ENDBRANCH  10  12
ENDBRANCH   8  10
ENDBRANCH   7   8
ENDBRANCH   3   7
ENDBRANCH   2   4
ENDBRANCH   1   2
BRANCH   1  18
ATOM     18  C   UNL     1       8.268   1.692   5.243  0.00  0.00    +0.126 C 
BRANCH  18  19
ATOM     19  N   UNL     1       9.547   2.401   5.327  0.00  0.00    -0.305 N 
ATOM     20  C   UNL     1      10.675   1.871   4.700  0.00  0.00    +0.070 A 
ATOM     21  C   UNL     1      10.573   0.680   3.993  0.00  0.00    +0.043 A 
ATOM     22  C   UNL     1      11.684   0.151   3.365  0.00  0.00    +0.020 A 
ATOM     23  C   UNL     1      12.901   0.807   3.433  0.00  0.00    +0.017 A 
ATOM     24  C   UNL     1      13.012   1.994   4.130  0.00  0.00    +0.029 A 
ATOM     25  C   UNL     1      11.901   2.534   4.764  0.00  0.00    +0.070 A 
ATOM     26  N   UNL     1      12.017   3.737   5.469  0.00  0.00    -0.310 N 
ATOM     27  C   UNL     1      13.067   4.566   5.689  0.00  0.00    +0.092 A 
ATOM     28  C   UNL     1      12.651   5.612   6.444  0.00  0.00    +0.020 A 
ATOM     29  C   UNL     1      11.290   5.437   6.709  0.00  0.00    +0.033 A 
ATOM     30  C   UNL     1      10.907   4.264   6.096  0.00  0.00    +0.112 A 
ATOM     31  C   UNL     1       9.627   3.558   6.014  0.00  0.00    +0.276 A 
ATOM     32  O   UNL     1       8.640   4.014   6.563  0.00  0.00    -0.265 OA
ATOM     33 BR   UNL     1      11.542  -1.474   2.409  0.00  0.00    -0.050 Br
ENDBRANCH  18  19
ENDBRANCH   1  18
TORSDOF 8
