REMARK  Name = ZINC35689334
REMARK  13 active torsions:
REMARK  status: ('A' for Active; 'I' for Inactive)
REMARK    1  A    between atoms: C_1  and  C_2
REMARK    2  A    between atoms: C_2  and  C_3
REMARK    3  A    between atoms: C_6  and  N_9
REMARK    4  A    between atoms: C_19  and  C_20
REMARK    5  A    between atoms: C_20  and  C_22
REMARK    6  A    between atoms: C_20  and  N_23
REMARK    7  A    between atoms: N_23  and  C_24
REMARK    8  A    between atoms: C_24  and  C_25
REMARK    9  A    between atoms: C_25  and  N_26
REMARK   10  A    between atoms: N_26  and  C_27
REMARK   11  A    between atoms: N_26  and  C_28
REMARK   12  A    between atoms: N_31  and  C_32
REMARK   13  A    between atoms: C_35  and  N_38
REMARK                            x       y       z     vdW  Elec       q    Type
REMARK                         _______ _______ _______ _____ _____    ______ ____
ROOT
ATOM      1  C   UNL     1       4.540  -1.683  -3.263  0.00  0.00    +0.141 C 
ATOM      2  C   UNL     1       4.074  -0.323  -2.737  0.00  0.00    +0.036 C 
ENDROOT
BRANCH   1  13
ATOM      3  N   UNL     1       3.160  -3.111  -4.721  0.00  0.00    -0.263 N 
ATOM      4  C   UNL     1       2.542  -3.405  -5.888  0.00  0.00    +0.266 A 
ATOM      5  O   UNL     1       1.893  -4.426  -6.020  0.00  0.00    -0.267 OA
ATOM      6  C   UNL     1       2.685  -2.443  -6.991  0.00  0.00    +0.065 A 
ATOM      7  C   UNL     1       2.088  -2.652  -8.233  0.00  0.00    +0.015 A 
ATOM      8  C   UNL     1       2.254  -1.718  -9.231  0.00  0.00    +0.001 A 
ATOM      9  C   UNL     1       3.010  -0.574  -9.009  0.00  0.00    +0.002 A 
ATOM     10  C   UNL     1       3.609  -0.349  -7.790  0.00  0.00    +0.028 A 
ATOM     11  C   UNL     1       3.454  -1.281  -6.762  0.00  0.00    +0.078 A 
ATOM     12  N   UNL     1       4.026  -1.099  -5.545  0.00  0.00    -0.231 NA
ATOM     13  C   UNL     1       3.878  -1.963  -4.587  0.00  0.00    +0.138 A 
BRANCH   3  17
ATOM     14  C   UNL     1       2.850  -5.738  -1.500  0.00  0.00    -0.047 A 
ATOM     15  C   UNL     1       3.790  -5.966  -2.489  0.00  0.00    +0.005 A 
ATOM     16  C   UNL     1       3.895  -5.098  -3.557  0.00  0.00    +0.026 A 
ATOM     17  C   UNL     1       3.056  -3.994  -3.639  0.00  0.00    +0.051 A 
ATOM     18  C   UNL     1       2.113  -3.767  -2.644  0.00  0.00    +0.026 A 
ATOM     19  C   UNL     1       2.009  -4.643  -1.581  0.00  0.00    +0.005 A 
BRANCH  14  21
ATOM     20  C   UNL     1       1.743  -7.798  -0.677  0.00  0.00    +0.009 C 
ATOM     21  C   UNL     1       2.738  -6.687  -0.335  0.00  0.00    +0.032 C 
ENDBRANCH  14  21
ENDBRANCH   3  17
ENDBRANCH   1  13
BRANCH   1  22
ATOM     22  N   UNL     1       5.994  -1.667  -3.437  0.00  0.00    -0.277 N 
ATOM     23  C   UNL     1       6.764  -2.539  -2.756  0.00  0.00    +0.307 C 
ATOM     24  O   UNL     1       6.251  -3.338  -1.997  0.00  0.00    -0.252 OA
ATOM     25  N   UNL     1       8.102  -2.525  -2.916  0.00  0.00    -0.269 N 
ATOM     26  H   UNL     1       8.506  -1.933  -3.571  0.00  0.00    +0.156 HD
BRANCH  25  27
ATOM     27  C   UNL     1       8.909  -3.362  -2.139  0.00  0.00    +0.035 A 
ATOM     28  C   UNL     1      10.159  -2.929  -1.717  0.00  0.00    +0.025 A 
ATOM     29  C   UNL     1      10.953  -3.758  -0.949  0.00  0.00    +0.034 A 
ATOM     30  C   UNL     1      10.504  -5.019  -0.600  0.00  0.00    +0.126 A 
ATOM     31  C   UNL     1       9.260  -5.453  -1.019  0.00  0.00    +0.034 A 
ATOM     32  C   UNL     1       8.459  -4.627  -1.782  0.00  0.00    +0.025 A 
BRANCH  30  33
ATOM     33  N   UNL     1      11.358  -5.905   0.223  0.00  0.00    +0.056 N 
ATOM     34  O   UNL     1      12.446  -5.526   0.590  0.00  0.00    -0.126 OA
ATOM     35  O   UNL     1      10.967  -7.007   0.529  0.00  0.00    -0.126 OA
ENDBRANCH  30  33
ENDBRANCH  25  27
BRANCH  22  36
ATOM     36  C   UNL     1       6.612  -0.704  -4.352  0.00  0.00    +0.091 C 
BRANCH  36  37
ATOM     37  C   UNL     1       6.946   0.580  -3.591  0.00  0.00    -0.060 C 
BRANCH  37  38
ATOM     38  N   UNL     1       7.566   1.546  -4.508  0.00  0.00    +0.377 N 
ATOM     39  C   UNL     1       6.590   1.944  -5.532  0.00  0.00    -0.097 C 
ATOM     40  C   UNL     1       7.995   2.732  -3.755  0.00  0.00    -0.097 C 
ATOM     41  H   UNL     1       8.366   1.122  -4.953  0.00  0.00    -0.083 HD
ENDBRANCH  37  38
ENDBRANCH  36  37
ENDBRANCH  22  36
ENDBRANCH   1  22
TORSDOF 9
