REMARK  Name = ZINC38905678
REMARK  8 active torsions:
REMARK  status: ('A' for Active; 'I' for Inactive)
REMARK    1  A    between atoms: C_1  and  C_2
REMARK    2  A    between atoms: C_2  and  S_3
REMARK    3  A    between atoms: S_3  and  C_4
REMARK    4  A    between atoms: C_9  and  N_10
REMARK    5  A    between atoms: C_11  and  C_13
REMARK    6  A    between atoms: N_18  and  C_20
REMARK    7  A    between atoms: C_20  and  C_21
REMARK    8  A    between atoms: C_23  and  C_26
REMARK                            x       y       z     vdW  Elec       q    Type
REMARK                         _______ _______ _______ _____ _____    ______ ____
ROOT
ATOM      1  C   UNL     1       3.112  -2.742   5.620  0.00  0.00    +0.059 C 
ATOM      2  C   UNL     1       2.050  -1.883   6.312  0.00  0.00    +0.009 C 
ATOM      3  C   UNL     1       2.633  -1.314   7.609  0.00  0.00    -0.018 C 
ATOM      4  C   UNL     1       3.113  -2.466   8.494  0.00  0.00    -0.078 C 
ATOM      5  N   UNL     1       4.146  -3.233   7.787  0.00  0.00    +0.386 N 
ATOM      6  C   UNL     1       3.576  -3.841   6.579  0.00  0.00    -0.065 C 
ATOM      7  H   UNL     1       4.902  -2.618   7.527  0.00  0.00    -0.081 HD
ENDROOT
BRANCH   1   9
ATOM      8  N   UNL     1       2.046  -2.588   3.393  0.00  0.00    -0.284 N 
ATOM      9  C   UNL     1       2.525  -3.369   4.382  0.00  0.00    +0.219 C 
ATOM     10  O   UNL     1       2.482  -4.577   4.275  0.00  0.00    -0.275 OA
ATOM     11  H   UNL     1       2.152  -1.625   3.442  0.00  0.00    +0.155 HD
BRANCH   8  17
ATOM     12  C   UNL     1       1.353  -2.496   1.073  0.00  0.00    +0.029 A 
ATOM     13  C   UNL     1       0.712  -3.078  -0.011  0.00  0.00    +0.016 A 
ATOM     14  C   UNL     1       0.113  -4.316   0.123  0.00  0.00    +0.001 A 
ATOM     15  C   UNL     1       0.150  -4.979   1.337  0.00  0.00    +0.002 A 
ATOM     16  C   UNL     1       0.787  -4.407   2.422  0.00  0.00    +0.024 A 
ATOM     17  C   UNL     1       1.396  -3.167   2.296  0.00  0.00    +0.047 A 
BRANCH  12  18
ATOM     18  S   UNL     1       2.118  -0.918   0.905  0.00  0.00    -0.124 S 
BRANCH  18  20
ATOM     19  C   UNL     1       2.423   0.910  -1.107  0.00  0.00    +0.015 C 
ATOM     20  C   UNL     1       1.804  -0.460  -0.822  0.00  0.00    +0.071 C 
ENDBRANCH  18  20
ENDBRANCH  12  18
ENDBRANCH   8  17
ENDBRANCH   1   9
BRANCH   5  21
ATOM     21  C   UNL     1       4.659  -4.290   8.669  0.00  0.00    +0.022 C 
BRANCH  21  22
ATOM     22  C   UNL     1       5.362  -3.664   9.846  0.00  0.00    +0.211 A 
ATOM     23  N   UNL     1       4.809  -3.344  10.981  0.00  0.00    -0.193 NA
ATOM     24  C   UNL     1       5.726  -2.808  11.806  0.00  0.00    +0.202 A 
ATOM     25  N   UNL     1       6.882  -2.785  11.188  0.00  0.00    -0.056 NA
ATOM     26  O   UNL     1       6.662  -3.348   9.903  0.00  0.00    -0.340 OA
BRANCH  24  27
ATOM     27  C   UNL     1       5.472  -2.322  13.185  0.00  0.00    +0.023 A 
ATOM     28  C   UNL     1       4.193  -2.408  13.732  0.00  0.00    +0.013 A 
ATOM     29  C   UNL     1       3.962  -1.955  15.014  0.00  0.00    +0.016 A 
ATOM     30  C   UNL     1       4.998  -1.417  15.758  0.00  0.00    +0.018 A 
ATOM     31  C   UNL     1       6.270  -1.329  15.220  0.00  0.00    +0.016 A 
ATOM     32  C   UNL     1       6.513  -1.785  13.940  0.00  0.00    +0.013 A 
ATOM     33 BR   UNL     1       4.674  -0.797  17.515  0.00  0.00    -0.050 Br
ENDBRANCH  24  27
ENDBRANCH  21  22
ENDBRANCH   5  21
TORSDOF 7
