REMARK  Name = ZINC19500696
REMARK  15 active torsions:
REMARK  status: ('A' for Active; 'I' for Inactive)
REMARK    1  A    between atoms: C_1  and  C_2
REMARK    2  A    between atoms: C_2  and  C_3
REMARK    3  A    between atoms: C_3  and  C_35
REMARK    4  A    between atoms: C_8  and  C_11
REMARK    5  A    between atoms: C_13  and  O_21
REMARK    6  A    between atoms: C_14  and  O_19
REMARK    7  A    between atoms: C_15  and  O_17
REMARK    8  A    between atoms: O_17  and  C_18
REMARK    9  A    between atoms: O_19  and  C_20
REMARK   10  A    between atoms: O_21  and  C_22
REMARK   11  A    between atoms: N_25  and  C_28
REMARK   12  A    between atoms: C_31  and  C_34
REMARK   13  A    between atoms: C_35  and  O_37
REMARK   14  A    between atoms: O_37  and  C_38
REMARK   15  A    between atoms: C_38  and  C_39
REMARK                            x       y       z     vdW  Elec       q    Type
REMARK                         _______ _______ _______ _____ _____    ______ ____
ROOT
ATOM      1  C   UNL     1      -1.236  -0.688  -0.269  0.00  0.00    +0.129 C 
ATOM      2  C   UNL     1      -1.202  -2.183   0.111  0.00  0.00    +0.120 C 
ATOM      3  C   UNL     1      -1.591  -2.220   1.613  0.00  0.00    +0.111 C 
ATOM      4  C   UNL     1      -1.809  -0.744   2.003  0.00  0.00    +0.098 C 
ATOM      5  N   UNL     1      -2.156  -0.068   0.719  0.00  0.00    -0.293 NA
ATOM      6  C   UNL     1      -2.916  -2.950   1.612  0.00  0.00    +0.232 C 
ATOM      7  O   UNL     1      -3.580  -3.199   2.596  0.00  0.00    -0.274 OA
ATOM      8  N   UNL     1      -3.242  -3.277   0.356  0.00  0.00    -0.210 N 
ATOM      9  C   UNL     1      -2.341  -2.898  -0.579  0.00  0.00    +0.232 C 
ATOM     10  O   UNL     1      -2.425  -3.093  -1.773  0.00  0.00    -0.274 OA
ATOM     11  H   UNL     1      -1.999   0.926   0.784  0.00  0.00    +0.124 HD
ENDROOT
BRANCH   8  12
ATOM     12  C   UNL     1      -4.420  -3.964   0.033  0.00  0.00    +0.044 A 
ATOM     13  C   UNL     1      -5.419  -3.330  -0.693  0.00  0.00    +0.024 A 
ATOM     14  C   UNL     1      -6.579  -4.010  -1.009  0.00  0.00    +0.005 A 
ATOM     15  C   UNL     1      -6.746  -5.321  -0.604  0.00  0.00    -0.050 A 
ATOM     16  C   UNL     1      -5.753  -5.956   0.119  0.00  0.00    +0.005 A 
ATOM     17  C   UNL     1      -4.588  -5.283   0.434  0.00  0.00    +0.024 A 
ATOM     18  C   UNL     1      -8.013  -6.060  -0.951  0.00  0.00    +0.044 C 
ENDBRANCH   8  12
BRANCH   4  19
ATOM     19  C   UNL     1      -2.956  -0.620   2.973  0.00  0.00    -0.023 A 
ATOM     20  C   UNL     1      -4.258  -0.647   2.508  0.00  0.00    +0.054 A 
ATOM     21  C   UNL     1      -5.316  -0.533   3.397  0.00  0.00    +0.165 A 
ATOM     22  C   UNL     1      -5.066  -0.392   4.757  0.00  0.00    +0.204 A 
ATOM     23  C   UNL     1      -3.756  -0.365   5.220  0.00  0.00    +0.165 A 
ATOM     24  C   UNL     1      -2.704  -0.485   4.325  0.00  0.00    +0.054 A 
BRANCH  23  25
ATOM     25  O   UNL     1      -3.507  -0.227   6.550  0.00  0.00    -0.491 OA
ATOM     26  C   UNL     1      -2.137  -0.207   6.954  0.00  0.00    +0.277 C 
ENDBRANCH  23  25
BRANCH  22  27
ATOM     27  O   UNL     1      -6.102  -0.279   5.632  0.00  0.00    -0.488 OA
ATOM     28  C   UNL     1      -6.619  -1.491   6.185  0.00  0.00    +0.277 C 
ENDBRANCH  22  27
BRANCH  21  29
ATOM     29  O   UNL     1      -6.596  -0.559   2.938  0.00  0.00    -0.491 OA
ATOM     30  C   UNL     1      -6.777  -0.707   1.528  0.00  0.00    +0.277 C 
ENDBRANCH  21  29
ENDBRANCH   4  19
BRANCH   1  32
ATOM     31  C   UNL     1       0.071   1.441  -0.332  0.00  0.00    +0.006 C 
ATOM     32  C   UNL     1       0.162  -0.076  -0.153  0.00  0.00    +0.031 C 
ENDBRANCH   1  32
BRANCH   1  33
ATOM     33  C   UNL     1      -1.771  -0.511  -1.667  0.00  0.00    +0.328 C 
ATOM     34  O   UNL     1      -1.007  -0.421  -2.599  0.00  0.00    -0.249 OA
BRANCH  33  35
ATOM     35  O   UNL     1      -3.095  -0.455  -1.877  0.00  0.00    -0.464 OA
BRANCH  35  36
ATOM     36  C   UNL     1      -3.532  -0.286  -3.227  0.00  0.00    +0.229 C 
ATOM     37  C   UNL     1      -5.061  -0.244  -3.267  0.00  0.00    +0.048 C 
ENDBRANCH  35  36
ENDBRANCH  33  35
ENDBRANCH   1  33
TORSDOF 9
