REMARK  Name = ZINC13253594
REMARK  12 active torsions:
REMARK  status: ('A' for Active; 'I' for Inactive)
REMARK    1  A    between atoms: C_1  and  C_2
REMARK    2  A    between atoms: C_2  and  C_4
REMARK    3  A    between atoms: C_2  and  N_7
REMARK    4  A    between atoms: C_4  and  O_5
REMARK    5  A    between atoms: O_5  and  C_6
REMARK    6  A    between atoms: C_8  and  C_25
REMARK    7  A    between atoms: C_11  and  S_12
REMARK    8  A    between atoms: S_12  and  C_13
REMARK    9  A    between atoms: C_13  and  C_14
REMARK   10  A    between atoms: C_21  and  C_23
REMARK   11  A    between atoms: C_25  and  O_26
REMARK   12  A    between atoms: O_26  and  C_27
REMARK                            x       y       z     vdW  Elec       q    Type
REMARK                         _______ _______ _______ _____ _____    ______ ____
ROOT
ATOM      1  N   UNL     1      -4.419  -2.405  -1.859  0.00  0.00    -0.298 N 
ATOM      2  C   UNL     1      -3.895  -3.566  -2.358  0.00  0.00    +0.172 A 
ATOM      3  N   UNL     1      -2.779  -3.791  -1.726  0.00  0.00    -0.130 NA
ATOM      4  N   UNL     1      -2.559  -2.857  -0.871  0.00  0.00    -0.122 NA
ATOM      5  C   UNL     1      -3.538  -1.982  -0.906  0.00  0.00    +0.192 A 
ENDROOT
BRANCH   1   7
ATOM      6  C   UNL     1      -5.361  -0.348  -2.787  0.00  0.00    +0.033 C 
ATOM      7  C   UNL     1      -5.667  -1.752  -2.262  0.00  0.00    +0.114 C 
BRANCH   7   8
ATOM      8  C   UNL     1      -6.604  -1.653  -1.056  0.00  0.00    +0.184 C 
BRANCH   8   9
ATOM      9  O   UNL     1      -6.982  -2.966  -0.638  0.00  0.00    -0.381 OA
ATOM     10  C   UNL     1      -7.862  -2.986   0.488  0.00  0.00    +0.194 C 
ENDBRANCH   8   9
ENDBRANCH   7   8
ENDBRANCH   1   7
BRANCH   5  11
ATOM     11  S   UNL     1      -3.682  -0.531   0.084  0.00  0.00    -0.077 S 
BRANCH  11  12
ATOM     12  C   UNL     1      -2.168  -0.670   1.067  0.00  0.00    +0.173 C 
BRANCH  12  13
ATOM     13  C   UNL     1      -2.076   0.498   2.015  0.00  0.00    +0.227 C 
ATOM     14  O   UNL     1      -2.947   1.342   2.024  0.00  0.00    -0.275 OA
ATOM     15  N   UNL     1      -1.025   0.606   2.851  0.00  0.00    -0.287 N 
ATOM     16  C   UNL     1      -0.030  -0.471   2.946  0.00  0.00    +0.108 C 
ATOM     17  C   UNL     1       1.363   0.122   2.716  0.00  0.00    +0.019 C 
ATOM     18  C   UNL     1       1.590   1.276   3.696  0.00  0.00    +0.004 C 
ATOM     19  C   UNL     1       0.551   2.371   3.447  0.00  0.00    +0.034 C 
ATOM     20  C   UNL     1      -0.848   1.805   3.681  0.00  0.00    +0.189 C 
BRANCH  20  21
ATOM     21  C   UNL     1      -1.879   2.838   3.302  0.00  0.00    +0.376 C 
ATOM     22  O   UNL     1      -1.904   3.282   2.179  0.00  0.00    -0.244 OA
ATOM     23  O   UNL     1      -2.768   3.264   4.213  0.00  0.00    -0.244 OA
ENDBRANCH  20  21
ENDBRANCH  12  13
ENDBRANCH  11  12
ENDBRANCH   5  11
BRANCH   2  24
ATOM     24  C   UNL     1      -4.498  -4.425  -3.440  0.00  0.00    +0.305 C 
BRANCH  24  25
ATOM     25  O   UNL     1      -4.019  -3.992  -4.715  0.00  0.00    -0.481 OA
BRANCH  25  26
ATOM     26  C   UNL     1      -4.469  -4.667  -5.805  0.00  0.00    +0.156 A 
ATOM     27  C   UNL     1      -5.350  -5.727  -5.651  0.00  0.00    +0.048 A 
ATOM     28  C   UNL     1      -5.810  -6.409  -6.761  0.00  0.00    +0.004 A 
ATOM     29  C   UNL     1      -5.386  -6.043  -8.025  0.00  0.00    +0.003 A 
ATOM     30  C   UNL     1      -4.504  -4.989  -8.183  0.00  0.00    +0.042 A 
ATOM     31  C   UNL     1      -4.044  -4.300  -7.076  0.00  0.00    +0.165 A 
ATOM     32  F   UNL     1      -3.182  -3.271  -7.229  0.00  0.00    -0.202 F 
ENDBRANCH  25  26
ENDBRANCH  24  25
ENDBRANCH   2  24
TORSDOF 10
