REMARK  Name = ZINC64546878
REMARK  10 active torsions:
REMARK  status: ('A' for Active; 'I' for Inactive)
REMARK    1  A    between atoms: C_1  and  C_2
REMARK    2  A    between atoms: C_2  and  O_3
REMARK    3  A    between atoms: O_3  and  C_4
REMARK    4  A    between atoms: C_7  and  N_11
REMARK    5  A    between atoms: C_9  and  C_10
REMARK    6  A    between atoms: N_14  and  C_15
REMARK    7  A    between atoms: C_15  and  C_16
REMARK    8  A    between atoms: C_15  and  C_17
REMARK    9  A    between atoms: C_20  and  S_23
REMARK   10  A    between atoms: S_23  and  N_26
REMARK                            x       y       z     vdW  Elec       q    Type
REMARK                         _______ _______ _______ _____ _____    ______ ____
ROOT
ATOM      1  N   UNL     1      -1.989  -5.990  -0.011  0.00  0.00    -0.269 N 
ATOM      2  C   UNL     1      -0.914  -6.796  -0.123  0.00  0.00    +0.304 C 
ATOM      3  O   UNL     1       0.205  -6.319  -0.126  0.00  0.00    -0.252 OA
ATOM      4  N   UNL     1      -1.079  -8.129  -0.230  0.00  0.00    -0.293 N 
ATOM      5  H   UNL     1      -2.876  -6.374   0.069  0.00  0.00    +0.156 HD
ATOM      6  H   UNL     1      -1.971  -8.509  -0.227  0.00  0.00    +0.151 HD
ENDROOT
BRANCH   1  10
ATOM      7  C   UNL     1      -1.501  -1.849  -0.013  0.00  0.00    +0.123 A 
ATOM      8  C   UNL     1      -0.651  -2.647  -0.765  0.00  0.00    +0.048 A 
ATOM      9  C   UNL     1      -0.812  -4.019  -0.764  0.00  0.00    +0.027 A 
ATOM     10  C   UNL     1      -1.825  -4.598  -0.011  0.00  0.00    +0.035 A 
ATOM     11  C   UNL     1      -2.674  -3.799   0.741  0.00  0.00    +0.030 A 
ATOM     12  C   UNL     1      -2.509  -2.428   0.743  0.00  0.00    -0.007 A 
ATOM     13  C   UNL     1      -3.428  -1.560   1.564  0.00  0.00    +0.047 C 
BRANCH   7  14
ATOM     14  O   UNL     1      -1.342  -0.498  -0.014  0.00  0.00    -0.492 OA
BRANCH  14  16
ATOM     15  C   UNL     1      -0.261   1.555  -0.690  0.00  0.00    +0.048 C 
ATOM     16  C   UNL     1      -0.284   0.030  -0.816  0.00  0.00    +0.225 C 
ENDBRANCH  14  16
ENDBRANCH   7  14
ENDBRANCH   1  10
BRANCH   4  17
ATOM     17  C   UNL     1       0.090  -9.004  -0.352  0.00  0.00    +0.102 C 
ATOM     18  C   UNL     1       0.629  -9.331   1.042  0.00  0.00    +0.033 C 
BRANCH  17  19
ATOM     19  C   UNL     1      -0.309 -10.280  -1.048  0.00  0.00    -0.027 A 
ATOM     20  C   UNL     1      -1.523 -10.874  -0.761  0.00  0.00    +0.007 A 
ATOM     21  C   UNL     1      -1.889 -12.044  -1.400  0.00  0.00    +0.029 A 
ATOM     22  C   UNL     1      -1.039 -12.620  -2.326  0.00  0.00    +0.105 A 
ATOM     23  C   UNL     1       0.175 -12.025  -2.614  0.00  0.00    +0.029 A 
ATOM     24  C   UNL     1       0.538 -10.853  -1.978  0.00  0.00    +0.007 A 
BRANCH  22  25
ATOM     25  S   UNL     1      -1.504 -14.112  -3.140  0.00  0.00    +0.056 S 
ATOM     26  O   UNL     1      -0.300 -14.739  -3.558  0.00  0.00    -0.153 OA
ATOM     27  O   UNL     1      -2.446 -14.759  -2.295  0.00  0.00    -0.153 OA
BRANCH  25  28
ATOM     28  N   UNL     1      -2.319 -13.685  -4.517  0.00  0.00    -0.204 NA
ATOM     29  H   UNL     1      -2.286 -14.260  -5.298  0.00  0.00    +0.144 HD
ATOM     30  H   UNL     1      -2.829 -12.861  -4.543  0.00  0.00    +0.144 HD
ENDBRANCH  25  28
ENDBRANCH  22  25
ENDBRANCH  17  19
ENDBRANCH   4  17
TORSDOF 7
