REMARK  Name = ZINC21633188
REMARK  12 active torsions:
REMARK  status: ('A' for Active; 'I' for Inactive)
REMARK    1  A    between atoms: C_1  and  O_2
REMARK    2  A    between atoms: O_2  and  C_3
REMARK    3  A    between atoms: C_5  and  C_29
REMARK    4  A    between atoms: C_7  and  S_11
REMARK    5  A    between atoms: C_8  and  O_9
REMARK    6  A    between atoms: O_9  and  C_10
REMARK    7  A    between atoms: S_11  and  N_14
REMARK    8  A    between atoms: N_14  and  C_15
REMARK    9  A    between atoms: C_20  and  C_21
REMARK   10  A    between atoms: N_23  and  C_24
REMARK   11  A    between atoms: C_24  and  C_25
REMARK   12  A    between atoms: C_30  and  C_31
REMARK                            x       y       z     vdW  Elec       q    Type
REMARK                         _______ _______ _______ _____ _____    ______ ____
ROOT
ATOM      1  S   UNL     1      -5.399   3.644   1.133  0.00  0.00    +0.076 S 
ATOM      2  O   UNL     1      -5.521   5.059   1.074  0.00  0.00    -0.150 OA
ATOM      3  O   UNL     1      -6.503   2.775   0.920  0.00  0.00    -0.150 OA
ENDROOT
BRANCH   1   8
ATOM      4  C   UNL     1      -3.974   1.628   4.324  0.00  0.00    +0.164 A 
ATOM      5  C   UNL     1      -3.738   2.633   5.241  0.00  0.00    +0.057 A 
ATOM      6  C   UNL     1      -4.010   3.964   4.902  0.00  0.00    -0.019 A 
ATOM      7  C   UNL     1      -4.522   4.268   3.635  0.00  0.00    +0.040 A 
ATOM      8  C   UNL     1      -4.755   3.259   2.727  0.00  0.00    +0.154 A 
ATOM      9  C   UNL     1      -4.489   1.939   3.066  0.00  0.00    +0.188 A 
BRANCH   4  11
ATOM     10  C   UNL     1      -3.190   0.088   5.958  0.00  0.00    +0.277 C 
ATOM     11  O   UNL     1      -3.711   0.335   4.650  0.00  0.00    -0.491 OA
ENDBRANCH   4  11
BRANCH   9  12
ATOM     12  O   UNL     1      -4.726   0.948   2.168  0.00  0.00    -0.490 OA
ATOM     13  C   UNL     1      -3.615   0.498   1.390  0.00  0.00    +0.277 C 
ENDBRANCH   9  12
BRANCH   6  14
ATOM     14  C   UNL     1      -3.761   5.038   5.874  0.00  0.00    +0.015 C 
ATOM     15  C   UNL     1      -3.268   4.742   7.096  0.00  0.00    +0.096 C 
BRANCH  15  16
ATOM     16  C   UNL     1      -3.027   5.778   8.033  0.00  0.00    +0.380 C 
ATOM     17  O   UNL     1      -3.265   6.934   7.737  0.00  0.00    -0.241 OA
ATOM     18  O   UNL     1      -2.534   5.482   9.254  0.00  0.00    -0.241 OA
ENDBRANCH  15  16
ENDBRANCH   6  14
ENDBRANCH   1   8
BRANCH   1  19
ATOM     19  N   UNL     1      -4.245   3.222   0.023  0.00  0.00    -0.215 N 
ATOM     20  H   UNL     1      -4.419   2.376  -0.658  0.00  0.00    +0.174 HD
BRANCH  19  21
ATOM     21  C   UNL     1      -3.056   3.937  -0.048  0.00  0.00    +0.060 A 
ATOM     22  C   UNL     1      -2.472   4.438   1.109  0.00  0.00    +0.025 A 
ATOM     23  C   UNL     1      -1.291   5.148   1.035  0.00  0.00    +0.002 A 
ATOM     24  C   UNL     1      -0.679   5.367  -0.189  0.00  0.00    +0.001 A 
ATOM     25  C   UNL     1      -1.240   4.873  -1.346  0.00  0.00    +0.015 A 
ATOM     26  C   UNL     1      -2.439   4.157  -1.289  0.00  0.00    +0.059 A 
BRANCH  26  27
ATOM     27  C   UNL     1      -3.048   3.631  -2.525  0.00  0.00    +0.246 C 
ATOM     28  O   UNL     1      -4.088   3.004  -2.470  0.00  0.00    -0.270 OA
ATOM     29  N   UNL     1      -2.451   3.845  -3.714  0.00  0.00    -0.303 N 
ATOM     30  H   UNL     1      -1.512   4.416  -3.764  0.00  0.00    +0.149 HD
BRANCH  29  31
ATOM     31  C   UNL     1      -3.053   3.317  -4.941  0.00  0.00    +0.217 C 
BRANCH  31  32
ATOM     32  C   UNL     1      -2.180   3.692  -6.140  0.00  0.00    +0.405 C 
ATOM     33  F   UNL     1      -0.902   3.147  -5.975  0.00  0.00    -0.169 F 
ATOM     34  F   UNL     1      -2.755   3.188  -7.311  0.00  0.00    -0.169 F 
ATOM     35  F   UNL     1      -2.084   5.085  -6.229  0.00  0.00    -0.169 F 
ENDBRANCH  31  32
ENDBRANCH  29  31
ENDBRANCH  26  27
ENDBRANCH  19  21
ENDBRANCH   1  19
TORSDOF 10
