REMARK  Name = ZINC13203396
REMARK  12 active torsions:
REMARK  status: ('A' for Active; 'I' for Inactive)
REMARK    1  A    between atoms: C_1  and  C_2
REMARK    2  A    between atoms: C_4  and  C_16
REMARK    3  A    between atoms: C_5  and  C_15
REMARK    4  A    between atoms: N_6  and  C_7
REMARK    5  A    between atoms: C_7  and  C_8
REMARK    6  A    between atoms: C_8  and  C_9
REMARK    7  A    between atoms: C_16  and  C_18
REMARK    8  A    between atoms: C_18  and  S_19
REMARK    9  A    between atoms: S_19  and  C_20
REMARK   10  A    between atoms: C_23  and  C_28
REMARK   11  A    between atoms: N_24  and  C_25
REMARK   12  A    between atoms: C_25  and  C_26
REMARK                            x       y       z     vdW  Elec       q    Type
REMARK                         _______ _______ _______ _____ _____    ______ ____
ROOT
ATOM      1  C   UNL     1       3.730  10.700  -0.194  0.00  0.00    +0.175 C 
ATOM      2  O   UNL     1       4.872  10.449  -0.519  0.00  0.00    -0.291 OA
ENDROOT
BRANCH   1   6
ATOM      3  C   UNL     1       0.957  14.825   0.926  0.00  0.00    +0.063 C 
ATOM      4  C   UNL     1       2.083  13.899   0.542  0.00  0.00    +0.017 A 
ATOM      5  C   UNL     1       1.990  12.564   0.434  0.00  0.00    +0.034 A 
ATOM      6  C   UNL     1       3.323  12.086   0.044  0.00  0.00    +0.039 A 
ATOM      7  C   UNL     1       4.114  13.215  -0.058  0.00  0.00    +0.026 A 
ATOM      8  N   UNL     1       3.357  14.286   0.243  0.00  0.00    -0.347 N 
ATOM      9  C   UNL     1       5.572  13.242  -0.439  0.00  0.00    +0.064 C 
BRANCH   8  10
ATOM     10  C   UNL     1       3.833  15.671   0.248  0.00  0.00    +0.126 C 
BRANCH  10  11
ATOM     11  C   UNL     1       3.633  16.284  -1.139  0.00  0.00    +0.052 C 
BRANCH  11  12
ATOM     12  C   UNL     1       4.123  17.709  -1.134  0.00  0.00    -0.072 C 
ATOM     13  C   UNL     1       5.332  17.937  -1.536  0.00  0.00    -0.028 C 
ATOM     14  C   UNL     1       5.962  19.298  -1.578  0.00  0.00    +0.027 C 
ATOM     15  C   UNL     1       4.883  20.381  -1.500  0.00  0.00    +0.004 C 
ATOM     16  C   UNL     1       3.951  20.053  -0.327  0.00  0.00    +0.005 C 
ATOM     17  C   UNL     1       3.176  18.777  -0.670  0.00  0.00    +0.030 C 
ENDBRANCH  11  12
ENDBRANCH  10  11
ENDBRANCH   8  10
ENDBRANCH   1   6
BRANCH   1  18
ATOM     18  C   UNL     1       2.729   9.584  -0.036  0.00  0.00    +0.157 C 
BRANCH  18  19
ATOM     19  S   UNL     1       3.530   8.001  -0.397  0.00  0.00    -0.078 S 
BRANCH  19  20
ATOM     20  C   UNL     1       2.172   6.907  -0.142  0.00  0.00    +0.193 A 
ATOM     21  N   UNL     1       0.953   7.246   0.210  0.00  0.00    -0.122 NA
ATOM     22  N   UNL     1       0.212   6.201   0.307  0.00  0.00    -0.128 NA
ATOM     23  C   UNL     1       0.914   5.126   0.021  0.00  0.00    +0.172 A 
ATOM     24  N   UNL     1       2.193   5.545  -0.271  0.00  0.00    -0.291 N 
BRANCH  23  25
ATOM     25  C   UNL     1       0.426   3.737   0.018  0.00  0.00    +0.056 A 
ATOM     26  C   UNL     1      -0.866   3.275   0.028  0.00  0.00    +0.019 A 
ATOM     27  C   UNL     1      -1.081   1.915   0.017  0.00  0.00    +0.008 A 
ATOM     28  C   UNL     1      -0.013   1.076   0.008  0.00  0.00    +0.046 A 
ATOM     29  S   UNL     1       1.361   2.216   0.001  0.00  0.00    -0.094 S 
ENDBRANCH  23  25
BRANCH  24  30
ATOM     30  C   UNL     1       3.336   4.708  -0.643  0.00  0.00    +0.250 C 
BRANCH  30  31
ATOM     31  C   UNL     1       3.374   4.548  -2.141  0.00  0.00    +0.375 C 
ATOM     32  O   UNL     1       2.533   5.079  -2.827  0.00  0.00    -0.244 OA
ATOM     33  O   UNL     1       4.343   3.816  -2.713  0.00  0.00    -0.244 OA
ENDBRANCH  30  31
ENDBRANCH  24  30
ENDBRANCH  19  20
ENDBRANCH  18  19
ENDBRANCH   1  18
TORSDOF 10
