REMARK  Name = ZINC09915810
REMARK  12 active torsions:
REMARK  status: ('A' for Active; 'I' for Inactive)
REMARK    1  A    between atoms: C_1  and  C_2
REMARK    2  A    between atoms: C_2  and  C_17
REMARK    3  A    between atoms: C_3  and  C_15
REMARK    4  A    between atoms: C_3  and  O_16
REMARK    5  A    between atoms: C_4  and  C_13
REMARK    6  A    between atoms: C_4  and  O_14
REMARK    7  A    between atoms: C_5  and  C_11
REMARK    8  A    between atoms: C_5  and  O_12
REMARK    9  A    between atoms: C_6  and  C_8
REMARK   10  A    between atoms: C_6  and  O_9
REMARK   11  A    between atoms: O_9  and  C_10
REMARK   12  A    between atoms: C_17  and  O_18
REMARK                            x       y       z     vdW  Elec       q    Type
REMARK                         _______ _______ _______ _____ _____    ______ ____
ROOT
ATOM      1  C   UNL     1       3.885   3.883   0.092  0.00  0.00    +0.047 C 
ATOM      2  C   UNL     1       2.725   3.672  -0.888  0.00  0.00    +0.124 C 
ATOM      3  C   UNL     1       1.502   3.147  -0.150  0.00  0.00    +0.125 C 
ATOM      4  C   UNL     1       1.421   1.634  -0.046  0.00  0.00    +0.128 C 
ATOM      5  C   UNL     1       1.875   0.899  -1.297  0.00  0.00    +0.147 C 
ATOM      6  C   UNL     1       3.148   1.472  -1.911  0.00  0.00    +0.199 C 
ATOM      7  O   UNL     1       3.111   2.879  -1.986  0.00  0.00    -0.335 OA
ATOM      8  C   UNL     1       4.394   0.954  -1.194  0.00  0.00    +0.077 C 
ATOM      9  C   UNL     1       0.755   0.929  -2.348  0.00  0.00    +0.050 C 
ATOM     10  C   UNL     1       2.177   1.135   1.190  0.00  0.00    +0.047 C 
ATOM     11  C   UNL     1       1.508   3.735   1.275  0.00  0.00    +0.047 C 
ENDROOT
BRANCH   6  12
ATOM     12  O   UNL     1       3.217   0.974  -3.272  0.00  0.00    -0.350 OA
ATOM     13  C   UNL     1       4.364   1.421  -3.997  0.00  0.00    +0.197 C 
ENDBRANCH   6  12
BRANCH   5  14
ATOM     14  O   UNL     1       2.118  -0.479  -0.956  0.00  0.00    -0.381 OA
ATOM     15  H   UNL     1       2.413  -1.022  -1.700  0.00  0.00    +0.211 HD
ENDBRANCH   5  14
BRANCH   4  16
ATOM     16  O   UNL     1       0.026   1.295   0.163  0.00  0.00    -0.383 OA
ATOM     17  H   UNL     1      -0.135   0.349   0.286  0.00  0.00    +0.210 HD
ENDBRANCH   4  16
BRANCH   3  18
ATOM     18  O   UNL     1       0.321   3.638  -0.809  0.00  0.00    -0.383 OA
ATOM     19  H   UNL     1       0.300   4.599  -0.913  0.00  0.00    +0.210 HD
ENDBRANCH   3  18
BRANCH   2  20
ATOM     20  C   UNL     1       2.355   5.073  -1.440  0.00  0.00    +0.193 C 
BRANCH  20  21
ATOM     21  O   UNL     1       3.491   5.642  -2.096  0.00  0.00    -0.392 OA
ATOM     22  H   UNL     1       3.332   6.521  -2.466  0.00  0.00    +0.210 HD
ENDBRANCH  20  21
ENDBRANCH   2  20
TORSDOF 6
