REMARK  Name = ZINC10516168
REMARK  14 active torsions:
REMARK  status: ('A' for Active; 'I' for Inactive)
REMARK    1  A    between atoms: C_1  and  C_2
REMARK    2  A    between atoms: C_2  and  N_3
REMARK    3  A    between atoms: N_3  and  C_4
REMARK    4  A    between atoms: N_3  and  S_6
REMARK    5  A    between atoms: C_4  and  C_5
REMARK    6  A    between atoms: S_6  and  C_9
REMARK    7  A    between atoms: C_11  and  C_31
REMARK    8  A    between atoms: C_12  and  C_30
REMARK    9  A    between atoms: C_13  and  N_15
REMARK   10  A    between atoms: N_15  and  S_16
REMARK   11  A    between atoms: S_16  and  C_19
REMARK   12  A    between atoms: C_21  and  N_27
REMARK   13  A    between atoms: C_23  and  C_26
REMARK   14  A    between atoms: C_24  and  C_25
REMARK                            x       y       z     vdW  Elec       q    Type
REMARK                         _______ _______ _______ _____ _____    ______ ____
ROOT
ATOM      1  C   UNL     1      -2.700   3.232  -0.499  0.00  0.00    +0.108 A 
ATOM      2  C   UNL     1      -3.672   2.704   0.330  0.00  0.00    +0.032 A 
ATOM      3  C   UNL     1      -3.406   1.572   1.079  0.00  0.00    -0.044 A 
ATOM      4  C   UNL     1      -2.170   0.963   0.996  0.00  0.00    -0.025 A 
ATOM      5  C   UNL     1      -1.190   1.493   0.168  0.00  0.00    +0.053 A 
ATOM      6  C   UNL     1      -1.460   2.631  -0.583  0.00  0.00    +0.053 A 
ATOM      7  C   UNL     1      -1.883  -0.275   1.807  0.00  0.00    +0.046 C 
ATOM      8  C   UNL     1      -4.469   1.000   1.981  0.00  0.00    +0.044 C 
ENDROOT
BRANCH   1   9
ATOM      9  S   UNL     1      -3.044   4.675  -1.451  0.00  0.00    +0.061 S 
ATOM     10  O   UNL     1      -4.093   5.362  -0.782  0.00  0.00    -0.153 OA
ATOM     11  O   UNL     1      -1.792   5.285  -1.732  0.00  0.00    -0.153 OA
BRANCH   9  12
ATOM     12  N   UNL     1      -3.660   4.169  -2.902  0.00  0.00    -0.177 NA
BRANCH  12  14
ATOM     13  C   UNL     1      -5.719   5.253  -3.657  0.00  0.00    +0.022 C 
ATOM     14  C   UNL     1      -5.105   3.985  -3.060  0.00  0.00    +0.106 C 
ENDBRANCH  12  14
BRANCH  12  15
ATOM     15  C   UNL     1      -2.761   3.905  -4.028  0.00  0.00    +0.106 C 
ATOM     16  C   UNL     1      -2.418   2.415  -4.069  0.00  0.00    +0.022 C 
ENDBRANCH  12  15
ENDBRANCH   9  12
ENDBRANCH   1   9
BRANCH   5  17
ATOM     17  N   UNL     1       0.063   0.881   0.085  0.00  0.00    -0.216 N 
ATOM     18  H   UNL     1       0.136  -0.084   0.137  0.00  0.00    +0.174 HD
BRANCH  17  19
ATOM     19  S   UNL     1       1.424   1.805  -0.110  0.00  0.00    +0.073 S 
ATOM     20  O   UNL     1       2.532   0.919  -0.022  0.00  0.00    -0.150 OA
ATOM     21  O   UNL     1       1.196   2.630  -1.244  0.00  0.00    -0.150 OA
BRANCH  19  22
ATOM     22  C   UNL     1       1.528   2.879   1.283  0.00  0.00    +0.114 A 
ATOM     23  C   UNL     1       1.413   4.247   1.111  0.00  0.00    +0.061 A 
ATOM     24  C   UNL     1       1.494   5.090   2.204  0.00  0.00    +0.128 A 
ATOM     25  C   UNL     1       1.690   4.566   3.468  0.00  0.00    +0.036 A 
ATOM     26  C   UNL     1       1.804   3.199   3.640  0.00  0.00    -0.044 A 
ATOM     27  C   UNL     1       1.718   2.356   2.548  0.00  0.00    -0.021 A 
ATOM     28  C   UNL     1       1.837   0.865   2.736  0.00  0.00    +0.046 C 
ATOM     29  C   UNL     1       2.019   2.628   5.018  0.00  0.00    +0.044 C 
BRANCH  24  30
ATOM     30  N   UNL     1       1.371   6.553   2.019  0.00  0.00    +0.056 N 
ATOM     31  O   UNL     1       1.199   7.014   0.905  0.00  0.00    -0.126 OA
ATOM     32  O   UNL     1       1.442   7.296   2.982  0.00  0.00    -0.126 OA
ENDBRANCH  24  30
ENDBRANCH  19  22
ENDBRANCH  17  19
ENDBRANCH   5  17
TORSDOF 8
