REMARK  Name = ZINC27015927
REMARK  7 active torsions:
REMARK  status: ('A' for Active; 'I' for Inactive)
REMARK    1  A    between atoms: C_1  and  C_2
REMARK    2  A    between atoms: C_5  and  C_8
REMARK    3  A    between atoms: C_9  and  N_25
REMARK    4  A    between atoms: N_12  and  C_13
REMARK    5  A    between atoms: N_21  and  C_22
REMARK    6  A    between atoms: C_22  and  C_23
REMARK    7  A    between atoms: C_26  and  C_28
REMARK                            x       y       z     vdW  Elec       q    Type
REMARK                         _______ _______ _______ _____ _____    ______ ____
ROOT
ATOM      1  C   UNL     1      -5.858   2.807   0.018  0.00  0.00    +0.080 A 
ATOM      2  C   UNL     1      -5.630   1.487   0.237  0.00  0.00    +0.100 A 
ATOM      3  S   UNL     1      -3.885   1.345  -0.114  0.00  0.00    -0.036 S 
ATOM      4  C   UNL     1      -3.571   3.055  -0.521  0.00  0.00    +0.154 A 
ATOM      5  N   UNL     1      -2.439   3.630  -0.881  0.00  0.00    -0.334 N 
ATOM      6  N   UNL     1      -4.816   3.614  -0.368  0.00  0.00    -0.315 N 
ATOM      7  H   UNL     1      -2.399   4.720  -1.028  0.00  0.00    +0.168 HD
ENDROOT
BRANCH   5   8
ATOM      8  C   UNL     1      -1.317   2.872  -1.069  0.00  0.00    +0.061 A 
ATOM      9  C   UNL     1      -0.434   2.648  -0.009  0.00  0.00    +0.027 A 
ATOM     10  C   UNL     1       0.699   1.887  -0.207  0.00  0.00    +0.004 A 
ATOM     11  C   UNL     1       0.959   1.337  -1.450  0.00  0.00    +0.021 A 
ATOM     12  C   UNL     1       0.087   1.550  -2.505  0.00  0.00    +0.061 A 
ATOM     13  C   UNL     1      -1.049   2.314  -2.322  0.00  0.00    +0.083 A 
ATOM     14 CL   UNL     1      -2.140   2.581  -3.646  0.00  0.00    -0.080 Cl
ATOM     15 CL   UNL     1       0.424   0.855  -4.060  0.00  0.00    -0.082 Cl
ENDBRANCH   5   8
BRANCH   1  20
ATOM     16  C   UNL     1     -11.133   4.999   0.703  0.00  0.00    +0.044 C 
ATOM     17  C   UNL     1      -9.751   4.425   0.524  0.00  0.00    -0.050 A 
ATOM     18  C   UNL     1      -9.255   3.522   1.448  0.00  0.00    +0.004 A 
ATOM     19  C   UNL     1      -7.991   2.992   1.290  0.00  0.00    +0.010 A 
ATOM     20  C   UNL     1      -7.211   3.369   0.194  0.00  0.00    +0.001 A 
ATOM     21  C   UNL     1      -7.716   4.285  -0.732  0.00  0.00    +0.010 A 
ATOM     22  C   UNL     1      -8.984   4.803  -0.564  0.00  0.00    +0.004 A 
ENDBRANCH   1  20
BRANCH   2  23
ATOM     23  N   UNL     1      -6.526   0.497   0.630  0.00  0.00    -0.272 N 
ATOM     24  C   UNL     1      -6.077  -0.738   0.933  0.00  0.00    +0.284 C 
ATOM     25  O   UNL     1      -4.888  -0.987   0.863  0.00  0.00    -0.266 OA
ATOM     26  H   UNL     1      -7.601   0.722   0.694  0.00  0.00    +0.156 HD
BRANCH  24  27
ATOM     27  C   UNL     1      -7.022  -1.780   1.347  0.00  0.00    +0.189 A 
ATOM     28  C   UNL     1      -6.703  -3.067   1.675  0.00  0.00    +0.054 A 
ATOM     29  C   UNL     1      -7.907  -3.708   2.009  0.00  0.00    +0.042 A 
ATOM     30  C   UNL     1      -8.895  -2.798   1.864  0.00  0.00    +0.196 A 
ATOM     31  O   UNL     1      -8.358  -1.637   1.465  0.00  0.00    -0.458 OA
ENDBRANCH  24  27
ENDBRANCH   2  23
BRANCH   6  32
ATOM     32  C   UNL     1      -5.029   5.043  -0.614  0.00  0.00    +0.151 C 
BRANCH  32  33
ATOM     33  C   UNL     1      -3.817   5.816  -0.162  0.00  0.00    -0.013 C 
ATOM     34  C   UNL     1      -3.203   6.617  -0.997  0.00  0.00    +0.005 C 
ENDBRANCH  32  33
ENDBRANCH   6  32
TORSDOF 6
