REMARK  Name = ZINC38776206
REMARK  9 active torsions:
REMARK  status: ('A' for Active; 'I' for Inactive)
REMARK    1  A    between atoms: C_1  and  C_2
REMARK    2  A    between atoms: C_4  and  C_34
REMARK    3  A    between atoms: C_6  and  C_8
REMARK    4  A    between atoms: N_10  and  C_11
REMARK    5  A    between atoms: C_11  and  C_13
REMARK    6  A    between atoms: C_11  and  C_17
REMARK    7  A    between atoms: C_13  and  C_14
REMARK    8  A    between atoms: C_14  and  S_15
REMARK    9  A    between atoms: S_15  and  C_16
REMARK                            x       y       z     vdW  Elec       q    Type
REMARK                         _______ _______ _______ _____ _____    ______ ____
ROOT
ATOM      1  C   UNL     1      -0.494  -1.993   5.936  0.00  0.00    +0.236 C 
ATOM      2  O   UNL     1      -0.624  -0.813   5.688  0.00  0.00    -0.274 OA
ATOM      3  N   UNL     1      -0.849  -2.470   7.146  0.00  0.00    -0.300 N 
ATOM      4  C   UNL     1      -0.593  -3.872   7.502  0.00  0.00    +0.106 C 
ATOM      5  C   UNL     1       0.189  -3.910   8.819  0.00  0.00    +0.009 C 
ATOM      6  C   UNL     1      -0.571  -3.118   9.883  0.00  0.00    -0.037 C 
ATOM      7  C   UNL     1      -0.710  -1.660   9.443  0.00  0.00    +0.009 C 
ATOM      8  C   UNL     1      -1.495  -1.596   8.135  0.00  0.00    +0.106 C 
ATOM      9  C   UNL     1       0.183  -3.186  11.212  0.00  0.00    +0.140 C 
ATOM     10  C   UNL     1       0.151  -4.654  11.629  0.00  0.00    +0.042 C 
ATOM     11  N   UNL     1       1.368  -5.003  11.790  0.00  0.00    -0.243 NA
ATOM     12  C   UNL     1       2.223  -4.007  11.451  0.00  0.00    +0.216 C 
ATOM     13  N   UNL     1       1.613  -2.903  11.074  0.00  0.00    -0.264 NA
ATOM     14  C   UNL     1      -1.139  -5.433  11.665  0.00  0.00    +0.034 C 
ATOM     15  C   UNL     1      -1.843  -5.148  10.324  0.00  0.00    -0.076 C 
ATOM     16  N   UNL     1      -1.905  -3.706  10.076  0.00  0.00    +0.385 N 
ATOM     17  H   UNL     1      -2.350  -3.257  10.863  0.00  0.00    -0.085 HD
ATOM     18  H   UNL     1      -2.459  -3.539   9.249  0.00  0.00    -0.085 HD
ENDROOT
BRANCH   1  19
ATOM     19  C   UNL     1       0.064  -2.925   4.893  0.00  0.00    +0.160 C 
BRANCH  19  22
ATOM     20  C   UNL     1      -0.282  -3.217   2.498  0.00  0.00    +0.245 C 
ATOM     21  O   UNL     1      -0.115  -4.412   2.649  0.00  0.00    -0.270 OA
ATOM     22  N   UNL     1      -0.213  -2.388   3.558  0.00  0.00    -0.300 N 
ATOM     23  H   UNL     1      -0.347  -1.435   3.438  0.00  0.00    +0.150 HD
BRANCH  20  29
ATOM     24  C   UNL     1      -1.227   0.677  -0.476  0.00  0.00    +0.044 C 
ATOM     25  C   UNL     1      -1.018  -0.803  -0.284  0.00  0.00    -0.049 A 
ATOM     26  C   UNL     1      -1.088  -1.658  -1.370  0.00  0.00    +0.006 A 
ATOM     27  C   UNL     1      -0.897  -3.018  -1.202  0.00  0.00    -0.049 A 
ATOM     28  C   UNL     1      -0.635  -3.530   0.052  0.00  0.00    +0.016 A 
ATOM     29  C   UNL     1      -0.562  -2.674   1.152  0.00  0.00    +0.037 A 
ATOM     30  C   UNL     1      -0.751  -1.303   0.974  0.00  0.00    +0.016 A 
ATOM     31  C   UNL     1      -0.975  -3.941  -2.390  0.00  0.00    +0.044 C 
ENDBRANCH  20  29
ENDBRANCH  19  22
BRANCH  19  32
ATOM     32  C   UNL     1       1.576  -3.059   5.084  0.00  0.00    +0.042 C 
BRANCH  32  33
ATOM     33  C   UNL     1       2.121  -4.114   4.119  0.00  0.00    +0.071 C 
BRANCH  33  34
ATOM     34  S   UNL     1       3.914  -4.272   4.346  0.00  0.00    -0.164 S 
ATOM     35  C   UNL     1       4.398  -5.543   3.146  0.00  0.00    +0.084 C 
ENDBRANCH  33  34
ENDBRANCH  32  33
ENDBRANCH  19  32
ENDBRANCH   1  19
TORSDOF 6
