REMARK  Name = ZINC39466864
REMARK  7 active torsions:
REMARK  status: ('A' for Active; 'I' for Inactive)
REMARK    1  A    between atoms: C_1  and  C_2
REMARK    2  A    between atoms: C_2  and  O_3
REMARK    3  A    between atoms: O_3  and  C_4
REMARK    4  A    between atoms: P_13  and  C_29
REMARK    5  A    between atoms: C_21  and  C_22
REMARK    6  A    between atoms: C_22  and  C_23
REMARK    7  A    between atoms: C_29  and  C_30
REMARK                            x       y       z     vdW  Elec       q    Type
REMARK                         _______ _______ _______ _____ _____    ______ ____
ROOT
ATOM      1  C   UNL     1       0.802  -1.824   1.306  0.00  0.00    +0.120 C 
ATOM      2  C   UNL     1       0.281  -2.646   0.389  0.00  0.00    +0.023 C 
ATOM      3  C   UNL     1       0.404  -4.135   0.577  0.00  0.00    +0.019 C 
ATOM      4  C   UNL     1      -0.682  -4.865  -0.202  0.00  0.00    -0.002 C 
ATOM      5  C   UNL     1      -2.071  -4.528   0.355  0.00  0.00    -0.020 C 
ATOM      6  C   UNL     1      -3.091  -5.328  -0.466  0.00  0.00    +0.156 C 
ATOM      7  O   UNL     1      -4.422  -5.015  -0.018  0.00  0.00    -0.319 OA
ATOM      8  P   UNL     1      -4.720  -5.098   1.579  0.00  0.00    +0.262 P 
ATOM      9  O   UNL     1      -4.949  -6.503   1.986  0.00  0.00    -0.274 OA
ATOM     10  N   UNL     1      -3.361  -4.507   2.304  0.00  0.00    -0.291 NA
ATOM     11  N   UNL     1      -2.141  -4.875   1.777  0.00  0.00    +0.397 N 
ATOM     12  C   UNL     1      -1.130  -4.124   2.537  0.00  0.00    -0.046 C 
ATOM     13  C   UNL     1       0.262  -4.476   2.063  0.00  0.00    +0.005 C 
ATOM     14  C   UNL     1       1.247  -3.643   2.850  0.00  0.00    -0.017 C 
ATOM     15  C   UNL     1       1.501  -2.393   2.474  0.00  0.00    -0.005 C 
ATOM     16  H   UNL     1      -3.419  -3.922   3.076  0.00  0.00    +0.111 HD
ATOM     17  H   UNL     1      -2.003  -5.868   1.892  0.00  0.00    -0.055 HD
ENDROOT
BRANCH   1  18
ATOM     18  O   UNL     1       0.693  -0.477   1.160  0.00  0.00    -0.492 OA
BRANCH  18  20
ATOM     19  C   UNL     1      -0.019   1.526   0.010  0.00  0.00    +0.048 C 
ATOM     20  C   UNL     1       0.002  -0.004   0.002  0.00  0.00    +0.225 C 
ENDBRANCH  18  20
ENDBRANCH   1  18
BRANCH  15  21
ATOM     21  C   UNL     1       2.494  -1.558   3.241  0.00  0.00    +0.073 C 
BRANCH  21  22
ATOM     22  C   UNL     1       3.843  -1.644   2.574  0.00  0.00    -0.043 A 
ATOM     23  C   UNL     1       4.734  -2.635   2.943  0.00  0.00    +0.004 A 
ATOM     24  C   UNL     1       5.971  -2.714   2.331  0.00  0.00    +0.000 A 
ATOM     25  C   UNL     1       6.318  -1.803   1.352  0.00  0.00    +0.000 A 
ATOM     26  C   UNL     1       5.427  -0.812   0.983  0.00  0.00    +0.000 A 
ATOM     27  C   UNL     1       4.188  -0.736   1.591  0.00  0.00    +0.004 A 
ENDBRANCH  21  22
ENDBRANCH  15  21
BRANCH   8  28
ATOM     28  C   UNL     1      -6.166  -4.074   2.007  0.00  0.00    +0.147 C 
BRANCH  28  29
ATOM     29  C   UNL     1      -7.374  -4.571   1.254  0.00  0.00    -0.037 A 
ATOM     30  C   UNL     1      -7.666  -4.061   0.003  0.00  0.00    +0.004 A 
ATOM     31  C   UNL     1      -8.774  -4.516  -0.687  0.00  0.00    +0.000 A 
ATOM     32  C   UNL     1      -9.589  -5.482  -0.127  0.00  0.00    +0.000 A 
ATOM     33  C   UNL     1      -9.296  -5.993   1.124  0.00  0.00    +0.000 A 
ATOM     34  C   UNL     1      -8.186  -5.540   1.812  0.00  0.00    +0.004 A 
ENDBRANCH  28  29
ENDBRANCH   8  28
TORSDOF 6
