REMARK  Name = ZINC44173104
REMARK  10 active torsions:
REMARK  status: ('A' for Active; 'I' for Inactive)
REMARK    1  A    between atoms: C_1  and  C_2
REMARK    2  A    between atoms: C_3  and  C_7
REMARK    3  A    between atoms: C_7  and  C_8
REMARK    4  A    between atoms: C_8  and  N_9
REMARK    5  A    between atoms: C_14  and  C_27
REMARK    6  A    between atoms: C_17  and  C_22
REMARK    7  A    between atoms: C_17  and  C_24
REMARK    8  A    between atoms: C_22  and  O_23
REMARK    9  A    between atoms: C_30  and  C_33
REMARK   10  A    between atoms: C_34  and  C_35
REMARK                            x       y       z     vdW  Elec       q    Type
REMARK                         _______ _______ _______ _____ _____    ______ ____
ROOT
ATOM      1  N   UNL     1       1.306   0.753  -4.247  0.00  0.00    -0.241 N 
ATOM      2  C   UNL     1       1.292  -0.185  -5.250  0.00  0.00    +0.224 C 
ATOM      3  O   UNL     1       1.046  -1.368  -5.155  0.00  0.00    -0.275 OA
ATOM      4  C   UNL     1       1.635   0.553  -6.443  0.00  0.00    +0.077 C 
ATOM      5  C   UNL     1       1.550   0.435  -7.905  0.00  0.00    -0.027 C 
ATOM      6  N   UNL     1       1.717   1.842  -8.401  0.00  0.00    +0.397 N 
ATOM      7  C   UNL     1       1.768   2.740  -7.201  0.00  0.00    +0.071 C 
ATOM      8  C   UNL     1       0.939   1.946  -6.169  0.00  0.00    +0.088 C 
ATOM      9  C   UNL     1       1.334   2.034  -4.720  0.00  0.00    +0.225 C 
ATOM     10  O   UNL     1       1.620   3.036  -4.101  0.00  0.00    -0.275 OA
ATOM     11  H   UNL     1       2.576   1.921  -8.924  0.00  0.00    -0.083 HD
ATOM     12  H   UNL     1       0.933   2.094  -8.984  0.00  0.00    -0.083 HD
ENDROOT
BRANCH   5  13
ATOM     13  C   UNL     1       0.207  -0.114  -8.312  0.00  0.00    -0.061 A 
ATOM     14  C   UNL     1      -0.892   0.725  -8.367  0.00  0.00    +0.002 A 
ATOM     15  C   UNL     1      -2.124   0.229  -8.739  0.00  0.00    +0.008 A 
ATOM     16  C   UNL     1      -2.260  -1.123  -9.062  0.00  0.00    -0.025 A 
ATOM     17  C   UNL     1      -1.146  -1.964  -9.004  0.00  0.00    +0.008 A 
ATOM     18  C   UNL     1       0.081  -1.454  -8.636  0.00  0.00    +0.002 A 
BRANCH  16  19
ATOM     19  C   UNL     1      -3.574  -1.661  -9.460  0.00  0.00    +0.008 C 
ATOM     20  C   UNL     1      -3.701  -2.961  -9.769  0.00  0.00    +0.008 C 
BRANCH  20  21
ATOM     21  C   UNL     1      -5.015  -3.498 -10.168  0.00  0.00    -0.025 A 
ATOM     22  C   UNL     1      -6.128  -2.656 -10.230  0.00  0.00    +0.008 A 
ATOM     23  C   UNL     1      -7.354  -3.166 -10.604  0.00  0.00    +0.001 A 
ATOM     24  C   UNL     1      -7.483  -4.508 -10.917  0.00  0.00    +0.000 A 
ATOM     25  C   UNL     1      -6.385  -5.348 -10.857  0.00  0.00    +0.001 A 
ATOM     26  C   UNL     1      -5.151  -4.851 -10.490  0.00  0.00    +0.008 A 
ENDBRANCH  20  21
ENDBRANCH  16  19
ENDBRANCH   5  13
BRANCH   7  27
ATOM     27  C   UNL     1       1.112   4.064  -7.496  0.00  0.00    +0.348 C 
ATOM     28  O   UNL     1       0.657   4.285  -8.606  0.00  0.00    -0.248 OA
ATOM     29  O   UNL     1       1.036   4.914  -6.626  0.00  0.00    -0.248 OA
ENDBRANCH   7  27
BRANCH   1  30
ATOM     30  C   UNL     1       1.287   0.415  -2.821  0.00  0.00    +0.121 C 
BRANCH  30  31
ATOM     31  C   UNL     1      -0.162   0.325  -2.338  0.00  0.00    +0.063 C 
BRANCH  31  34
ATOM     32  C   UNL     1      -0.147   2.295   0.069  0.00  0.00    +0.066 C 
ATOM     33  C   UNL     1      -0.177   0.795   0.213  0.00  0.00    +0.049 A 
ATOM     34  C   UNL     1      -0.182  -0.022  -0.872  0.00  0.00    +0.014 A 
ATOM     35  S   UNL     1      -0.219  -1.621  -0.078  0.00  0.00    -0.080 S 
ATOM     36  C   UNL     1      -0.224  -1.088   1.518  0.00  0.00    +0.156 A 
ATOM     37  N   UNL     1      -0.193   0.216   1.397  0.00  0.00    -0.252 NA
ENDBRANCH  31  34
ENDBRANCH  30  31
ENDBRANCH   1  30
BRANCH   7  38
ATOM     38  C   UNL     1       3.212   2.940  -6.735  0.00  0.00    +0.155 C 
BRANCH  38  39
ATOM     39  O   UNL     1       3.968   3.557  -7.778  0.00  0.00    -0.396 OA
ATOM     40  H   UNL     1       4.894   3.715  -7.552  0.00  0.00    +0.209 HD
ENDBRANCH  38  39
ENDBRANCH   7  38
TORSDOF 9
