REMARK  Name = ZINC17014925
REMARK  8 active torsions:
REMARK  status: ('A' for Active; 'I' for Inactive)
REMARK    1  A    between atoms: C_1  and  C_2
REMARK    2  A    between atoms: C_4  and  O_40
REMARK    3  A    between atoms: C_5  and  C_9
REMARK    4  A    between atoms: N_17  and  C_33
REMARK    5  A    between atoms: C_18  and  C_20
REMARK    6  A    between atoms: C_24  and  O_26
REMARK    7  A    between atoms: O_26  and  C_27
REMARK    8  A    between atoms: C_33  and  C_34
REMARK                            x       y       z     vdW  Elec       q    Type
REMARK                         _______ _______ _______ _____ _____    ______ ____
ROOT
ATOM      1  C   UNL     1      -0.218  -4.413  -0.277  0.00  0.00    +0.075 A 
ATOM      2  C   UNL     1       0.915  -5.119  -0.525  0.00  0.00    +0.035 A 
ATOM      3  C   UNL     1       0.571  -6.479  -0.356  0.00  0.00    +0.153 A 
ATOM      4  N   UNL     1      -0.705  -6.514  -0.026  0.00  0.00    -0.168 NA
ATOM      5  N   UNL     1      -1.187  -5.324   0.032  0.00  0.00    -0.276 N 
ATOM      6  H   UNL     1      -2.105  -5.106   0.260  0.00  0.00    +0.189 HD
ATOM      7  C   UNL     1       1.776  -7.287  -0.617  0.00  0.00    +0.268 C 
ATOM      8  O   UNL     1       1.824  -8.500  -0.557  0.00  0.00    -0.268 OA
ATOM      9  N   UNL     1       2.814  -6.493  -0.931  0.00  0.00    -0.281 N 
ATOM     10  C   UNL     1       2.372  -5.094  -0.901  0.00  0.00    +0.142 C 
ENDROOT
BRANCH   1  15
ATOM     11  C   UNL     1      -0.815   1.312  -0.470  0.00  0.00    +0.045 C 
ATOM     12  C   UNL     1      -0.657  -0.186  -0.417  0.00  0.00    -0.029 A 
ATOM     13  C   UNL     1       0.162  -0.758   0.538  0.00  0.00    +0.050 A 
ATOM     14  C   UNL     1       0.310  -2.134   0.591  0.00  0.00    +0.126 A 
ATOM     15  C   UNL     1      -0.371  -2.942  -0.326  0.00  0.00    +0.043 A 
ATOM     16  C   UNL     1      -1.196  -2.356  -1.285  0.00  0.00    +0.034 A 
ATOM     17  C   UNL     1      -1.338  -0.982  -1.322  0.00  0.00    +0.045 A 
ATOM     18 CL   UNL     1      -2.370  -0.252  -2.513  0.00  0.00    -0.083 Cl
BRANCH  14  19
ATOM     19  O   UNL     1       1.116  -2.696   1.529  0.00  0.00    -0.506 OA
ATOM     20  H   UNL     1       0.684  -2.842   2.382  0.00  0.00    +0.292 HD
ENDBRANCH  14  19
ENDBRANCH   1  15
BRANCH  10  21
ATOM     21  C   UNL     1       2.545  -4.468  -2.260  0.00  0.00    -0.019 A 
ATOM     22  C   UNL     1       2.099  -5.131  -3.389  0.00  0.00    +0.006 A 
ATOM     23  C   UNL     1       2.256  -4.558  -4.638  0.00  0.00    +0.004 A 
ATOM     24  C   UNL     1       2.859  -3.322  -4.761  0.00  0.00    +0.046 A 
ATOM     25  C   UNL     1       3.307  -2.654  -3.630  0.00  0.00    +0.129 A 
ATOM     26  C   UNL     1       3.143  -3.228  -2.378  0.00  0.00    +0.052 A 
BRANCH  25  27
ATOM     27  O   UNL     1       3.901  -1.438  -3.749  0.00  0.00    -0.456 OA
BRANCH  27  28
ATOM     28  C   UNL     1       5.228  -1.346  -3.471  0.00  0.00    +0.128 A 
ATOM     29  C   UNL     1       5.958  -2.490  -3.180  0.00  0.00    +0.046 A 
ATOM     30  C   UNL     1       7.307  -2.394  -2.898  0.00  0.00    +0.004 A 
ATOM     31  C   UNL     1       7.930  -1.159  -2.905  0.00  0.00    +0.000 A 
ATOM     32  C   UNL     1       7.205  -0.018  -3.194  0.00  0.00    +0.004 A 
ATOM     33  C   UNL     1       5.857  -0.109  -3.483  0.00  0.00    +0.046 A 
ENDBRANCH  27  28
ENDBRANCH  25  27
ENDBRANCH  10  21
BRANCH   9  34
ATOM     34  C   UNL     1       4.169  -6.950  -1.251  0.00  0.00    +0.145 C 
BRANCH  34  35
ATOM     35  C   UNL     1       4.281  -7.189  -2.735  0.00  0.00    -0.012 A 
ATOM     36  C   UNL     1       3.982  -8.432  -3.271  0.00  0.00    +0.008 A 
ATOM     37  C   UNL     1       4.099  -8.606  -4.641  0.00  0.00    +0.020 A 
ATOM     38  C   UNL     1       4.507  -7.541  -5.422  0.00  0.00    +0.111 A 
ATOM     39  N   UNL     1       4.784  -6.372  -4.878  0.00  0.00    -0.263 NA
ATOM     40  C   UNL     1       4.678  -6.169  -3.579  0.00  0.00    +0.115 A 
ENDBRANCH  34  35
ENDBRANCH   9  34
TORSDOF 7
