REMARK  Name = ZINC08837591
REMARK  8 active torsions:
REMARK  status: ('A' for Active; 'I' for Inactive)
REMARK    1  A    between atoms: C_1  and  C_2
REMARK    2  A    between atoms: C_2  and  C_3
REMARK    3  A    between atoms: C_6  and  N_9
REMARK    4  A    between atoms: C_12  and  C_13
REMARK    5  A    between atoms: N_14  and  C_15
REMARK    6  A    between atoms: C_20  and  C_21
REMARK    7  A    between atoms: C_20  and  N_60
REMARK    8  A    between atoms: C_27  and  O_31
REMARK                            x       y       z     vdW  Elec       q    Type
REMARK                         _______ _______ _______ _____ _____    ______ ____
ROOT
ATOM      1  N   UNL     1      -0.023   1.377  -0.032  0.00  0.00    -0.192 N 
ATOM      2  C   UNL     1      -1.278   1.875  -0.035  0.00  0.00    +0.245 C 
ATOM      3  O   UNL     1      -2.246   1.139  -0.090  0.00  0.00    -0.274 OA
ATOM      4  C   UNL     1      -1.436   3.339   0.034  0.00  0.00    +0.199 C 
ATOM      5  C   UNL     1      -0.207   4.141   0.090  0.00  0.00    +0.198 C 
ATOM      6  N   UNL     1       0.957   3.514   0.081  0.00  0.00    -0.131 NA
ATOM      7  C   UNL     1       1.044   2.188   0.022  0.00  0.00    +0.339 C 
ATOM      8  O   UNL     1       2.153   1.682   0.018  0.00  0.00    -0.250 OA
ENDROOT
BRANCH   1  12
ATOM      9  C   UNL     1       0.545  -2.749  -0.211  0.00  0.00    -0.048 A 
ATOM     10  C   UNL     1       0.949  -1.950  -1.265  0.00  0.00    +0.005 A 
ATOM     11  C   UNL     1       0.762  -0.583  -1.209  0.00  0.00    +0.024 A 
ATOM     12  C   UNL     1       0.168  -0.010  -0.092  0.00  0.00    +0.045 A 
ATOM     13  C   UNL     1      -0.231  -0.814   0.967  0.00  0.00    +0.024 A 
ATOM     14  C   UNL     1      -0.046  -2.181   0.902  0.00  0.00    +0.005 A 
BRANCH   9  16
ATOM     15  C   UNL     1       2.118  -4.592   0.315  0.00  0.00    +0.009 C 
ATOM     16  C   UNL     1       0.751  -4.240  -0.276  0.00  0.00    +0.032 C 
ENDBRANCH   9  16
ENDBRANCH   1  12
BRANCH   4  17
ATOM     17  C   UNL     1      -2.690   3.932   0.040  0.00  0.00    +0.100 C 
ATOM     18  N   UNL     1      -3.795   3.169   0.128  0.00  0.00    -0.291 NA
BRANCH  18  19
ATOM     19  C   UNL     1      -5.120   3.782   0.011  0.00  0.00    +0.101 C 
ATOM     20  C   UNL     1      -5.562   4.309   1.380  0.00  0.00    +0.008 C 
ATOM     21  C   UNL     1      -6.972   4.894   1.265  0.00  0.00    -0.076 C 
ATOM     22  C   UNL     1      -7.521   3.367  -0.535  0.00  0.00    -0.076 C 
ATOM     23  C   UNL     1      -6.128   2.736  -0.474  0.00  0.00    +0.008 C 
ATOM     24  N   UNL     1      -7.897   3.832   0.817  0.00  0.00    +0.382 N 
ATOM     25  H   UNL     1      -7.837   3.041   1.470  0.00  0.00    -0.081 HD
BRANCH  24  26
ATOM     26  C   UNL     1      -9.284   4.342   0.808  0.00  0.00    -0.043 C 
BRANCH  26  27
ATOM     27  C   UNL     1      -9.715   4.602   2.228  0.00  0.00    -0.064 A 
ATOM     28  C   UNL     1     -10.313   3.596   2.965  0.00  0.00    +0.002 A 
ATOM     29  C   UNL     1     -10.703   3.834   4.269  0.00  0.00    +0.000 A 
ATOM     30  C   UNL     1     -10.506   5.080   4.834  0.00  0.00    +0.000 A 
ATOM     31  C   UNL     1      -9.913   6.087   4.096  0.00  0.00    +0.000 A 
ATOM     32  C   UNL     1      -9.517   5.848   2.793  0.00  0.00    +0.002 A 
ENDBRANCH  26  27
ENDBRANCH  24  26
ENDBRANCH  18  19
ENDBRANCH   4  17
BRANCH   5  33
ATOM     33  O   UNL     1      -0.265   5.488   0.151  0.00  0.00    -0.496 OA
ATOM     34  H   UNL     1       0.601   5.918   0.185  0.00  0.00    +0.293 HD
ENDBRANCH   5  33
TORSDOF 7
