REMARK  Name = ZINC06407871
REMARK  11 active torsions:
REMARK  status: ('A' for Active; 'I' for Inactive)
REMARK    1  A    between atoms: C_1  and  C_2
REMARK    2  A    between atoms: C_5  and  C_7
REMARK    3  A    between atoms: C_12  and  C_17
REMARK    4  A    between atoms: C_20  and  O_25
REMARK    5  A    between atoms: C_21  and  O_23
REMARK    6  A    between atoms: O_23  and  C_24
REMARK    7  A    between atoms: O_25  and  C_26
REMARK    8  A    between atoms: C_28  and  C_39
REMARK    9  A    between atoms: C_29  and  C_30
REMARK   10  A    between atoms: C_30  and  O_32
REMARK   11  A    between atoms: O_32  and  C_33
REMARK                            x       y       z     vdW  Elec       q    Type
REMARK                         _______ _______ _______ _____ _____    ______ ____
ROOT
ATOM      1  C   UNL     1      -0.697   2.208   3.645  0.00  0.00    +0.128 C 
ATOM      2  C   UNL     1      -2.197   2.092   3.545  0.00  0.00    +0.027 C 
ATOM      3  C   UNL     1      -2.798   1.934   2.347  0.00  0.00    +0.016 C 
ATOM      4  C   UNL     1      -4.299   1.830   2.238  0.00  0.00    +0.059 C 
ATOM      5  C   UNL     1      -4.863   1.182   3.505  0.00  0.00    +0.032 C 
ATOM      6  C   UNL     1      -4.448   2.031   4.711  0.00  0.00    +0.088 C 
ATOM      7  C   UNL     1      -2.949   2.153   4.732  0.00  0.00    +0.162 C 
ATOM      8  O   UNL     1      -2.377   2.307   5.793  0.00  0.00    -0.292 OA
ATOM      9  N   UNL     1      -2.052   1.867   1.199  0.00  0.00    -0.321 N 
ATOM     10  C   UNL     1      -0.722   1.556   1.252  0.00  0.00    +0.016 C 
ATOM     11  C   UNL     1      -0.034   1.701   2.398  0.00  0.00    +0.068 C 
ATOM     12  C   UNL     1      -0.021   1.052   0.017  0.00  0.00    +0.061 C 
ATOM     13  H   UNL     1      -2.523   2.064   0.225  0.00  0.00    +0.152 HD
ENDROOT
BRANCH   1  18
ATOM     14  C   UNL     1      -0.195   7.164   2.853  0.00  0.00    +0.086 C 
ATOM     15  C   UNL     1      -0.106   5.809   3.506  0.00  0.00    +0.102 A 
ATOM     16  C   UNL     1       0.460   5.545   4.698  0.00  0.00    +0.044 A 
ATOM     17  C   UNL     1       0.315   4.157   4.922  0.00  0.00    +0.046 A 
ATOM     18  C   UNL     1      -0.325   3.654   3.850  0.00  0.00    +0.117 A 
ATOM     19  O   UNL     1      -0.580   4.660   2.998  0.00  0.00    -0.464 OA
ENDBRANCH   1  18
BRANCH   5  20
ATOM     20  C   UNL     1      -6.366   1.124   3.419  0.00  0.00    -0.040 A 
ATOM     21  C   UNL     1      -7.094   2.291   3.275  0.00  0.00    +0.008 A 
ATOM     22  C   UNL     1      -8.473   2.244   3.190  0.00  0.00    +0.049 A 
ATOM     23  C   UNL     1      -9.129   1.025   3.259  0.00  0.00    +0.161 A 
ATOM     24  C   UNL     1      -8.397  -0.149   3.409  0.00  0.00    +0.162 A 
ATOM     25  C   UNL     1      -7.015  -0.094   3.488  0.00  0.00    +0.053 A 
BRANCH  24  26
ATOM     26  O   UNL     1      -9.037  -1.347   3.477  0.00  0.00    -0.491 OA
ATOM     27  C   UNL     1      -8.222  -2.510   3.631  0.00  0.00    +0.277 C 
ENDBRANCH  24  26
BRANCH  23  28
ATOM     28  O   UNL     1     -10.486   0.977   3.182  0.00  0.00    -0.491 OA
ATOM     29  C   UNL     1     -11.172   2.221   3.028  0.00  0.00    +0.277 C 
ENDBRANCH  23  28
ENDBRANCH   5  20
BRANCH  11  30
ATOM     30  C   UNL     1       1.341   1.371   2.428  0.00  0.00    +0.338 C 
ATOM     31  O   UNL     1       1.915   1.062   1.401  0.00  0.00    -0.245 OA
BRANCH  30  32
ATOM     32  O   UNL     1       2.016   1.400   3.596  0.00  0.00    -0.458 OA
BRANCH  32  33
ATOM     33  C   UNL     1       3.402   1.055   3.553  0.00  0.00    +0.177 C 
ATOM     34  C   UNL     1       3.560  -0.452   3.766  0.00  0.00    +0.044 C 
ATOM     35  C   UNL     1       5.044  -0.822   3.719  0.00  0.00    +0.004 C 
ATOM     36  C   UNL     1       5.791  -0.070   4.822  0.00  0.00    +0.000 C 
ATOM     37  C   UNL     1       5.634   1.437   4.609  0.00  0.00    +0.004 C 
ATOM     38  C   UNL     1       4.150   1.807   4.656  0.00  0.00    +0.044 C 
ENDBRANCH  32  33
ENDBRANCH  30  32
ENDBRANCH  11  30
TORSDOF 7
