REMARK  Name = ZINC12401686
REMARK  7 active torsions:
REMARK  status: ('A' for Active; 'I' for Inactive)
REMARK    1  A    between atoms: C_1  and  C_2
REMARK    2  A    between atoms: C_2  and  C_3
REMARK    3  A    between atoms: C_2  and  S_4
REMARK    4  A    between atoms: S_4  and  C_5
REMARK    5  A    between atoms: C_13  and  C_20
REMARK    6  A    between atoms: C_15  and  C_18
REMARK    7  A    between atoms: C_16  and  N_17
REMARK                            x       y       z     vdW  Elec       q    Type
REMARK                         _______ _______ _______ _____ _____    ______ ____
ROOT
ATOM      1  C   UNL     1       7.824   4.510   0.168  0.00  0.00    +0.160 A 
ATOM      2  N   UNL     1       7.213   5.680   0.049  0.00  0.00    -0.133 NA
ATOM      3  N   UNL     1       5.956   5.774   0.006  0.00  0.00    -0.124 NA
ATOM      4  C   UNL     1       5.170   4.712   0.077  0.00  0.00    +0.194 A 
ATOM      5  S   UNL     1       6.403   3.423   0.231  0.00  0.00    -0.024 S 
ATOM      6  N   UNL     1       3.780   4.623   0.047  0.00  0.00    -0.237 N 
ATOM      7  C   UNL     1       3.128   4.562  -1.157  0.00  0.00    +0.026 C 
ATOM      8  C   UNL     1       1.868   4.085  -1.233  0.00  0.00    +0.025 C 
ATOM      9  C   UNL     1       1.145   3.605   0.000  0.00  0.00    +0.097 C 
ATOM     10  C   UNL     1       1.800   4.120   1.248  0.00  0.00    +0.077 C 
ATOM     11  C   UNL     1       3.071   4.596   1.227  0.00  0.00    +0.108 C 
ATOM     12  C   UNL     1       1.191   4.018  -2.464  0.00  0.00    +0.162 C 
ATOM     13  O   UNL     1       0.052   3.598  -2.496  0.00  0.00    -0.292 OA
ATOM     14  C   UNL     1       1.853   4.458  -3.741  0.00  0.00    +0.080 C 
ATOM     15  C   UNL     1       3.367   4.263  -3.611  0.00  0.00    +0.014 C 
ATOM     16  C   UNL     1       3.853   5.045  -2.389  0.00  0.00    +0.052 C 
ENDROOT
BRANCH   9  17
ATOM     17  C   UNL     1       1.154   2.098   0.023  0.00  0.00    -0.031 A 
ATOM     18  C   UNL     1       2.357   1.416   0.048  0.00  0.00    +0.008 A 
ATOM     19  C   UNL     1       2.370   0.034   0.068  0.00  0.00    +0.050 A 
ATOM     20  C   UNL     1       1.178  -0.672   0.066  0.00  0.00    +0.166 A 
ATOM     21  C   UNL     1      -0.033   0.015   0.042  0.00  0.00    +0.167 A 
ATOM     22  C   UNL     1      -0.039   1.401   0.021  0.00  0.00    +0.054 A 
ATOM     23  O   UNL     1      -1.051  -0.894   0.044  0.00  0.00    -0.453 OA
ATOM     24  C   UNL     1      -0.459  -2.132   0.481  0.00  0.00    +0.466 C 
ATOM     25  O   UNL     1       0.919  -2.012   0.082  0.00  0.00    -0.453 OA
ENDBRANCH   9  17
BRANCH  11  26
ATOM     26  N   UNL     1       3.651   5.053   2.387  0.00  0.00    -0.345 N 
ATOM     27  H   UNL     1       4.526   5.473   2.359  0.00  0.00    +0.144 HD
ATOM     28  H   UNL     1       3.187   4.957   3.232  0.00  0.00    +0.144 HD
ENDBRANCH  11  26
BRANCH  10  29
ATOM     29  C   UNL     1       1.073   4.107   2.481  0.00  0.00    +0.099 C 
ATOM     30  N   UNL     1       0.495   4.098   3.459  0.00  0.00    -0.191 NA
ENDBRANCH  10  29
BRANCH   1  31
ATOM     31  S   UNL     1       9.543   4.133   0.248  0.00  0.00    -0.094 S 
BRANCH  31  33
ATOM     32  C   UNL     1      10.001   6.591   1.357  0.00  0.00    +0.019 C 
ATOM     33  C   UNL     1      10.354   5.751   0.128  0.00  0.00    +0.047 C 
ATOM     34  C   UNL     1      11.870   5.559   0.060  0.00  0.00    +0.019 C 
ENDBRANCH  31  33
ENDBRANCH   1  31
TORSDOF 5
