REMARK  Name = ZINC04720948
REMARK  2 active torsions:
REMARK  status: ('A' for Active; 'I' for Inactive)
REMARK    1  A    between atoms: C_1  and  C_2
REMARK    2  A    between atoms: C_13  and  C_18
REMARK                            x       y       z     vdW  Elec       q    Type
REMARK                         _______ _______ _______ _____ _____    ______ ____
ROOT
ATOM      1  C   UNL     1       0.127   0.999   0.081  0.00  0.00    +0.078 C 
ATOM      2  C   UNL     1      -0.588   1.520   1.330  0.00  0.00    +0.176 C 
ATOM      3  C   UNL     1      -2.068   1.122   1.280  0.00  0.00    +0.078 C 
ATOM      4  C   UNL     1      -2.690   1.544   2.631  0.00  0.00    +0.047 C 
ATOM      5  C   UNL     1      -2.304   2.966   2.952  0.00  0.00    -0.001 A 
ATOM      6  C   UNL     1      -3.034   3.655   3.906  0.00  0.00    +0.007 A 
ATOM      7  C   UNL     1      -2.707   4.958   4.227  0.00  0.00    +0.001 A 
ATOM      8  C   UNL     1      -1.647   5.581   3.595  0.00  0.00    +0.004 A 
ATOM      9  C   UNL     1      -0.916   4.899   2.643  0.00  0.00    +0.046 A 
ATOM     10  C   UNL     1      -1.243   3.587   2.317  0.00  0.00    +0.127 A 
ATOM     11  O   UNL     1      -0.503   2.948   1.372  0.00  0.00    -0.468 OA
ATOM     12  C   UNL     1      -2.128   0.614   3.713  0.00  0.00    +0.148 C 
ATOM     13  C   UNL     1      -0.630   0.564   3.604  0.00  0.00    +0.227 C 
ATOM     14  O   UNL     1       0.001   0.139   4.548  0.00  0.00    -0.275 OA
ATOM     15  N   UNL     1       0.041   0.962   2.522  0.00  0.00    -0.278 N 
ATOM     16  H   UNL     1       1.007   0.875   2.528  0.00  0.00    +0.152 HD
ENDROOT
BRANCH  12  17
ATOM     17  C   UNL     1      -2.515   1.135   5.073  0.00  0.00    +0.123 A 
ATOM     18  N   UNL     1      -3.734   0.799   5.569  0.00  0.00    -0.310 N 
ATOM     19  H   UNL     1      -4.347   0.223   5.028  0.00  0.00    +0.170 HD
ATOM     20  C   UNL     1      -4.127   1.237   6.788  0.00  0.00    +0.259 A 
ATOM     21  O   UNL     1      -5.215   0.940   7.246  0.00  0.00    -0.267 OA
ATOM     22  C   UNL     1      -3.191   2.090   7.534  0.00  0.00    +0.065 A 
ATOM     23  C   UNL     1      -3.501   2.597   8.795  0.00  0.00    +0.015 A 
ATOM     24  C   UNL     1      -2.586   3.393   9.450  0.00  0.00    +0.001 A 
ATOM     25  C   UNL     1      -1.362   3.691   8.865  0.00  0.00    +0.002 A 
ATOM     26  C   UNL     1      -1.037   3.199   7.621  0.00  0.00    +0.028 A 
ATOM     27  C   UNL     1      -1.947   2.391   6.937  0.00  0.00    +0.078 A 
ATOM     28  N   UNL     1      -1.668   1.886   5.709  0.00  0.00    -0.233 NA
ENDBRANCH  12  17
TORSDOF 1
