REMARK  Name = ZINC09124228
REMARK  19 active torsions:
REMARK  status: ('A' for Active; 'I' for Inactive)
REMARK    1  A    between atoms: C_1  and  C_2
REMARK    2  A    between atoms: C_2  and  O_3
REMARK    3  A    between atoms: O_3  and  C_4
REMARK    4  A    between atoms: C_6  and  C_16
REMARK    5  A    between atoms: C_9  and  O_10
REMARK    6  A    between atoms: O_10  and  C_11
REMARK    7  A    between atoms: C_11  and  C_12
REMARK    8  A    between atoms: C_12  and  C_13
REMARK    9  A    between atoms: C_13  and  C_14
REMARK   10  A    between atoms: C_13  and  C_15
REMARK   11  A    between atoms: C_18  and  C_28
REMARK   12  A    between atoms: C_19  and  O_27
REMARK   13  A    between atoms: N_22  and  C_23
REMARK   14  A    between atoms: C_23  and  C_24
REMARK   15  A    between atoms: C_24  and  N_79
REMARK   16  A    between atoms: C_25  and  N_79
REMARK   17  A    between atoms: C_26  and  N_79
REMARK   18  A    between atoms: C_28  and  C_30
REMARK   19  A    between atoms: C_37  and  C_40
REMARK                            x       y       z     vdW  Elec       q    Type
REMARK                         _______ _______ _______ _____ _____    ______ ____
ROOT
ATOM      1  C   UNL     1       1.137  -1.266   0.016  0.00  0.00    +0.144 C 
ATOM      2  C   UNL     1       2.443  -0.508   0.065  0.00  0.00    +0.071 C 
ATOM      3  C   UNL     1       3.430  -1.433   0.107  0.00  0.00    +0.188 C 
ATOM      4  C   UNL     1       2.830  -2.784   0.082  0.00  0.00    +0.282 C 
ATOM      5  O   UNL     1       3.456  -3.825   0.109  0.00  0.00    -0.267 OA
ATOM      6  N   UNL     1       1.489  -2.690   0.025  0.00  0.00    -0.285 N 
ENDROOT
BRANCH   1   9
ATOM      7  C   UNL     1      -1.636   0.119   2.176  0.00  0.00    +0.162 A 
ATOM      8  C   UNL     1      -0.863  -0.192   1.069  0.00  0.00    +0.055 A 
ATOM      9  C   UNL     1       0.297  -0.929   1.221  0.00  0.00    -0.019 A 
ATOM     10  C   UNL     1       0.685  -1.362   2.475  0.00  0.00    +0.009 A 
ATOM     11  C   UNL     1      -0.079  -1.051   3.584  0.00  0.00    +0.050 A 
ATOM     12  C   UNL     1      -1.242  -0.313   3.439  0.00  0.00    +0.162 A 
BRANCH   7  13
ATOM     13  O   UNL     1      -2.777   0.843   2.029  0.00  0.00    -0.489 OA
BRANCH  13  15
ATOM     14  C   UNL     1      -4.308   2.235   0.778  0.00  0.00    +0.048 C 
ATOM     15  C   UNL     1      -3.058   1.354   0.724  0.00  0.00    +0.226 C 
ENDBRANCH  13  15
ENDBRANCH   7  13
BRANCH  12  16
ATOM     16  O   UNL     1      -1.998  -0.011   4.529  0.00  0.00    -0.488 OA
BRANCH  16  17
ATOM     17  C   UNL     1      -1.533  -0.487   5.793  0.00  0.00    +0.229 C 
BRANCH  17  18
ATOM     18  C   UNL     1      -2.506  -0.052   6.891  0.00  0.00    +0.044 C 
BRANCH  18  19
ATOM     19  C   UNL     1      -2.007  -0.562   8.245  0.00  0.00    -0.014 C 
ATOM     20  C   UNL     1      -2.911  -0.023   9.357  0.00  0.00    +0.007 C 
ATOM     21  C   UNL     1      -2.039  -2.091   8.258  0.00  0.00    +0.007 C 
ENDBRANCH  18  19
ENDBRANCH  17  18
ENDBRANCH  16  17
ENDBRANCH  12  16
ENDBRANCH   1   9
BRANCH   3  22
ATOM     22  O   UNL     1       4.755  -1.164   0.163  0.00  0.00    -0.502 OA
ATOM     23  H   UNL     1       5.268  -2.022   0.185  0.00  0.00    +0.292 HD
ENDBRANCH   3  22
BRANCH   2  24
ATOM     24  C   UNL     1       2.609   0.949   0.071  0.00  0.00    +0.195 C 
ATOM     25  O   UNL     1       3.122   1.498   1.028  0.00  0.00    -0.287 OA
BRANCH  24  26
ATOM     26  C   UNL     1       2.155   1.749  -1.083  0.00  0.00    +0.023 A 
ATOM     27  C   UNL     1       1.637   1.117  -2.218  0.00  0.00    +0.015 A 
ATOM     28  C   UNL     1       1.223   1.863  -3.296  0.00  0.00    +0.046 A 
ATOM     29  C   UNL     1       1.306   3.257  -3.265  0.00  0.00    +0.124 A 
ATOM     30  C   UNL     1       1.817   3.880  -2.130  0.00  0.00    -0.002 A 
ATOM     31  C   UNL     1       2.240   3.145  -1.051  0.00  0.00    +0.019 A 
ATOM     32  C   UNL     1       1.772   5.374  -2.387  0.00  0.00    +0.083 C 
ATOM     33  C   UNL     1       0.817   5.460  -3.601  0.00  0.00    +0.175 C 
ATOM     34  O   UNL     1       0.963   4.168  -4.214  0.00  0.00    -0.488 OA
ATOM     35  C   UNL     1      -0.626   5.682  -3.141  0.00  0.00    +0.052 C 
ENDBRANCH  24  26
ENDBRANCH   2  24
BRANCH   6  36
ATOM     36  C   UNL     1       0.548  -3.812  -0.015  0.00  0.00    +0.090 C 
BRANCH  36  37
ATOM     37  C   UNL     1       0.159  -4.201   1.413  0.00  0.00    -0.060 C 
BRANCH  37  40
ATOM     38  C   UNL     1      -0.142  -6.535   0.845  0.00  0.00    -0.097 C 
ATOM     39  C   UNL     1      -1.363  -5.575   2.701  0.00  0.00    -0.097 C 
ATOM     40  N   UNL     1      -0.807  -5.319   1.356  0.00  0.00    +0.377 N 
ATOM     41  H   UNL     1      -1.573  -5.066   0.721  0.00  0.00    -0.083 HD
ENDBRANCH  37  40
ENDBRANCH  36  37
ENDBRANCH   6  36
TORSDOF 13
