REMARK  Name = ZINC13141042
REMARK  9 active torsions:
REMARK  status: ('A' for Active; 'I' for Inactive)
REMARK    1  A    between atoms: C_1  and  O_2
REMARK    2  A    between atoms: O_2  and  C_3
REMARK    3  A    between atoms: C_3  and  C_4
REMARK    4  A    between atoms: C_4  and  N_5
REMARK    5  A    between atoms: C_14  and  S_15
REMARK    6  A    between atoms: S_15  and  C_16
REMARK    7  A    between atoms: C_16  and  C_17
REMARK    8  A    between atoms: N_19  and  C_20
REMARK    9  A    between atoms: C_21  and  C_25
REMARK                            x       y       z     vdW  Elec       q    Type
REMARK                         _______ _______ _______ _____ _____    ______ ____
ROOT
ATOM      1  N   UNL     1      -5.332   1.345   0.029  0.00  0.00    -0.285 N 
ATOM      2  C   UNL     1      -6.407   2.155   0.044  0.00  0.00    +0.263 A 
ATOM      3  O   UNL     1      -7.533   1.688   0.046  0.00  0.00    -0.267 OA
ATOM      4  C   UNL     1      -6.210   3.572   0.050  0.00  0.00    +0.076 A 
ATOM      5  C   UNL     1      -7.223   4.629   0.061  0.00  0.00    -0.023 A 
ATOM      6  C   UNL     1      -6.780   5.902   0.065  0.00  0.00    -0.004 A 
ATOM      7  S   UNL     1      -5.012   5.774   0.056  0.00  0.00    -0.073 S 
ATOM      8  C   UNL     1      -4.873   4.005   0.047  0.00  0.00    +0.117 A 
ATOM      9  N   UNL     1      -3.855   3.152   0.037  0.00  0.00    -0.216 NA
ATOM     10  C   UNL     1      -4.064   1.851   0.031  0.00  0.00    +0.173 A 
ATOM     11  C   UNL     1      -7.607   7.151   0.075  0.00  0.00    +0.043 C 
ATOM     12  C   UNL     1      -9.051   6.780  -0.293  0.00  0.00    +0.005 C 
ATOM     13  C   UNL     1      -9.474   5.566   0.540  0.00  0.00    +0.005 C 
ATOM     14  C   UNL     1      -8.719   4.323   0.068  0.00  0.00    +0.037 C 
ENDROOT
BRANCH   1  15
ATOM     15  C   UNL     1      -5.526  -0.107   0.016  0.00  0.00    +0.155 C 
BRANCH  15  16
ATOM     16  C   UNL     1      -5.591  -0.625   1.454  0.00  0.00    +0.181 C 
BRANCH  16  18
ATOM     17  C   UNL     1      -6.907  -0.519   3.455  0.00  0.00    +0.194 C 
ATOM     18  O   UNL     1      -6.751  -0.094   2.100  0.00  0.00    -0.381 OA
ENDBRANCH  16  18
ENDBRANCH  15  16
ENDBRANCH   1  15
BRANCH  10  19
ATOM     19  S   UNL     1      -2.689   0.750   0.019  0.00  0.00    -0.078 S 
BRANCH  19  20
ATOM     20  C   UNL     1      -1.330   1.944   0.019  0.00  0.00    +0.173 C 
BRANCH  20  21
ATOM     21  C   UNL     1      -0.014   1.209   0.009  0.00  0.00    +0.228 C 
ATOM     22  O   UNL     1       0.002  -0.004   0.002  0.00  0.00    -0.275 OA
ATOM     23  N   UNL     1       1.143   1.898   0.001  0.00  0.00    -0.279 N 
ATOM     24  H   UNL     1       1.130   2.868   0.007  0.00  0.00    +0.155 HD
BRANCH  23  25
ATOM     25  C   UNL     1       2.354   1.221  -0.014  0.00  0.00    +0.084 A 
ATOM     26  C   UNL     1       3.639   1.750  -0.029  0.00  0.00    +0.065 A 
ATOM     27  C   UNL     1       4.730   0.805  -0.039  0.00  0.00    +0.022 A 
ATOM     28  C   UNL     1       4.410  -0.501  -0.044  0.00  0.00    +0.048 A 
ATOM     29  S   UNL     1       2.630  -0.488  -0.026  0.00  0.00    -0.081 S 
BRANCH  26  30
ATOM     30  C   UNL     1       3.875   3.198  -0.031  0.00  0.00    +0.244 C 
ATOM     31  O   UNL     1       2.932   3.968  -0.019  0.00  0.00    -0.270 OA
ATOM     32  N   UNL     1       5.135   3.675  -0.045  0.00  0.00    -0.325 N 
ATOM     33  H   UNL     1       5.886   3.061  -0.055  0.00  0.00    +0.145 HD
ATOM     34  H   UNL     1       5.291   4.632  -0.047  0.00  0.00    +0.145 HD
ENDBRANCH  26  30
ENDBRANCH  23  25
ENDBRANCH  20  21
ENDBRANCH  19  20
ENDBRANCH  10  19
TORSDOF 8
