REMARK  Name = ZINC49451077
REMARK  3 active torsions:
REMARK  status: ('A' for Active; 'I' for Inactive)
REMARK    1  A    between atoms: C_1  and  C_2
REMARK    2  A    between atoms: C_12  and  C_14
REMARK    3  A    between atoms: C_14  and  C_15
REMARK                            x       y       z     vdW  Elec       q    Type
REMARK                         _______ _______ _______ _____ _____    ______ ____
ROOT
ATOM      1  C   UNL     1       2.540  -0.815   2.772  0.00  0.00    +0.152 C 
ENDROOT
BRANCH   1   2
ATOM      2  C   UNL     1       3.982  -0.398   2.904  0.00  0.00    +0.059 A 
ATOM      3  C   UNL     1       4.438   0.230   4.015  0.00  0.00    +0.072 A 
ATOM      4  S   UNL     1       6.157   0.456   3.588  0.00  0.00    -0.060 S 
ATOM      5  C   UNL     1       6.115  -0.262   2.066  0.00  0.00    +0.164 A 
ATOM      6  N   UNL     1       4.859  -0.634   1.945  0.00  0.00    -0.229 NA
ATOM      7  N   UNL     1       7.155  -0.425   1.162  0.00  0.00    -0.279 N 
ATOM      8  C   UNL     1       8.402   0.132   1.427  0.00  0.00    +0.124 A 
ATOM      9  C   UNL     1       9.407   0.061   0.467  0.00  0.00    +0.044 A 
ATOM     10  C   UNL     1      10.641   0.619   0.743  0.00  0.00    +0.005 A 
ATOM     11  C   UNL     1      10.831   1.233   1.974  0.00  0.00    +0.020 A 
ATOM     12  C   UNL     1       9.789   1.267   2.880  0.00  0.00    +0.113 A 
ATOM     13  N   UNL     1       8.620   0.730   2.587  0.00  0.00    -0.240 NA
ATOM     14  H   UNL     1       7.012  -0.928   0.345  0.00  0.00    +0.155 HD
ENDBRANCH   1   2
BRANCH   1  25
ATOM     15  C   UNL     1      -0.005   1.562  -0.015  0.00  0.00    +0.029 C 
ATOM     16  C   UNL     1       0.008   0.032  -0.022  0.00  0.00    +0.083 C 
ATOM     17  C   UNL     1      -1.427  -0.514   0.054  0.00  0.00    +0.059 C 
ATOM     18  C   UNL     1      -1.462  -1.316   1.336  0.00  0.00    -0.024 A 
ATOM     19  C   UNL     1      -2.483  -2.035   1.927  0.00  0.00    +0.005 A 
ATOM     20  C   UNL     1      -2.266  -2.696   3.122  0.00  0.00    +0.000 A 
ATOM     21  C   UNL     1      -1.023  -2.635   3.725  0.00  0.00    +0.002 A 
ATOM     22  C   UNL     1      -0.001  -1.919   3.139  0.00  0.00    +0.024 A 
ATOM     23  C   UNL     1      -0.213  -1.249   1.932  0.00  0.00    +0.040 A 
ATOM     24  N   UNL     1       0.679  -0.476   1.178  0.00  0.00    -0.268 N 
ATOM     25  C   UNL     1       1.963  -0.234   1.506  0.00  0.00    +0.226 C 
ATOM     26  O   UNL     1       2.655   0.451   0.783  0.00  0.00    -0.275 OA
ENDBRANCH   1  25
TORSDOF 2
