REMARK  Name = ZINC33526160
REMARK  11 active torsions:
REMARK  status: ('A' for Active; 'I' for Inactive)
REMARK    1  A    between atoms: C_1  and  C_2
REMARK    2  A    between atoms: C_7  and  C_8
REMARK    3  A    between atoms: C_8  and  N_9
REMARK    4  A    between atoms: N_9  and  C_10
REMARK    5  A    between atoms: N_9  and  C_17
REMARK    6  A    between atoms: C_10  and  C_11
REMARK    7  A    between atoms: C_17  and  C_18
REMARK    8  A    between atoms: C_21  and  C_23
REMARK    9  A    between atoms: N_25  and  C_26
REMARK   10  A    between atoms: C_26  and  C_28
REMARK   11  A    between atoms: C_26  and  C_29
REMARK                            x       y       z     vdW  Elec       q    Type
REMARK                         _______ _______ _______ _____ _____    ______ ____
ROOT
ATOM      1  C   UNL     1       6.010   3.591   0.013  0.00  0.00    -0.002 C 
ENDROOT
BRANCH   1   2
ATOM      2  C   UNL     1       4.902   2.709  -0.501  0.00  0.00    +0.090 A 
ATOM      3  C   UNL     1       5.053   1.674  -1.357  0.00  0.00    +0.043 A 
ATOM      4  C   UNL     1       3.780   1.123  -1.569  0.00  0.00    +0.055 A 
ATOM      5  C   UNL     1       2.904   1.865  -0.829  0.00  0.00    +0.189 A 
ATOM      6  O   UNL     1       3.606   2.821  -0.186  0.00  0.00    -0.457 OA
BRANCH   5   7
ATOM      7  C   UNL     1       1.454   1.656  -0.745  0.00  0.00    +0.280 C 
ATOM      8  O   UNL     1       0.932   0.756  -1.375  0.00  0.00    -0.267 OA
ATOM      9  N   UNL     1       0.702   2.462   0.030  0.00  0.00    -0.302 N 
ATOM     10  H   UNL     1       1.174   3.276   0.600  0.00  0.00    +0.150 HD
BRANCH   9  11
ATOM     11  C   UNL     1      -0.746   2.253   0.114  0.00  0.00    +0.100 C 
ATOM     12  C   UNL     1      -1.434   2.973  -1.047  0.00  0.00    +0.033 C 
BRANCH  11  13
ATOM     13  C   UNL     1      -1.258   2.803   1.420  0.00  0.00    -0.027 A 
ATOM     14  C   UNL     1      -0.756   3.993   1.913  0.00  0.00    +0.005 A 
ATOM     15  C   UNL     1      -1.228   4.501   3.109  0.00  0.00    +0.000 A 
ATOM     16  C   UNL     1      -2.196   3.813   3.817  0.00  0.00    +0.000 A 
ATOM     17  C   UNL     1      -2.695   2.621   3.326  0.00  0.00    +0.000 A 
ATOM     18  C   UNL     1      -2.226   2.116   2.128  0.00  0.00    +0.005 A 
ENDBRANCH  11  13
ENDBRANCH   9  11
ENDBRANCH   5   7
ENDBRANCH   1   2
BRANCH   1  19
ATOM     19  N   UNL     1       6.184   4.736  -0.891  0.00  0.00    +0.390 N 
ATOM     20  H   UNL     1       6.295   4.346  -1.914  0.00  0.00    -0.080 HD
BRANCH  19  21
ATOM     21  C   UNL     1       5.002   5.609  -0.869  0.00  0.00    -0.042 C 
BRANCH  21  28
ATOM     22  C   UNL     1       4.533   4.835  -3.612  0.00  0.00    +0.044 C 
ATOM     23  C   UNL     1       4.888   6.262  -3.282  0.00  0.00    -0.049 A 
ATOM     24  C   UNL     1       4.988   7.201  -4.292  0.00  0.00    +0.003 A 
ATOM     25  C   UNL     1       5.313   8.510  -3.989  0.00  0.00    +0.000 A 
ATOM     26  C   UNL     1       5.537   8.880  -2.676  0.00  0.00    +0.000 A 
ATOM     27  C   UNL     1       5.432   7.942  -1.666  0.00  0.00    +0.002 A 
ATOM     28  C   UNL     1       5.112   6.632  -1.969  0.00  0.00    -0.061 A 
ENDBRANCH  21  28
ENDBRANCH  19  21
BRANCH  19  29
ATOM     29  C   UNL     1       7.401   5.489  -0.560  0.00  0.00    -0.042 C 
BRANCH  29  30
ATOM     30  C   UNL     1       8.608   4.739  -1.062  0.00  0.00    -0.064 A 
ATOM     31  C   UNL     1       9.303   3.900  -0.211  0.00  0.00    +0.002 A 
ATOM     32  C   UNL     1      10.407   3.208  -0.672  0.00  0.00    +0.000 A 
ATOM     33  C   UNL     1      10.822   3.362  -1.982  0.00  0.00    +0.000 A 
ATOM     34  C   UNL     1      10.130   4.205  -2.831  0.00  0.00    +0.000 A 
ATOM     35  C   UNL     1       9.023   4.893  -2.371  0.00  0.00    +0.002 A 
ENDBRANCH  29  30
ENDBRANCH  19  29
ENDBRANCH   1  19
TORSDOF 9
