REMARK  Name = ZINC10402424
REMARK  9 active torsions:
REMARK  status: ('A' for Active; 'I' for Inactive)
REMARK    1  A    between atoms: C_1  and  C_2
REMARK    2  A    between atoms: C_5  and  C_34
REMARK    3  A    between atoms: C_6  and  N_8
REMARK    4  A    between atoms: C_9  and  C_11
REMARK    5  A    between atoms: C_11  and  O_12
REMARK    6  A    between atoms: O_12  and  C_13
REMARK    7  A    between atoms: C_13  and  C_15
REMARK    8  A    between atoms: C_18  and  S_21
REMARK    9  A    between atoms: S_21  and  N_24
REMARK                            x       y       z     vdW  Elec       q    Type
REMARK                         _______ _______ _______ _____ _____    ______ ____
ROOT
ATOM      1  C   UNL     1      -1.046   2.576  -0.575  0.00  0.00    +0.059 A 
ATOM      2  C   UNL     1      -1.305   3.942  -0.699  0.00  0.00    +0.017 A 
ATOM      3  C   UNL     1      -2.607   4.394  -0.739  0.00  0.00    +0.029 A 
ATOM      4  C   UNL     1      -3.657   3.497  -0.643  0.00  0.00    +0.109 A 
ATOM      5  C   UNL     1      -3.408   2.142  -0.514  0.00  0.00    +0.029 A 
ATOM      6  C   UNL     1      -2.110   1.677  -0.479  0.00  0.00    +0.017 A 
ENDROOT
BRANCH   4   7
ATOM      7  S   UNL     1      -5.318   4.083  -0.687  0.00  0.00    +0.075 S 
ATOM      8  O   UNL     1      -5.290   5.334  -1.362  0.00  0.00    -0.150 OA
ATOM      9  O   UNL     1      -6.120   2.997  -1.129  0.00  0.00    -0.150 OA
BRANCH   7  10
ATOM     10  N   UNL     1      -5.768   4.399   0.875  0.00  0.00    -0.203 N 
ATOM     11  C   UNL     1      -6.493   3.391   1.661  0.00  0.00    +0.132 C 
ATOM     12  C   UNL     1      -7.638   4.095   2.391  0.00  0.00    +0.025 C 
ATOM     13  C   UNL     1      -7.053   5.120   3.363  0.00  0.00    +0.038 C 
ATOM     14  C   UNL     1      -6.067   6.013   2.657  0.00  0.00    -0.025 A 
ATOM     15  C   UNL     1      -5.468   5.631   1.466  0.00  0.00    +0.054 A 
ATOM     16  C   UNL     1      -4.558   6.477   0.843  0.00  0.00    +0.025 A 
ATOM     17  C   UNL     1      -4.251   7.699   1.409  0.00  0.00    +0.002 A 
ATOM     18  C   UNL     1      -4.851   8.080   2.595  0.00  0.00    +0.000 A 
ATOM     19  C   UNL     1      -5.755   7.240   3.216  0.00  0.00    +0.005 A 
ENDBRANCH   7  10
ENDBRANCH   4   7
BRANCH   1  20
ATOM     20  C   UNL     1       0.346   2.084  -0.538  0.00  0.00    +0.340 C 
ATOM     21  O   UNL     1       0.568   0.895  -0.425  0.00  0.00    -0.245 OA
BRANCH  20  22
ATOM     22  O   UNL     1       1.370   2.954  -0.637  0.00  0.00    -0.452 OA
BRANCH  22  23
ATOM     23  C   UNL     1       2.712   2.400  -0.600  0.00  0.00    +0.328 C 
BRANCH  23  25
ATOM     24  N   UNL     1       5.038   3.234  -0.711  0.00  0.00    -0.282 N 
ATOM     25  C   UNL     1       3.719   3.514  -0.721  0.00  0.00    +0.255 C 
ATOM     26  O   UNL     1       3.344   4.662  -0.829  0.00  0.00    -0.272 OA
ATOM     27  H   UNL     1       5.340   2.327  -0.545  0.00  0.00    +0.155 HD
BRANCH  24  33
ATOM     28  C   UNL     1       6.078   7.703  -2.476  0.00  0.00    +0.044 C 
ATOM     29  C   UNL     1       6.502   6.429  -1.793  0.00  0.00    -0.049 A 
ATOM     30  C   UNL     1       7.815   6.264  -1.392  0.00  0.00    +0.004 A 
ATOM     31  C   UNL     1       8.208   5.096  -0.766  0.00  0.00    +0.005 A 
ATOM     32  C   UNL     1       7.290   4.089  -0.539  0.00  0.00    -0.029 A 
ATOM     33  C   UNL     1       5.970   4.252  -0.940  0.00  0.00    +0.037 A 
ATOM     34  C   UNL     1       5.580   5.424  -1.573  0.00  0.00    +0.027 A 
ATOM     35  C   UNL     1       7.719   2.816   0.144  0.00  0.00    +0.045 C 
ENDBRANCH  24  33
ENDBRANCH  23  25
ENDBRANCH  22  23
ENDBRANCH  20  22
ENDBRANCH   1  20
TORSDOF 7
