REMARK  Name = ZINC39747283
REMARK  7 active torsions:
REMARK  status: ('A' for Active; 'I' for Inactive)
REMARK    1  A    between atoms: C_1  and  C_2
REMARK    2  A    between atoms: C_6  and  O_8
REMARK    3  A    between atoms: O_8  and  C_9
REMARK    4  A    between atoms: C_10  and  C_21
REMARK    5  A    between atoms: C_17  and  C_20
REMARK    6  A    between atoms: C_22  and  C_23
REMARK    7  A    between atoms: C_22  and  C_25
REMARK                            x       y       z     vdW  Elec       q    Type
REMARK                         _______ _______ _______ _____ _____    ______ ____
ROOT
ATOM      1  C   UNL     1      -0.302  -4.108   2.308  0.00  0.00    +0.235 A 
ATOM      2  C   UNL     1      -0.146  -4.866   3.488  0.00  0.00    +0.103 A 
ATOM      3  C   UNL     1       0.010  -6.267   3.372  0.00  0.00    +0.269 A 
ATOM      4  O   UNL     1       0.147  -6.960   4.365  0.00  0.00    -0.266 OA
ATOM      5  N   UNL     1       0.006  -6.824   2.142  0.00  0.00    -0.267 N 
ATOM      6  C   UNL     1       0.156  -8.173   2.019  0.00  0.00    +0.096 A 
ATOM      7  C   UNL     1       0.156  -8.761   0.801  0.00  0.00    +0.019 A 
ATOM      8  C   UNL     1       0.000  -7.985  -0.355  0.00  0.00    +0.008 A 
ATOM      9  C   UNL     1      -0.151  -6.634  -0.242  0.00  0.00    -0.007 A 
ATOM     10  C   UNL     1      -0.149  -6.040   1.032  0.00  0.00    +0.147 A 
ATOM     11  N   UNL     1      -0.302  -4.719   1.134  0.00  0.00    -0.194 NA
ATOM     12  C   UNL     1      -0.320  -5.785  -1.475  0.00  0.00    +0.047 C 
ENDROOT
BRANCH   2  13
ATOM     13  C   UNL     1      -0.147  -4.238   4.760  0.00  0.00    +0.037 C 
ATOM     14  C   UNL     1       0.740  -3.247   5.028  0.00  0.00    +0.072 C 
BRANCH  14  15
ATOM     15  C   UNL     1       0.655  -2.491   6.329  0.00  0.00    +0.216 C 
ATOM     16  N   UNL     1       0.510  -1.054   6.067  0.00  0.00    -0.359 N 
ATOM     17  C   UNL     1       1.535  -0.455   6.601  0.00  0.00    +0.060 A 
ATOM     18  C   UNL     1       1.944   0.955   6.671  0.00  0.00    +0.027 A 
ATOM     19  C   UNL     1       3.086   1.286   7.306  0.00  0.00    +0.002 A 
ATOM     20  C   UNL     1       3.919   0.331   7.915  0.00  0.00    +0.002 A 
ATOM     21  C   UNL     1       3.638  -0.988   7.909  0.00  0.00    +0.027 A 
ATOM     22  C   UNL     1       2.417  -1.466   7.246  0.00  0.00    +0.060 A 
ATOM     23  N   UNL     1       1.903  -2.651   7.086  0.00  0.00    -0.359 N 
ATOM     24  H   UNL     1      -0.216  -0.628   5.585  0.00  0.00    +0.162 HD
ATOM     25  H   UNL     1       2.275  -3.486   7.409  0.00  0.00    +0.162 HD
ENDBRANCH  14  15
BRANCH  14  26
ATOM     26  C   UNL     1       1.757  -2.920   4.074  0.00  0.00    +0.099 C 
ATOM     27  N   UNL     1       2.564  -2.661   3.318  0.00  0.00    -0.191 NA
ENDBRANCH  14  26
ENDBRANCH   2  13
BRANCH   1  28
ATOM     28  O   UNL     1      -0.455  -2.766   2.376  0.00  0.00    -0.437 OA
BRANCH  28  34
ATOM     29  C   UNL     1      -3.565  -1.698  -1.231  0.00  0.00    +0.044 C 
ATOM     30  C   UNL     1      -2.223  -1.550  -0.562  0.00  0.00    -0.047 A 
ATOM     31  C   UNL     1      -1.260  -0.729  -1.120  0.00  0.00    +0.003 A 
ATOM     32  C   UNL     1      -0.028  -0.590  -0.509  0.00  0.00    +0.004 A 
ATOM     33  C   UNL     1       0.244  -1.271   0.662  0.00  0.00    +0.046 A 
ATOM     34  C   UNL     1      -0.720  -2.095   1.224  0.00  0.00    +0.131 A 
ATOM     35  C   UNL     1      -1.958  -2.228   0.611  0.00  0.00    +0.049 A 
ENDBRANCH  28  34
ENDBRANCH   1  28
TORSDOF 5
