REMARK  Name = ZINC19801372
REMARK  3 active torsions:
REMARK  status: ('A' for Active; 'I' for Inactive)
REMARK    1  A    between atoms: C_6  and  S_7
REMARK    2  A    between atoms: C_11  and  N_19
REMARK    3  A    between atoms: C_12  and  N_16
REMARK                            x       y       z     vdW  Elec       q    Type
REMARK                         _______ _______ _______ _____ _____    ______ ____
ROOT
ATOM      1  C   UNL     1       0.092  -2.776  -0.014  0.00  0.00    +0.030 A 
ATOM      2  C   UNL     1       1.266  -2.086  -0.021  0.00  0.00    +0.014 A 
ATOM      3  C   UNL     1       1.246  -0.682  -0.013  0.00  0.00    +0.031 A 
ATOM      4  C   UNL     1       0.002  -0.004   0.002  0.00  0.00    +0.020 A 
ATOM      5  C   UNL     1      -1.189  -0.750   0.009  0.00  0.00    +0.040 A 
ATOM      6  C   UNL     1      -1.132  -2.110   0.001  0.00  0.00    +0.120 A 
ATOM      7  C   UNL     1      -0.017   1.401   0.010  0.00  0.00    +0.164 A 
ATOM      8  C   UNL     1       1.155   2.093   0.002  0.00  0.00    +0.160 A 
ATOM      9  C   UNL     1       2.380   1.431  -0.012  0.00  0.00    +0.086 A 
ATOM     10  C   UNL     1       2.441   0.067  -0.020  0.00  0.00    +0.189 A 
ATOM     11  O   UNL     1       3.643  -0.565  -0.035  0.00  0.00    -0.287 OA
ENDROOT
BRANCH   6  12
ATOM     12  S   UNL     1      -2.627  -3.042   0.009  0.00  0.00    +0.140 S 
ATOM     13  O   UNL     1      -2.309  -4.316   0.550  0.00  0.00    -0.140 OA
ATOM     14  O   UNL     1      -3.625  -2.202   0.574  0.00  0.00    -0.140 OA
ATOM     15  O   UNL     1      -3.023  -3.271  -1.442  0.00  0.00    -0.043 OA
ENDBRANCH   6  12
BRANCH   8  16
ATOM     16  N   UNL     1       1.127   3.573   0.011  0.00  0.00    +0.059 N 
ATOM     17  O   UNL     1       2.171   4.202   0.004  0.00  0.00    -0.126 OA
ATOM     18  O   UNL     1       0.061   4.162   0.024  0.00  0.00    -0.126 OA
ENDBRANCH   8  16
BRANCH   7  19
ATOM     19  N   UNL     1      -1.308   2.127   0.020  0.00  0.00    +0.059 N 
ATOM     20  O   UNL     1      -1.833   2.419   1.079  0.00  0.00    -0.126 OA
ATOM     21  O   UNL     1      -1.843   2.431  -1.031  0.00  0.00    -0.126 OA
ENDBRANCH   7  19
TORSDOF 3
