REMARK  Name = ZINC64062232
REMARK  5 active torsions:
REMARK  status: ('A' for Active; 'I' for Inactive)
REMARK    1  A    between atoms: C_1  and  C_2
REMARK    2  A    between atoms: C_5  and  N_9
REMARK    3  A    between atoms: C_10  and  O_34
REMARK    4  A    between atoms: C_13  and  O_33
REMARK    5  A    between atoms: C_14  and  C_18
REMARK                            x       y       z     vdW  Elec       q    Type
REMARK                         _______ _______ _______ _____ _____    ______ ____
ROOT
ATOM      1  N   UNL     1       0.059  -4.170  -0.022  0.00  0.00    -0.225 N 
ATOM      2  C   UNL     1      -0.043  -4.863  -1.298  0.00  0.00    +0.338 C 
ATOM      3  N   UNL     1       0.453  -6.227  -1.222  0.00  0.00    -0.204 NA
ATOM      4  C   UNL     1       0.575  -6.887  -0.137  0.00  0.00    +0.200 C 
ATOM      5  C   UNL     1       0.219  -6.320   1.206  0.00  0.00    +0.179 C 
ATOM      6  C   UNL     1       0.177  -4.819   1.144  0.00  0.00    +0.237 C 
ATOM      7  O   UNL     1       0.246  -4.181   2.173  0.00  0.00    -0.274 OA
ENDROOT
BRANCH   5   8
ATOM      8  C   UNL     1      -1.152  -6.848   1.632  0.00  0.00    +0.101 C 
ATOM      9  C   UNL     1      -1.083  -8.365   1.826  0.00  0.00    +0.124 C 
ATOM     10  C   UNL     1      -2.513  -8.829   2.078  0.00  0.00    -0.036 C 
ATOM     11  C   UNL     1      -2.491  -9.511   3.214  0.00  0.00    -0.001 A 
ATOM     12  C   UNL     1      -3.535 -10.269   3.924  0.00  0.00    +0.010 A 
ATOM     13  C   UNL     1      -3.163 -10.847   5.097  0.00  0.00    +0.001 A 
ATOM     14  C   UNL     1      -1.874 -10.749   5.628  0.00  0.00    +0.002 A 
ATOM     15  C   UNL     1      -0.851 -10.078   5.040  0.00  0.00    +0.026 A 
ATOM     16  C   UNL     1      -1.117  -9.433   3.798  0.00  0.00    +0.043 A 
ATOM     17  N   UNL     1      -0.313  -8.746   3.010  0.00  0.00    -0.376 N 
ATOM     18  C   UNL     1      -3.648  -8.421   1.171  0.00  0.00    +0.048 C 
ATOM     19  C   UNL     1      -3.514  -6.900   0.971  0.00  0.00    +0.085 C 
ATOM     20  N   UNL     1      -2.142  -6.561   0.582  0.00  0.00    -0.310 NA
ATOM     21  H   UNL     1      -2.079  -5.601   0.278  0.00  0.00    +0.122 HD
ATOM     22  H   UNL     1       0.617  -8.525   3.178  0.00  0.00    +0.160 HD
ENDBRANCH   5   8
BRANCH   1  27
ATOM     23  C   UNL     1      -0.015   1.503   0.012  0.00  0.00    +0.045 C 
ATOM     24  C   UNL     1       0.005  -0.004   0.003  0.00  0.00    -0.032 A 
ATOM     25  C   UNL     1       1.212  -0.679  -0.001  0.00  0.00    +0.006 A 
ATOM     26  C   UNL     1       1.233  -2.059  -0.009  0.00  0.00    +0.024 A 
ATOM     27  C   UNL     1       0.041  -2.772  -0.013  0.00  0.00    +0.042 A 
ATOM     28  C   UNL     1      -1.170  -2.092  -0.010  0.00  0.00    +0.044 A 
ATOM     29  C   UNL     1      -1.185  -0.710   0.003  0.00  0.00    +0.046 A 
ATOM     30 CL   UNL     1      -2.699   0.141   0.014  0.00  0.00    -0.083 Cl
ENDBRANCH   1  27
BRANCH   4  31
ATOM     31  O   UNL     1       1.044  -8.150  -0.199  0.00  0.00    -0.495 OA
ATOM     32  H   UNL     1       1.252  -8.449  -1.095  0.00  0.00    +0.293 HD
ENDBRANCH   4  31
BRANCH   2  33
ATOM     33  O   UNL     1       0.716  -4.149  -2.276  0.00  0.00    -0.356 OA
ATOM     34  H   UNL     1       0.699  -4.548  -3.157  0.00  0.00    +0.214 HD
ENDBRANCH   2  33
TORSDOF 4
