REMARK  Name = ZINC13689435
REMARK  5 active torsions:
REMARK  status: ('A' for Active; 'I' for Inactive)
REMARK    1  A    between atoms: C_1  and  C_2
REMARK    2  A    between atoms: C_7  and  N_8
REMARK    3  A    between atoms: C_36  and  C_38
REMARK    4  A    between atoms: C_38  and  C_39
REMARK    5  A    between atoms: C_38  and  C_40
REMARK                            x       y       z     vdW  Elec       q    Type
REMARK                         _______ _______ _______ _____ _____    ______ ____
ROOT
ATOM      1  N   UNL     1      -0.195  -0.046   1.830  0.00  0.00    -0.210 N 
ATOM      2  C   UNL     1      -1.136   0.197   2.749  0.00  0.00    +0.232 C 
ATOM      3  O   UNL     1      -2.327   0.027   2.595  0.00  0.00    -0.274 OA
ATOM      4  C   UNL     1      -0.484   0.715   4.011  0.00  0.00    +0.107 C 
ATOM      5  C   UNL     1       1.026   0.745   3.647  0.00  0.00    +0.121 C 
ATOM      6  C   UNL     1       1.054   0.217   2.231  0.00  0.00    +0.233 C 
ATOM      7  O   UNL     1       2.052   0.059   1.561  0.00  0.00    -0.274 OA
ATOM      8  C   UNL     1       1.399   2.233   3.668  0.00  0.00    +0.118 C 
ATOM      9  C   UNL     1       2.061   2.621   4.957  0.00  0.00    +0.005 A 
ATOM     10  C   UNL     1       1.666   2.571   6.277  0.00  0.00    +0.008 A 
ATOM     11  C   UNL     1       2.519   3.012   7.272  0.00  0.00    +0.000 A 
ATOM     12  C   UNL     1       3.769   3.502   6.941  0.00  0.00    +0.002 A 
ATOM     13  C   UNL     1       4.169   3.554   5.621  0.00  0.00    +0.026 A 
ATOM     14  C   UNL     1       3.315   3.111   4.614  0.00  0.00    +0.057 A 
ATOM     15  N   UNL     1       3.499   3.066   3.223  0.00  0.00    -0.262 N 
ATOM     16  C   UNL     1       2.404   2.556   2.591  0.00  0.00    +0.143 A 
ATOM     17  N   UNL     1       2.331   2.413   1.298  0.00  0.00    -0.231 NA
ATOM     18  C   UNL     1       3.350   2.758   0.476  0.00  0.00    +0.078 A 
ATOM     19  C   UNL     1       3.266   2.596  -0.908  0.00  0.00    +0.028 A 
ATOM     20  C   UNL     1       4.330   2.960  -1.703  0.00  0.00    +0.002 A 
ATOM     21  C   UNL     1       5.487   3.487  -1.145  0.00  0.00    +0.001 A 
ATOM     22  C   UNL     1       5.594   3.657   0.218  0.00  0.00    +0.015 A 
ATOM     23  C   UNL     1       4.529   3.295   1.041  0.00  0.00    +0.065 A 
ATOM     24  C   UNL     1       4.583   3.451   2.499  0.00  0.00    +0.266 A 
ATOM     25  O   UNL     1       5.569   3.912   3.044  0.00  0.00    -0.267 OA
ATOM     26  N   UNL     1       0.138   2.969   3.460  0.00  0.00    -0.296 NA
ATOM     27  C   UNL     1      -0.886   2.189   4.224  0.00  0.00    +0.070 C 
ATOM     28  H   UNL     1       0.210   3.914   3.807  0.00  0.00    +0.123 HD
ENDROOT
BRANCH   1  35
ATOM     29  C   UNL     1      -0.901   1.814  -0.205  0.00  0.00    +0.045 C 
ATOM     30  C   UNL     1      -0.842   0.331  -0.468  0.00  0.00    -0.029 A 
ATOM     31  C   UNL     1      -1.129  -0.159  -1.727  0.00  0.00    +0.005 A 
ATOM     32  C   UNL     1      -1.074  -1.519  -1.970  0.00  0.00    +0.000 A 
ATOM     33  C   UNL     1      -0.732  -2.392  -0.953  0.00  0.00    +0.002 A 
ATOM     34  C   UNL     1      -0.444  -1.908   0.307  0.00  0.00    +0.024 A 
ATOM     35  C   UNL     1      -0.493  -0.542   0.552  0.00  0.00    +0.047 A 
ENDBRANCH   1  35
BRANCH  27  36
ATOM     36  C   UNL     1      -2.298   2.439   3.690  0.00  0.00    +0.001 C 
ATOM     37  C   UNL     1      -3.306   1.645   4.522  0.00  0.00    +0.009 C 
ATOM     38  C   UNL     1      -2.622   3.932   3.784  0.00  0.00    +0.009 C 
ENDBRANCH  27  36
TORSDOF 2
