REMARK  Name = ZINC02654082
REMARK  9 active torsions:
REMARK  status: ('A' for Active; 'I' for Inactive)
REMARK    1  A    between atoms: C_1  and  C_2
REMARK    2  A    between atoms: C_4  and  N_11
REMARK    3  A    between atoms: C_5  and  O_9
REMARK    4  A    between atoms: O_9  and  C_10
REMARK    5  A    between atoms: C_12  and  C_14
REMARK    6  A    between atoms: C_14  and  C_15
REMARK    7  A    between atoms: N_21  and  N_22
REMARK    8  A    between atoms: N_22  and  C_23
REMARK    9  A    between atoms: C_23  and  C_25
REMARK                            x       y       z     vdW  Elec       q    Type
REMARK                         _______ _______ _______ _____ _____    ______ ____
ROOT
ATOM      1  C   UNL     1      -0.320  -1.850  -6.045  0.00  0.00    +0.149 C 
ATOM      2  C   UNL     1      -0.464  -2.569  -7.376  0.00  0.00    +0.233 C 
ATOM      3  O   UNL     1      -1.407  -3.293  -7.617  0.00  0.00    -0.274 OA
ATOM      4  N   UNL     1       0.499  -2.356  -8.255  0.00  0.00    -0.263 N 
ATOM      5  C   UNL     1       1.581  -1.527  -7.981  0.00  0.00    +0.178 C 
ATOM      6  N   UNL     1       2.586  -1.236  -8.753  0.00  0.00    -0.160 NA
ATOM      7  S   UNL     1       1.262  -0.952  -6.319  0.00  0.00    -0.076 S 
ATOM      8  H   UNL     1       0.451  -2.794  -9.120  0.00  0.00    +0.157 HD
ENDROOT
BRANCH   6   9
ATOM      9  N   UNL     1       3.591  -0.371  -8.300  0.00  0.00    -0.236 N 
ATOM     10  H   UNL     1       3.536   0.011  -7.410  0.00  0.00    +0.174 HD
BRANCH   9  11
ATOM     11  C   UNL     1       4.666  -0.061  -9.125  0.00  0.00    +0.048 C 
ATOM     12  C   UNL     1       4.741  -0.587 -10.351  0.00  0.00    +0.035 C 
BRANCH  11  13
ATOM     13  C   UNL     1       5.728   0.854  -8.645  0.00  0.00    -0.003 A 
ATOM     14  C   UNL     1       5.654   1.400  -7.364  0.00  0.00    +0.012 A 
ATOM     15  C   UNL     1       6.646   2.251  -6.922  0.00  0.00    +0.039 A 
ATOM     16  C   UNL     1       7.713   2.564  -7.748  0.00  0.00    +0.123 A 
ATOM     17  C   UNL     1       7.790   2.024  -9.022  0.00  0.00    +0.039 A 
ATOM     18  C   UNL     1       6.807   1.167  -9.471  0.00  0.00    +0.012 A 
ATOM     19  F   UNL     1       8.681   3.398  -7.311  0.00  0.00    -0.205 F 
ENDBRANCH  11  13
ENDBRANCH   9  11
ENDBRANCH   6   9
BRANCH   1  20
ATOM     20  C   UNL     1      -0.199  -2.845  -4.889  0.00  0.00    +0.120 C 
BRANCH  20  22
ATOM     21  N   UNL     1       0.028  -2.768  -2.427  0.00  0.00    -0.283 N 
ATOM     22  C   UNL     1      -0.089  -2.093  -3.588  0.00  0.00    +0.219 C 
ATOM     23  O   UNL     1      -0.106  -0.880  -3.585  0.00  0.00    -0.275 OA
ATOM     24  H   UNL     1       0.123  -3.733  -2.434  0.00  0.00    +0.155 HD
BRANCH  21  28
ATOM     25  C   UNL     1      -1.301   1.185   0.178  0.00  0.00    +0.045 C 
ATOM     26  C   UNL     1      -0.624  -0.157   0.083  0.00  0.00    -0.030 A 
ATOM     27  C   UNL     1      -0.610  -0.839  -1.119  0.00  0.00    +0.031 A 
ATOM     28  C   UNL     1       0.014  -2.075  -1.209  0.00  0.00    +0.076 A 
ATOM     29  C   UNL     1       0.626  -2.626  -0.085  0.00  0.00    +0.143 A 
ATOM     30  C   UNL     1       0.608  -1.937   1.117  0.00  0.00    +0.067 A 
ATOM     31  C   UNL     1      -0.012  -0.702   1.198  0.00  0.00    +0.047 A 
ATOM     32 CL   UNL     1      -0.026   0.163   2.703  0.00  0.00    -0.083 Cl
BRANCH  29  33
ATOM     33  O   UNL     1       1.238  -3.837  -0.167  0.00  0.00    -0.493 OA
ATOM     34  C   UNL     1       1.844  -4.339   1.026  0.00  0.00    +0.277 C 
ENDBRANCH  29  33
ENDBRANCH  21  28
ENDBRANCH  20  22
ENDBRANCH   1  20
TORSDOF 7
