REMARK  Name = ZINC21780965
REMARK  5 active torsions:
REMARK  status: ('A' for Active; 'I' for Inactive)
REMARK    1  A    between atoms: C_1  and  C_2
REMARK    2  A    between atoms: C_2  and  C_27
REMARK    3  A    between atoms: C_11  and  N_21
REMARK    4  A    between atoms: N_15  and  C_16
REMARK    5  A    between atoms: N_29  and  C_30
REMARK                            x       y       z     vdW  Elec       q    Type
REMARK                         _______ _______ _______ _____ _____    ______ ____
ROOT
ATOM      1  C   UNL     1      -3.346   1.735  -0.848  0.00  0.00    +0.043 C 
ATOM      2  C   UNL     1      -2.363   0.835  -0.098  0.00  0.00    +0.129 C 
ATOM      3  C   UNL     1      -2.814   0.719   1.357  0.00  0.00    +0.157 C 
ATOM      4  N   UNL     1      -2.054  -0.352   2.015  0.00  0.00    -0.332 N 
ATOM      5  C   UNL     1      -1.700  -0.485   3.319  0.00  0.00    +0.052 A 
ATOM      6  C   UNL     1      -1.909   0.336   4.428  0.00  0.00    +0.029 A 
ATOM      7  C   UNL     1      -1.412  -0.103   5.642  0.00  0.00    +0.040 A 
ATOM      8  C   UNL     1      -0.733  -1.306   5.775  0.00  0.00    +0.124 A 
ATOM      9  C   UNL     1      -0.509  -2.140   4.694  0.00  0.00    +0.050 A 
ATOM     10  C   UNL     1      -1.002  -1.714   3.455  0.00  0.00    +0.027 A 
ATOM     11  C   UNL     1      -0.949  -2.316   2.131  0.00  0.00    +0.084 A 
ATOM     12  C   UNL     1      -1.587  -1.458   1.293  0.00  0.00    +0.130 A 
ATOM     13  C   UNL     1      -1.814  -1.560  -0.154  0.00  0.00    +0.266 C 
ATOM     14  O   UNL     1      -1.575  -2.583  -0.769  0.00  0.00    -0.268 OA
ATOM     15  N   UNL     1      -2.301  -0.458  -0.770  0.00  0.00    -0.278 N 
ATOM     16  F   UNL     1      -0.277  -1.672   6.993  0.00  0.00    -0.205 F 
ENDROOT
BRANCH  15  17
ATOM     17  C   UNL     1      -2.780  -0.567  -2.150  0.00  0.00    +0.078 C 
ATOM     18  C   UNL     1      -3.883  -1.641  -2.243  0.00  0.00    +0.022 C 
ATOM     19  C   UNL     1      -3.629  -2.327  -3.610  0.00  0.00    +0.002 C 
ATOM     20  C   UNL     1      -2.083  -2.368  -3.691  0.00  0.00    +0.002 C 
ATOM     21  C   UNL     1      -1.636  -1.028  -3.070  0.00  0.00    +0.022 C 
ENDBRANCH  15  17
BRANCH  11  22
ATOM     22  N   UNL     1      -0.360  -3.534   1.790  0.00  0.00    -0.321 N 
ATOM     23  C   UNL     1      -1.022  -4.639   1.334  0.00  0.00    +0.091 A 
ATOM     24  C   UNL     1      -0.115  -5.612   1.113  0.00  0.00    +0.019 A 
ATOM     25  C   UNL     1       1.152  -5.094   1.452  0.00  0.00    +0.019 A 
ATOM     26  C   UNL     1       0.973  -3.822   1.863  0.00  0.00    +0.091 A 
ENDBRANCH  11  22
BRANCH   2  27
ATOM     27  C   UNL     1      -0.996   1.469  -0.135  0.00  0.00    +0.238 C 
ATOM     28  O   UNL     1      -0.889   2.672  -0.247  0.00  0.00    -0.273 OA
ATOM     29  N   UNL     1       0.106   0.700  -0.044  0.00  0.00    -0.311 N 
ATOM     30  H   UNL     1       0.009  -0.391   0.062  0.00  0.00    +0.149 HD
BRANCH  29  31
ATOM     31  C   UNL     1       1.435   1.316  -0.086  0.00  0.00    +0.073 C 
ATOM     32  C   UNL     1       1.821   1.571  -1.558  0.00  0.00    +0.022 C 
ATOM     33  C   UNL     1       2.893   2.626  -1.595  0.00  0.00    +0.002 C 
ATOM     34  C   UNL     1       4.311   2.024  -1.626  0.00  0.00    +0.000 C 
ATOM     35  C   UNL     1       4.472   0.823  -0.674  0.00  0.00    +0.000 C 
ATOM     36  C   UNL     1       3.799   1.046   0.653  0.00  0.00    +0.002 C 
ATOM     37  C   UNL     1       2.381   0.443   0.592  0.00  0.00    +0.022 C 
ENDBRANCH  29  31
ENDBRANCH   2  27
TORSDOF 4
