REMARK  Name = ZINC08880444
REMARK  7 active torsions:
REMARK  status: ('A' for Active; 'I' for Inactive)
REMARK    1  A    between atoms: C_4  and  C_7
REMARK    2  A    between atoms: C_7  and  C_8
REMARK    3  A    between atoms: C_8  and  C_29
REMARK    4  A    between atoms: N_11  and  C_15
REMARK    5  A    between atoms: C_15  and  C_16
REMARK    6  A    between atoms: N_21  and  C_22
REMARK    7  A    between atoms: C_29  and  C_30
REMARK                            x       y       z     vdW  Elec       q    Type
REMARK                         _______ _______ _______ _____ _____    ______ ____
ROOT
ATOM      1  C   UNL     1      -1.779   2.320   1.490  0.00  0.00    +0.120 C 
ATOM      2  C   UNL     1      -0.749   3.150   2.231  0.00  0.00    +0.248 C 
ATOM      3  O   UNL     1      -0.396   4.280   1.972  0.00  0.00    -0.273 OA
ATOM      4  N   UNL     1      -0.306   2.368   3.236  0.00  0.00    -0.215 N 
ATOM      5  C   UNL     1      -0.907   1.173   3.233  0.00  0.00    +0.310 C 
ATOM      6  O   UNL     1      -0.674   0.297   4.042  0.00  0.00    -0.252 OA
ATOM      7  N   UNL     1      -1.799   1.048   2.233  0.00  0.00    -0.284 N 
ATOM      8  H   UNL     1      -2.348   0.273   2.039  0.00  0.00    +0.151 HD
ENDROOT
BRANCH   1   9
ATOM      9  C   UNL     1      -1.345   2.090   0.041  0.00  0.00    +0.070 C 
BRANCH   9  13
ATOM     10  C   UNL     1       2.398   0.032  -0.025  0.00  0.00    +0.000 A 
ATOM     11  C   UNL     1       1.216  -0.684  -0.017  0.00  0.00    +0.000 A 
ATOM     12  C   UNL     1       0.004  -0.018   0.007  0.00  0.00    +0.004 A 
ATOM     13  C   UNL     1      -0.024   1.364   0.022  0.00  0.00    -0.045 A 
ATOM     14  C   UNL     1       1.158   2.080   0.014  0.00  0.00    +0.004 A 
ATOM     15  C   UNL     1       2.369   1.414  -0.010  0.00  0.00    +0.000 A 
ENDBRANCH   9  13
ENDBRANCH   1   9
BRANCH   4  16
ATOM     16  C   UNL     1       0.708   2.777   4.210  0.00  0.00    +0.214 C 
BRANCH  16  17
ATOM     17  C   UNL     1       2.076   2.406   3.697  0.00  0.00    +0.238 C 
ATOM     18  O   UNL     1       2.191   1.855   2.623  0.00  0.00    -0.274 OA
ATOM     19  N   UNL     1       3.170   2.687   4.432  0.00  0.00    -0.239 N 
ATOM     20  C   UNL     1       4.393   2.355   3.973  0.00  0.00    +0.310 C 
ATOM     21  O   UNL     1       4.509   1.802   2.897  0.00  0.00    -0.252 OA
ATOM     22  N   UNL     1       5.487   2.636   4.707  0.00  0.00    -0.267 N 
ATOM     23  H   UNL     1       3.078   3.128   5.290  0.00  0.00    +0.159 HD
ATOM     24  H   UNL     1       5.403   3.149   5.526  0.00  0.00    +0.156 HD
BRANCH  22  25
ATOM     25  C   UNL     1       6.747   2.188   4.288  0.00  0.00    +0.070 A 
ATOM     26  C   UNL     1       6.850   1.075   3.465  0.00  0.00    +0.026 A 
ATOM     27  C   UNL     1       8.093   0.637   3.050  0.00  0.00    +0.002 A 
ATOM     28  C   UNL     1       9.235   1.300   3.461  0.00  0.00    +0.003 A 
ATOM     29  C   UNL     1       9.137   2.406   4.284  0.00  0.00    +0.040 A 
ATOM     30  C   UNL     1       7.896   2.853   4.700  0.00  0.00    +0.145 A 
ATOM     31  F   UNL     1       7.801   3.933   5.506  0.00  0.00    -0.204 F 
ENDBRANCH  22  25
ENDBRANCH  16  17
ENDBRANCH   4  16
BRANCH   1  32
ATOM     32  C   UNL     1      -3.153   2.993   1.538  0.00  0.00    +0.070 C 
BRANCH  32  33
ATOM     33  C   UNL     1      -3.557   3.208   2.974  0.00  0.00    -0.045 A 
ATOM     34  C   UNL     1      -4.274   2.234   3.643  0.00  0.00    +0.004 A 
ATOM     35  C   UNL     1      -4.641   2.429   4.961  0.00  0.00    +0.000 A 
ATOM     36  C   UNL     1      -4.300   3.603   5.607  0.00  0.00    +0.000 A 
ATOM     37  C   UNL     1      -3.587   4.579   4.936  0.00  0.00    +0.000 A 
ATOM     38  C   UNL     1      -3.216   4.382   3.619  0.00  0.00    +0.004 A 
ENDBRANCH  32  33
ENDBRANCH   1  32
TORSDOF 7
