REMARK  Name = ZINC40317165
REMARK  13 active torsions:
REMARK  status: ('A' for Active; 'I' for Inactive)
REMARK    1  A    between atoms: C_1  and  C_2
REMARK    2  A    between atoms: C_2  and  C_3
REMARK    3  A    between atoms: C_2  and  C_4
REMARK    4  A    between atoms: C_7  and  C_10
REMARK    5  A    between atoms: C_10  and  N_11
REMARK    6  A    between atoms: N_11  and  C_12
REMARK    7  A    between atoms: N_11  and  C_19
REMARK    8  A    between atoms: C_12  and  C_13
REMARK    9  A    between atoms: C_19  and  C_20
REMARK   10  A    between atoms: C_20  and  C_22
REMARK   11  A    between atoms: C_20  and  O_31
REMARK   12  A    between atoms: C_22  and  O_23
REMARK   13  A    between atoms: O_23  and  C_24
REMARK                            x       y       z     vdW  Elec       q    Type
REMARK                         _______ _______ _______ _____ _____    ______ ____
ROOT
ATOM      1  N   UNL     1       3.651  -0.733  -5.332  0.00  0.00    +0.386 N 
ATOM      2  H   UNL     1       2.935  -0.040  -5.170  0.00  0.00    -0.081 HD
ENDROOT
BRANCH   1   3
ATOM      3  C   UNL     1       3.074  -2.076  -5.191  0.00  0.00    -0.043 C 
BRANCH   3   7
ATOM      4  C   UNL     1       1.208  -2.432  -1.365  0.00  0.00    -0.045 A 
ATOM      5  C   UNL     1       0.519  -1.862  -2.419  0.00  0.00    +0.004 A 
ATOM      6  C   UNL     1       1.123  -1.746  -3.657  0.00  0.00    +0.002 A 
ATOM      7  C   UNL     1       2.416  -2.201  -3.841  0.00  0.00    -0.064 A 
ATOM      8  C   UNL     1       3.105  -2.771  -2.786  0.00  0.00    +0.002 A 
ATOM      9  C   UNL     1       2.502  -2.882  -1.547  0.00  0.00    +0.004 A 
BRANCH   4  11
ATOM     10  C   UNL     1       0.165  -1.168   0.497  0.00  0.00    +0.012 C 
ATOM     11  C   UNL     1       0.550  -2.558  -0.015  0.00  0.00    +0.013 C 
ATOM     12  C   UNL     1      -0.707  -3.421  -0.139  0.00  0.00    +0.012 C 
ENDBRANCH   4  11
ENDBRANCH   3   7
ENDBRANCH   1   3
BRANCH   1  13
ATOM     13  C   UNL     1       4.732  -0.559  -4.352  0.00  0.00    -0.046 C 
BRANCH  13  14
ATOM     14  C   UNL     1       5.892  -1.493  -4.701  0.00  0.00    +0.102 C 
ATOM     15  C   UNL     1       7.080  -1.259  -3.735  0.00  0.00    +0.032 C 
ATOM     16  C   UNL     1       7.799  -2.634  -3.813  0.00  0.00    +0.030 C 
ATOM     17  C   UNL     1       6.618  -3.611  -3.989  0.00  0.00    +0.160 C 
ATOM     18  O   UNL     1       5.507  -2.862  -4.501  0.00  0.00    -0.378 OA
ENDBRANCH  13  14
ENDBRANCH   1  13
BRANCH   1  19
ATOM     19  C   UNL     1       4.190  -0.571  -6.689  0.00  0.00    -0.043 C 
BRANCH  19  20
ATOM     20  C   UNL     1       4.710   0.857  -6.865  0.00  0.00    +0.135 C 
BRANCH  20  21
ATOM     21  O   UNL     1       3.646   1.783  -6.633  0.00  0.00    -0.390 OA
ATOM     22  H   UNL     1       2.894   1.677  -7.232  0.00  0.00    +0.210 HD
ENDBRANCH  20  21
BRANCH  20  23
ATOM     23  C   UNL     1       5.239   1.035  -8.289  0.00  0.00    +0.258 C 
BRANCH  23  24
ATOM     24  O   UNL     1       5.830   2.330  -8.419  0.00  0.00    -0.488 OA
BRANCH  24  25
ATOM     25  C   UNL     1       6.352   2.651  -9.632  0.00  0.00    +0.135 A 
ATOM     26  C   UNL     1       6.293   1.741 -10.677  0.00  0.00    +0.047 A 
ATOM     27  C   UNL     1       6.825   2.069 -11.909  0.00  0.00    +0.004 A 
ATOM     28  C   UNL     1       7.417   3.304 -12.101  0.00  0.00    +0.001 A 
ATOM     29  C   UNL     1       7.477   4.213 -11.062  0.00  0.00    +0.019 A 
ATOM     30  C   UNL     1       6.941   3.892  -9.829  0.00  0.00    +0.059 A 
ATOM     31 BR   UNL     1       7.017   5.140  -8.409  0.00  0.00    -0.047 Br
ENDBRANCH  24  25
ENDBRANCH  23  24
ENDBRANCH  20  23
ENDBRANCH  19  20
ENDBRANCH   1  19
TORSDOF 11
