REMARK  Name = ZINC08623618
REMARK  7 active torsions:
REMARK  status: ('A' for Active; 'I' for Inactive)
REMARK    1  A    between atoms: C_4  and  C_7
REMARK    2  A    between atoms: C_9  and  C_12
REMARK    3  A    between atoms: C_12  and  C_13
REMARK    4  A    between atoms: C_18  and  C_20
REMARK    5  A    between atoms: C_20  and  C_21
REMARK    6  A    between atoms: N_23  and  C_24
REMARK    7  A    between atoms: C_24  and  C_25
REMARK                            x       y       z     vdW  Elec       q    Type
REMARK                         _______ _______ _______ _____ _____    ______ ____
ROOT
ATOM      1  C   UNL     1      -0.833   1.800   6.168  0.00  0.00    -0.019 C 
ATOM      2  C   UNL     1      -0.128   1.242   7.407  0.00  0.00    -0.079 C 
ATOM      3  C   UNL     1       0.416  -0.813   6.242  0.00  0.00    -0.082 C 
ATOM      4  C   UNL     1      -0.273  -0.316   4.969  0.00  0.00    -0.015 C 
ATOM      5  C   UNL     1      -0.187   1.212   4.911  0.00  0.00    -0.002 C 
ATOM      6  N   UNL     1      -0.244  -0.229   7.425  0.00  0.00    +0.379 N 
ATOM      7  H   UNL     1      -1.238  -0.490   7.421  0.00  0.00    -0.086 HD
ATOM      8  H   UNL     1       0.202  -0.593   8.275  0.00  0.00    -0.086 HD
ENDROOT
BRANCH   1   9
ATOM      9  C   UNL     1      -2.314   1.418   6.208  0.00  0.00    +0.061 C 
BRANCH   9  12
ATOM     10  C   UNL     1      -4.309   3.285   8.644  0.00  0.00    +0.167 A 
ATOM     11  C   UNL     1      -4.114   2.929   7.337  0.00  0.00    +0.076 A 
ATOM     12  C   UNL     1      -2.977   2.097   7.379  0.00  0.00    +0.084 A 
ATOM     13  N   UNL     1      -2.614   2.026   8.628  0.00  0.00    -0.083 NA
ATOM     14  O   UNL     1      -3.333   2.681   9.345  0.00  0.00    -0.354 OA
BRANCH  10  18
ATOM     15  C   UNL     1      -7.373   5.797  10.175  0.00  0.00    +0.000 A 
ATOM     16  C   UNL     1      -6.439   5.247  11.035  0.00  0.00    +0.001 A 
ATOM     17  C   UNL     1      -5.441   4.431  10.544  0.00  0.00    +0.011 A 
ATOM     18  C   UNL     1      -5.375   4.159   9.177  0.00  0.00    +0.020 A 
ATOM     19  C   UNL     1      -6.317   4.721   8.314  0.00  0.00    +0.011 A 
ATOM     20  C   UNL     1      -7.313   5.532   8.819  0.00  0.00    +0.001 A 
ENDBRANCH  10  18
ENDBRANCH   9  12
ENDBRANCH   1   9
BRANCH   5  21
ATOM     21  C   UNL     1      -0.927   1.718   3.671  0.00  0.00    +0.099 C 
BRANCH  21  22
ATOM     22  C   UNL     1      -0.222   1.232   2.431  0.00  0.00    +0.214 C 
ATOM     23  O   UNL     1       0.774   0.548   2.529  0.00  0.00    -0.276 OA
ATOM     24  N   UNL     1      -0.698   1.558   1.213  0.00  0.00    -0.311 N 
ATOM     25  H   UNL     1      -1.495   2.106   1.135  0.00  0.00    +0.149 HD
BRANCH  24  26
ATOM     26  C   UNL     1      -0.013   1.086   0.008  0.00  0.00    +0.139 C 
BRANCH  26  27
ATOM     27  C   UNL     1      -0.742   1.585  -1.213  0.00  0.00    -0.030 A 
ATOM     28  C   UNL     1      -1.750   0.824  -1.775  0.00  0.00    +0.008 A 
ATOM     29  C   UNL     1      -2.423   1.284  -2.891  0.00  0.00    +0.038 A 
ATOM     30  C   UNL     1      -2.079   2.501  -3.454  0.00  0.00    +0.123 A 
ATOM     31  C   UNL     1      -1.065   3.260  -2.893  0.00  0.00    +0.038 A 
ATOM     32  C   UNL     1      -0.398   2.801  -1.774  0.00  0.00    +0.008 A 
ATOM     33  F   UNL     1      -2.732   2.948  -4.549  0.00  0.00    -0.205 F 
ENDBRANCH  26  27
ENDBRANCH  24  26
ENDBRANCH  21  22
ENDBRANCH   5  21
TORSDOF 7
