REMARK  Name = ZINC02320971
REMARK  5 active torsions:
REMARK  status: ('A' for Active; 'I' for Inactive)
REMARK    1  A    between atoms: C_4  and  O_22
REMARK    2  A    between atoms: C_5  and  C_7
REMARK    3  A    between atoms: N_8  and  N_9
REMARK    4  A    between atoms: C_10  and  C_15
REMARK    5  A    between atoms: C_13  and  S_14
REMARK                            x       y       z     vdW  Elec       q    Type
REMARK                         _______ _______ _______ _____ _____    ______ ____
ROOT
ATOM      1  N   UNL     1       0.293   1.320  -0.005  0.00  0.00    -0.187 N 
ATOM      2  C   UNL     1       1.432   2.037   0.293  0.00  0.00    +0.186 A 
ATOM      3  N   UNL     1       1.135   3.309   0.148  0.00  0.00    -0.126 NA
ATOM      4  N   UNL     1      -0.091   3.436  -0.214  0.00  0.00    -0.121 NA
ATOM      5  C   UNL     1      -0.654   2.253  -0.329  0.00  0.00    +0.209 A 
ENDROOT
BRANCH   2   6
ATOM      6  C   UNL     1       2.740   1.481   0.698  0.00  0.00    +0.021 A 
ATOM      7  C   UNL     1       2.837   0.153   1.118  0.00  0.00    +0.013 A 
ATOM      8  C   UNL     1       4.061  -0.361   1.491  0.00  0.00    +0.021 A 
ATOM      9  C   UNL     1       5.191   0.439   1.458  0.00  0.00    +0.041 A 
ATOM     10  C   UNL     1       5.100   1.758   1.046  0.00  0.00    +0.021 A 
ATOM     11  C   UNL     1       3.882   2.283   0.666  0.00  0.00    +0.013 A 
ATOM     12 CL   UNL     1       6.727  -0.214   1.934  0.00  0.00    -0.084 Cl
ENDBRANCH   2   6
BRANCH   1  14
ATOM     13  C   UNL     1      -0.055  -0.688   1.141  0.00  0.00    +0.145 C 
ATOM     14  N   UNL     1       0.140  -0.072   0.015  0.00  0.00    -0.170 NA
BRANCH  13  19
ATOM     15  C   UNL     1      -0.107   2.118   3.632  0.00  0.00    +0.001 A 
ATOM     16  C   UNL     1       0.211   1.449   4.802  0.00  0.00    +0.004 A 
ATOM     17  C   UNL     1       0.443   0.087   4.787  0.00  0.00    +0.046 A 
ATOM     18  C   UNL     1       0.359  -0.620   3.598  0.00  0.00    +0.125 A 
ATOM     19  C   UNL     1       0.037   0.053   2.411  0.00  0.00    +0.036 A 
ATOM     20  C   UNL     1      -0.190   1.431   2.439  0.00  0.00    +0.013 A 
BRANCH  18  21
ATOM     21  O   UNL     1       0.586  -1.958   3.583  0.00  0.00    -0.506 OA
ATOM     22  H   UNL     1       1.508  -2.199   3.416  0.00  0.00    +0.292 HD
ENDBRANCH  18  21
ENDBRANCH  13  19
ENDBRANCH   1  14
BRANCH   5  23
ATOM     23  S   UNL     1      -2.319   1.929  -0.807  0.00  0.00    -0.102 S 
ATOM     24  H   UNL     1      -2.944   1.947   0.457  0.00  0.00    +0.110 HD
ENDBRANCH   5  23
TORSDOF 5
