REMARK  Name = ZINC04193152
REMARK  5 active torsions:
REMARK  status: ('A' for Active; 'I' for Inactive)
REMARK    1  A    between atoms: C_1  and  C_2
REMARK    2  A    between atoms: C_2  and  O_3
REMARK    3  A    between atoms: O_3  and  C_4
REMARK    4  A    between atoms: C_9  and  N_10
REMARK    5  A    between atoms: C_11  and  C_13
REMARK                            x       y       z     vdW  Elec       q    Type
REMARK                         _______ _______ _______ _____ _____    ______ ____
ROOT
ATOM      1  C   UNL     1      -0.573   7.883  -0.295  0.00  0.00    +0.099 A 
ATOM      2  C   UNL     1      -0.673   7.158  -1.469  0.00  0.00    +0.030 A 
ATOM      3  C   UNL     1      -0.745   5.745  -1.385  0.00  0.00    +0.019 A 
ATOM      4  C   UNL     1      -0.861   4.974  -2.548  0.00  0.00    +0.017 A 
ATOM      5  C   UNL     1      -0.899   3.607  -2.477  0.00  0.00    -0.025 A 
ATOM      6  C   UNL     1      -0.803   2.965  -1.238  0.00  0.00    +0.040 A 
ATOM      7  C   UNL     1      -0.744   3.715  -0.071  0.00  0.00    +0.017 A 
ATOM      8  C   UNL     1      -0.705   5.107  -0.136  0.00  0.00    +0.142 A 
ATOM      9  O   UNL     1      -0.629   5.813   1.013  0.00  0.00    -0.437 OA
ATOM     10  C   UNL     1      -0.547   7.155   0.984  0.00  0.00    +0.226 A 
ATOM     11  N   UNL     1      -0.445   7.821   2.104  0.00  0.00    -0.266 NA
ATOM     12  C   UNL     1      -0.740   3.104   1.303  0.00  0.00    +0.042 C 
ATOM     13  C   UNL     1      -0.800   1.585   1.261  0.00  0.00    +0.024 C 
ATOM     14  C   UNL     1      -0.083   1.082   0.008  0.00  0.00    +0.105 C 
ATOM     15  N   UNL     1      -0.798   1.578  -1.175  0.00  0.00    -0.329 N 
ATOM     16  C   UNL     1      -0.240   0.972  -2.390  0.00  0.00    +0.105 C 
ATOM     17  C   UNL     1      -1.122   1.360  -3.577  0.00  0.00    +0.024 C 
ATOM     18  C   UNL     1      -1.069   2.867  -3.775  0.00  0.00    +0.038 C 
ATOM     19  H   UNL     1      -0.428   7.347   2.950  0.00  0.00    +0.190 HD
ENDROOT
BRANCH   1  21
ATOM     20  N   UNL     1      -0.518  10.003  -1.503  0.00  0.00    -0.278 N 
ATOM     21  C   UNL     1      -0.493   9.350  -0.324  0.00  0.00    +0.253 C 
ATOM     22  O   UNL     1      -0.405   9.976   0.716  0.00  0.00    -0.270 OA
ATOM     23  H   UNL     1      -0.507   9.503  -2.335  0.00  0.00    +0.155 HD
BRANCH  20  29
ATOM     24  C   UNL     1      -0.084  12.096  -2.639  0.00  0.00    +0.142 A 
ATOM     25  C   UNL     1      -0.128  13.480  -2.658  0.00  0.00    +0.047 A 
ATOM     26  C   UNL     1      -0.642  14.171  -1.576  0.00  0.00    +0.004 A 
ATOM     27  C   UNL     1      -1.114  13.484  -0.473  0.00  0.00    +0.002 A 
ATOM     28  C   UNL     1      -1.079  12.102  -0.449  0.00  0.00    +0.027 A 
ATOM     29  C   UNL     1      -0.560  11.403  -1.528  0.00  0.00    +0.076 A 
BRANCH  24  30
ATOM     30  O   UNL     1       0.420  11.415  -3.703  0.00  0.00    -0.490 OA
BRANCH  30  32
ATOM     31  C   UNL     1       1.417  11.259  -5.899  0.00  0.00    +0.048 C 
ATOM     32  C   UNL     1       0.889  12.192  -4.806  0.00  0.00    +0.226 C 
ENDBRANCH  30  32
ENDBRANCH  24  30
ENDBRANCH  20  29
ENDBRANCH   1  21
TORSDOF 4
