REMARK  Name = ZINC26780432
REMARK  17 active torsions:
REMARK  status: ('A' for Active; 'I' for Inactive)
REMARK    1  A    between atoms: C_1  and  C_2
REMARK    2  A    between atoms: C_2  and  C_3
REMARK    3  A    between atoms: C_2  and  C_4
REMARK    4  A    between atoms: C_2  and  C_5
REMARK    5  A    between atoms: C_5  and  C_6
REMARK    6  A    between atoms: C_6  and  C_7
REMARK    7  A    between atoms: C_6  and  C_8
REMARK    8  A    between atoms: C_6  and  C_9
REMARK    9  A    between atoms: C_12  and  O_15
REMARK   10  A    between atoms: O_15  and  C_16
REMARK   11  A    between atoms: C_16  and  C_17
REMARK   12  A    between atoms: C_17  and  C_19
REMARK   13  A    between atoms: C_17  and  O_39
REMARK   14  A    between atoms: C_19  and  N_20
REMARK   15  A    between atoms: N_23  and  C_26
REMARK   16  A    between atoms: C_26  and  C_27
REMARK   17  A    between atoms: C_26  and  C_33
REMARK                            x       y       z     vdW  Elec       q    Type
REMARK                         _______ _______ _______ _____ _____    ______ ____
ROOT
ATOM      1  C   UNL     1       2.667  -6.224   0.419  0.00  0.00    +0.119 C 
ENDROOT
BRANCH   1   2
ATOM      2  N   UNL     1       2.294  -7.621   0.159  0.00  0.00    -0.303 NA
ATOM      3  C   UNL     1       3.478  -8.492   0.164  0.00  0.00    +0.066 C 
ATOM      4  C   UNL     1       3.039  -9.945  -0.031  0.00  0.00    -0.062 C 
ATOM      5  N   UNL     1       2.306 -10.066  -1.298  0.00  0.00    +0.389 N 
ATOM      6  C   UNL     1       1.122  -9.196  -1.304  0.00  0.00    -0.062 C 
ATOM      7  C   UNL     1       1.560  -7.742  -1.108  0.00  0.00    +0.066 C 
ATOM      8  H   UNL     1       2.972  -9.739  -2.110  0.00  0.00    -0.080 HD
BRANCH   5   9
ATOM      9  C   UNL     1       1.933 -11.463  -1.558  0.00  0.00    -0.007 C 
BRANCH   9  10
ATOM     10  C   UNL     1       1.376 -11.583  -2.954  0.00  0.00    -0.057 A 
ATOM     11  C   UNL     1       2.012 -10.955  -4.008  0.00  0.00    +0.002 A 
ATOM     12  C   UNL     1       1.504 -11.069  -5.289  0.00  0.00    +0.000 A 
ATOM     13  C   UNL     1       0.353 -11.802  -5.513  0.00  0.00    +0.000 A 
ATOM     14  C   UNL     1      -0.286 -12.425  -4.458  0.00  0.00    +0.000 A 
ATOM     15  C   UNL     1       0.225 -12.315  -3.178  0.00  0.00    +0.002 A 
ENDBRANCH   9  10
BRANCH   9  16
ATOM     16  C   UNL     1       3.150 -12.341  -1.427  0.00  0.00    -0.057 A 
ATOM     17  C   UNL     1       4.365 -11.918  -1.932  0.00  0.00    +0.002 A 
ATOM     18  C   UNL     1       5.484 -12.721  -1.807  0.00  0.00    +0.000 A 
ATOM     19  C   UNL     1       5.385 -13.952  -1.186  0.00  0.00    +0.000 A 
ATOM     20  C   UNL     1       4.168 -14.378  -0.686  0.00  0.00    +0.000 A 
ATOM     21  C   UNL     1       3.051 -13.572  -0.806  0.00  0.00    +0.002 A 
ENDBRANCH   9  16
ENDBRANCH   5   9
ENDBRANCH   1   2
BRANCH   1  22
ATOM     22  C   UNL     1       1.436  -5.446   0.888  0.00  0.00    +0.166 C 
BRANCH  22  23
ATOM     23  O   UNL     1       1.010  -5.947   2.157  0.00  0.00    -0.387 OA
ATOM     24  H   UNL     1       0.714  -7.001   2.261  0.00  0.00    +0.210 HD
ENDBRANCH  22  23
BRANCH  22  25
ATOM     25  C   UNL     1       1.788  -3.963   1.017  0.00  0.00    +0.261 C 
BRANCH  25  26
ATOM     26  O   UNL     1       0.611  -3.220   1.341  0.00  0.00    -0.489 OA
BRANCH  26  30
ATOM     27  C   UNL     1       1.036   0.858   1.800  0.00  0.00    -0.041 A 
ATOM     28  C   UNL     1      -0.205   0.271   1.960  0.00  0.00    +0.008 A 
ATOM     29  C   UNL     1      -0.351  -1.094   1.807  0.00  0.00    +0.046 A 
ATOM     30  C   UNL     1       0.751  -1.877   1.492  0.00  0.00    +0.121 A 
ATOM     31  C   UNL     1       1.996  -1.286   1.332  0.00  0.00    +0.046 A 
ATOM     32  C   UNL     1       2.136   0.080   1.486  0.00  0.00    +0.008 A 
BRANCH  27  33
ATOM     33  C   UNL     1       1.192   2.347   1.968  0.00  0.00    -0.009 C 
ATOM     34  C   UNL     1       0.307   3.070   0.951  0.00  0.00    +0.016 C 
ATOM     35  C   UNL     1       0.773   2.747   3.385  0.00  0.00    +0.016 C 
BRANCH  33  36
ATOM     36  C   UNL     1       2.654   2.736   1.740  0.00  0.00    +0.017 C 
BRANCH  36  38
ATOM     37  C   UNL     1       1.863   4.970   2.532  0.00  0.00    +0.010 C 
ATOM     38  C   UNL     1       2.751   4.247   1.517  0.00  0.00    -0.037 C 
ATOM     39  C   UNL     1       4.202   4.697   1.698  0.00  0.00    +0.010 C 
ATOM     40  C   UNL     1       2.284   4.584   0.100  0.00  0.00    +0.010 C 
ENDBRANCH  36  38
ENDBRANCH  33  36
ENDBRANCH  27  33
ENDBRANCH  26  30
ENDBRANCH  25  26
ENDBRANCH  22  25
ENDBRANCH   1  22
TORSDOF 12
