REMARK  Name = ZINC08920727
REMARK  15 active torsions:
REMARK  status: ('A' for Active; 'I' for Inactive)
REMARK    1  A    between atoms: C_1  and  C_2
REMARK    2  A    between atoms: C_2  and  C_3
REMARK    3  A    between atoms: C_3  and  N_71
REMARK    4  A    between atoms: C_9  and  N_15
REMARK    5  A    between atoms: C_10  and  C_11
REMARK    6  A    between atoms: N_13  and  C_14
REMARK    7  A    between atoms: C_16  and  C_18
REMARK    8  A    between atoms: C_21  and  S_24
REMARK    9  A    between atoms: S_24  and  N_27
REMARK   10  A    between atoms: N_27  and  C_28
REMARK   11  A    between atoms: N_27  and  C_31
REMARK   12  A    between atoms: C_28  and  C_29
REMARK   13  A    between atoms: C_29  and  C_30
REMARK   14  A    between atoms: C_31  and  C_32
REMARK   15  A    between atoms: C_32  and  C_33
REMARK                            x       y       z     vdW  Elec       q    Type
REMARK                         _______ _______ _______ _____ _____    ______ ____
ROOT
ATOM      1  N   UNL     1      -0.011   0.966   0.007  0.00  0.00    -0.275 N 
ATOM      2  C   UNL     1      -1.187   1.624   0.017  0.00  0.00    +0.249 C 
ATOM      3  O   UNL     1      -1.204   2.839   0.023  0.00  0.00    -0.270 OA
ATOM      4  H   UNL     1       0.002  -0.004   0.002  0.00  0.00    +0.156 HD
ENDROOT
BRANCH   1  10
ATOM      5  C   UNL     1       5.827   3.025  -0.483  0.00  0.00    -0.074 C 
ATOM      6  C   UNL     1       5.041   1.787  -0.041  0.00  0.00    +0.018 C 
ATOM      7  C   UNL     1       3.560   2.147  -0.021  0.00  0.00    -0.027 A 
ATOM      8  C   UNL     1       3.177   3.444  -0.011  0.00  0.00    -0.021 A 
ATOM      9  S   UNL     1       1.409   3.393  -0.001  0.00  0.00    -0.079 S 
ATOM     10  C   UNL     1       1.179   1.675  -0.000  0.00  0.00    +0.085 A 
ATOM     11  C   UNL     1       2.478   1.181  -0.015  0.00  0.00    +0.068 A 
ATOM     12  C   UNL     1       4.081   4.637  -0.012  0.00  0.00    -0.035 C 
ATOM     13  N   UNL     1       5.441   4.176   0.359  0.00  0.00    +0.383 N 
ATOM     14  H   UNL     1       5.439   3.885   1.343  0.00  0.00    -0.081 HD
BRANCH  11  15
ATOM     15  C   UNL     1       2.744  -0.261  -0.025  0.00  0.00    +0.246 C 
ATOM     16  O   UNL     1       2.843  -0.854  -1.083  0.00  0.00    -0.270 OA
ATOM     17  N   UNL     1       2.878  -0.929   1.138  0.00  0.00    -0.314 N 
ATOM     18  C   UNL     1       3.144  -2.369   1.128  0.00  0.00    +0.128 C 
ATOM     19  H   UNL     1       2.798  -0.456   1.981  0.00  0.00    +0.149 HD
ENDBRANCH  11  15
BRANCH  13  20
ATOM     20  C   UNL     1       6.413   5.277   0.186  0.00  0.00    -0.079 C 
BRANCH  20  22
ATOM     21  C   UNL     1       6.870   7.682   0.688  0.00  0.00    +0.002 C 
ATOM     22  C   UNL     1       5.859   6.544   0.842  0.00  0.00    -0.022 C 
ENDBRANCH  20  22
ENDBRANCH  13  20
ENDBRANCH   1  10
BRANCH   2  23
ATOM     23  C   UNL     1      -2.457   0.868   0.018  0.00  0.00    +0.037 A 
ATOM     24  C   UNL     1      -2.442  -0.528   0.005  0.00  0.00    +0.015 A 
ATOM     25  C   UNL     1      -3.631  -1.228   0.013  0.00  0.00    +0.029 A 
ATOM     26  C   UNL     1      -4.836  -0.550   0.022  0.00  0.00    +0.106 A 
ATOM     27  C   UNL     1      -4.859   0.834   0.030  0.00  0.00    +0.029 A 
ATOM     28  C   UNL     1      -3.677   1.546   0.028  0.00  0.00    +0.015 A 
BRANCH  26  29
ATOM     29  S   UNL     1      -6.350  -1.451   0.024  0.00  0.00    +0.061 S 
ATOM     30  O   UNL     1      -6.059  -2.732   0.567  0.00  0.00    -0.153 OA
ATOM     31  O   UNL     1      -7.334  -0.592   0.585  0.00  0.00    -0.153 OA
BRANCH  29  32
ATOM     32  N   UNL     1      -6.778  -1.693  -1.557  0.00  0.00    -0.177 NA
BRANCH  32  33
ATOM     33  C   UNL     1      -6.319  -2.890  -2.265  0.00  0.00    +0.109 C 
BRANCH  33  34
ATOM     34  C   UNL     1      -7.396  -3.974  -2.189  0.00  0.00    +0.014 C 
ATOM     35  C   UNL     1      -6.916  -5.224  -2.929  0.00  0.00    +0.005 C 
ENDBRANCH  33  34
ENDBRANCH  32  33
BRANCH  32  36
ATOM     36  C   UNL     1      -7.617  -0.710  -2.247  0.00  0.00    +0.109 C 
BRANCH  36  37
ATOM     37  C   UNL     1      -6.728   0.267  -3.019  0.00  0.00    +0.014 C 
ATOM     38  C   UNL     1      -7.603   1.293  -3.740  0.00  0.00    +0.005 C 
ENDBRANCH  36  37
ENDBRANCH  32  36
ENDBRANCH  29  32
ENDBRANCH  26  29
ENDBRANCH   2  23
TORSDOF 11
