REMARK  Name = ZINC08892198
REMARK  8 active torsions:
REMARK  status: ('A' for Active; 'I' for Inactive)
REMARK    1  A    between atoms: C_1  and  C_2
REMARK    2  A    between atoms: C_7  and  N_8
REMARK    3  A    between atoms: C_9  and  C_11
REMARK    4  A    between atoms: C_12  and  C_36
REMARK    5  A    between atoms: C_19  and  C_20
REMARK    6  A    between atoms: C_23  and  O_26
REMARK    7  A    between atoms: O_26  and  C_27
REMARK    8  A    between atoms: C_29  and  C_31
REMARK                            x       y       z     vdW  Elec       q    Type
REMARK                         _______ _______ _______ _____ _____    ______ ____
ROOT
ATOM      1  C   UNL     1       5.349   4.072   1.857  0.00  0.00    +0.063 C 
ATOM      2  C   UNL     1       6.462   3.362   1.509  0.00  0.00    +0.052 C 
ATOM      3  N   UNL     1       7.544   3.982   1.052  0.00  0.00    -0.228 NA
ATOM      4  C   UNL     1       7.654   5.277   0.901  0.00  0.00    +0.178 A 
ATOM      5  N   UNL     1       6.654   6.175   1.197  0.00  0.00    -0.274 N 
ATOM      6  C   UNL     1       6.884   7.480   1.001  0.00  0.00    +0.268 A 
ATOM      7  O   UNL     1       6.029   8.311   1.248  0.00  0.00    -0.266 OA
ATOM      8  C   UNL     1       8.198   7.879   0.480  0.00  0.00    +0.081 A 
ATOM      9  C   UNL     1       8.675   9.119   0.198  0.00  0.00    +0.028 C 
ATOM     10  S   UNL     1       8.999   6.291   0.317  0.00  0.00    -0.046 S 
ATOM     11  C   UNL     1       5.392   5.577   1.715  0.00  0.00    +0.166 C 
ATOM     12  C   UNL     1       6.462   1.861   1.643  0.00  0.00    +0.066 C 
ENDROOT
BRANCH   9  13
ATOM     13  C   UNL     1       7.757  10.262   0.138  0.00  0.00    -0.024 A 
ATOM     14  C   UNL     1       6.474  10.106  -0.401  0.00  0.00    +0.011 A 
ATOM     15  C   UNL     1       5.615  11.180  -0.449  0.00  0.00    +0.046 A 
ATOM     16  C   UNL     1       6.023  12.422   0.025  0.00  0.00    +0.120 A 
ATOM     17  C   UNL     1       7.297  12.584   0.557  0.00  0.00    +0.046 A 
ATOM     18  C   UNL     1       8.162  11.515   0.615  0.00  0.00    +0.011 A 
BRANCH  16  19
ATOM     19  O   UNL     1       5.173  13.479  -0.030  0.00  0.00    -0.495 OA
ATOM     20  C   UNL     1       3.879  13.243  -0.588  0.00  0.00    +0.277 C 
ENDBRANCH  16  19
ENDBRANCH   9  13
BRANCH  11  21
ATOM     21  C   UNL     1       5.115   6.178   3.068  0.00  0.00    +0.017 A 
ATOM     22  C   UNL     1       3.958   6.692   3.554  0.00  0.00    +0.013 A 
ATOM     23  C   UNL     1       3.936   7.192   4.842  0.00  0.00    +0.008 A 
ATOM     24  C   UNL     1       5.074   7.164   5.578  0.00  0.00    +0.045 A 
ATOM     25  S   UNL     1       6.227   6.406   4.446  0.00  0.00    -0.099 S 
ENDBRANCH  11  21
BRANCH   1  27
ATOM     26  N   UNL     1       4.158   2.975   3.609  0.00  0.00    -0.281 N 
ATOM     27  C   UNL     1       4.198   3.423   2.338  0.00  0.00    +0.248 C 
ATOM     28  O   UNL     1       3.236   3.266   1.607  0.00  0.00    -0.270 OA
ATOM     29  H   UNL     1       4.885   3.181   4.218  0.00  0.00    +0.155 HD
BRANCH  26  36
ATOM     30  C   UNL     1       4.598   1.079   5.684  0.00  0.00    +0.045 C 
ATOM     31  C   UNL     1       3.241   1.277   5.059  0.00  0.00    -0.029 A 
ATOM     32  C   UNL     1       2.165   0.526   5.491  0.00  0.00    +0.005 A 
ATOM     33  C   UNL     1       0.918   0.711   4.922  0.00  0.00    +0.000 A 
ATOM     34  C   UNL     1       0.747   1.640   3.911  0.00  0.00    +0.002 A 
ATOM     35  C   UNL     1       1.819   2.393   3.475  0.00  0.00    +0.023 A 
ATOM     36  C   UNL     1       3.071   2.214   4.048  0.00  0.00    +0.037 A 
ENDBRANCH  26  36
ENDBRANCH   1  27
TORSDOF 5
