REMARK  Name = ZINC13450083
REMARK  9 active torsions:
REMARK  status: ('A' for Active; 'I' for Inactive)
REMARK    1  A    between atoms: C_1  and  C_2
REMARK    2  A    between atoms: C_4  and  S_14
REMARK    3  A    between atoms: C_8  and  C_9
REMARK    4  A    between atoms: C_9  and  C_10
REMARK    5  A    between atoms: C_10  and  C_11
REMARK    6  A    between atoms: S_14  and  C_15
REMARK    7  A    between atoms: C_15  and  C_16
REMARK    8  A    between atoms: N_18  and  C_19
REMARK    9  A    between atoms: N_18  and  C_27
REMARK                            x       y       z     vdW  Elec       q    Type
REMARK                         _______ _______ _______ _____ _____    ______ ____
ROOT
ATOM      1  C   UNL     1       0.051  -4.587  -2.264  0.00  0.00    +0.173 C 
ENDROOT
BRANCH   1   2
ATOM      2  C   UNL     1       0.059  -5.425  -3.516  0.00  0.00    +0.226 C 
ATOM      3  O   UNL     1      -0.043  -4.895  -4.602  0.00  0.00    -0.275 OA
ATOM      4  N   UNL     1       0.181  -6.765  -3.429  0.00  0.00    -0.293 N 
BRANCH   4   5
ATOM      5  C   UNL     1       0.296  -7.571  -4.647  0.00  0.00    +0.099 C 
ATOM      6  C   UNL     1      -0.950  -7.356  -5.522  0.00  0.00    +0.046 C 
ATOM      7  C   UNL     1      -0.666  -7.961  -6.926  0.00  0.00    +0.168 C 
ATOM      8  S   UNL     1       1.080  -7.430  -7.176  0.00  0.00    -0.029 S 
ATOM      9  O   UNL     1       1.091  -6.187  -7.865  0.00  0.00    -0.174 OA
ATOM     10  O   UNL     1       1.826  -8.523  -7.693  0.00  0.00    -0.174 OA
ATOM     11  C   UNL     1       1.565  -7.146  -5.426  0.00  0.00    +0.188 C 
ENDBRANCH   4   5
BRANCH   4  12
ATOM     12  C   UNL     1       0.197  -7.415  -2.117  0.00  0.00    +0.076 C 
ATOM     13  C   UNL     1       1.544  -8.135  -1.900  0.00  0.00    +0.022 C 
ATOM     14  C   UNL     1       1.165  -9.427  -1.135  0.00  0.00    +0.002 C 
ATOM     15  C   UNL     1      -0.174  -9.837  -1.797  0.00  0.00    +0.002 C 
ATOM     16  C   UNL     1      -0.895  -8.497  -2.051  0.00  0.00    +0.022 C 
ENDBRANCH   4  12
ENDBRANCH   1   2
BRANCH   1  17
ATOM     17  S   UNL     1       0.025  -2.829  -2.714  0.00  0.00    -0.077 S 
BRANCH  17  21
ATOM     18  C   UNL     1      -0.029   1.502   0.011  0.00  0.00    +0.066 C 
ATOM     19  C   UNL     1      -0.008  -0.005   0.003  0.00  0.00    +0.049 A 
ATOM     20  N   UNL     1      -0.002  -0.668  -1.144  0.00  0.00    -0.227 NA
ATOM     21  C   UNL     1       0.017  -1.993  -1.163  0.00  0.00    +0.192 A 
ATOM     22  N   UNL     1       0.030  -2.704  -0.045  0.00  0.00    -0.183 NA
ATOM     23  C   UNL     1       0.024  -2.103   1.139  0.00  0.00    +0.277 A 
ATOM     24  O   UNL     1       0.036  -2.834   2.280  0.00  0.00    -0.265 OA
ATOM     25  C   UNL     1       0.009  -0.710   1.192  0.00  0.00    +0.040 A 
BRANCH  25  26
ATOM     26  C   UNL     1       0.009   0.011   2.515  0.00  0.00    +0.054 C 
BRANCH  26  27
ATOM     27  C   UNL     1      -1.434   0.235   2.973  0.00  0.00    +0.130 C 
BRANCH  27  28
ATOM     28  C   UNL     1      -1.435   0.956   4.296  0.00  0.00    +0.356 C 
ATOM     29  O   UNL     1      -0.379   1.262   4.824  0.00  0.00    -0.246 OA
ATOM     30  O   UNL     1      -2.491   1.233   4.839  0.00  0.00    -0.246 OA
ENDBRANCH  27  28
ENDBRANCH  26  27
ENDBRANCH  25  26
ENDBRANCH  17  21
ENDBRANCH   1  17
TORSDOF 8
