REMARK  Name = ZINC46791289
REMARK  9 active torsions:
REMARK  status: ('A' for Active; 'I' for Inactive)
REMARK    1  A    between atoms: C_1  and  C_2
REMARK    2  A    between atoms: C_7  and  C_10
REMARK    3  A    between atoms: C_14  and  C_17
REMARK    4  A    between atoms: C_17  and  N_18
REMARK    5  A    between atoms: C_19  and  C_21
REMARK    6  A    between atoms: C_22  and  C_23
REMARK    7  A    between atoms: C_26  and  S_29
REMARK    8  A    between atoms: S_29  and  N_32
REMARK    9  A    between atoms: N_32  and  C_33
REMARK                            x       y       z     vdW  Elec       q    Type
REMARK                         _______ _______ _______ _____ _____    ______ ____
ROOT
ATOM      1  N   UNL     1      -3.369  -5.796  -4.369  0.00  0.00    -0.308 N 
ATOM      2  C   UNL     1      -3.827  -6.645  -5.310  0.00  0.00    +0.237 C 
ATOM      3  O   UNL     1      -4.918  -7.168  -5.179  0.00  0.00    -0.271 OA
ATOM      4  H   UNL     1      -2.500  -5.378  -4.474  0.00  0.00    +0.149 HD
ENDROOT
BRANCH   2   5
ATOM      5  C   UNL     1      -3.012  -6.938  -6.491  0.00  0.00    +0.068 C 
ATOM      6  C   UNL     1      -3.470  -7.787  -7.433  0.00  0.00    +0.013 C 
BRANCH   6   7
ATOM      7  C   UNL     1      -2.651  -8.081  -8.620  0.00  0.00    -0.025 A 
ATOM      8  C   UNL     1      -1.395  -7.486  -8.771  0.00  0.00    +0.010 A 
ATOM      9  C   UNL     1      -0.633  -7.767  -9.886  0.00  0.00    +0.029 A 
ATOM     10  C   UNL     1      -1.109  -8.635 -10.853  0.00  0.00    +0.105 A 
ATOM     11  C   UNL     1      -2.352  -9.228 -10.710  0.00  0.00    +0.029 A 
ATOM     12  C   UNL     1      -3.122  -8.961  -9.598  0.00  0.00    +0.010 A 
BRANCH  10  13
ATOM     13  S   UNL     1      -0.129  -8.986 -12.275  0.00  0.00    +0.059 S 
ATOM     14  O   UNL     1      -1.026  -9.402 -13.294  0.00  0.00    -0.153 OA
ATOM     15  O   UNL     1       0.756  -7.886 -12.440  0.00  0.00    -0.153 OA
BRANCH  13  16
ATOM     16  N   UNL     1       0.812 -10.299 -11.908  0.00  0.00    -0.187 NA
ATOM     17  H   UNL     1       1.777 -10.207 -11.863  0.00  0.00    +0.148 HD
BRANCH  16  18
ATOM     18  C   UNL     1       0.187 -11.599 -11.651  0.00  0.00    +0.077 C 
ATOM     19  C   UNL     1       0.856 -12.513 -10.622  0.00  0.00    +0.022 C 
ATOM     20  C   UNL     1       0.940 -12.848 -12.112  0.00  0.00    +0.022 C 
ENDBRANCH  16  18
ENDBRANCH  13  16
ENDBRANCH  10  13
ENDBRANCH   6   7
ENDBRANCH   2   5
BRANCH   1  21
ATOM     21  C   UNL     1      -4.185  -5.503  -3.188  0.00  0.00    +0.141 C 
BRANCH  21  33
ATOM     22  C   UNL     1      -0.045  -2.168   3.728  0.00  0.00    +0.039 C 
ATOM     23  C   UNL     1      -0.987  -1.773   2.589  0.00  0.00    +0.133 C 
ATOM     24  C   UNL     1      -0.596  -2.529   1.315  0.00  0.00    +0.137 C 
ATOM     25  N   UNL     1      -1.389  -1.995   0.196  0.00  0.00    -0.312 N 
ATOM     26  C   UNL     1      -1.418  -0.537   0.002  0.00  0.00    +0.137 C 
ATOM     27  C   UNL     1      -1.770   0.122   1.341  0.00  0.00    +0.133 C 
ATOM     28  O   UNL     1      -0.886  -0.366   2.353  0.00  0.00    -0.371 OA
ATOM     29  C   UNL     1      -3.214  -0.218   1.714  0.00  0.00    +0.039 C 
ATOM     30  C   UNL     1      -2.091  -2.844  -0.652  0.00  0.00    +0.099 A 
ATOM     31  C   UNL     1      -2.927  -2.308  -1.627  0.00  0.00    +0.042 A 
ATOM     32  C   UNL     1      -3.619  -3.164  -2.464  0.00  0.00    +0.010 A 
ATOM     33  C   UNL     1      -3.451  -4.533  -2.299  0.00  0.00    -0.014 A 
ATOM     34  C   UNL     1      -2.604  -4.995  -1.311  0.00  0.00    +0.089 A 
ATOM     35  N   UNL     1      -1.953  -4.155  -0.530  0.00  0.00    -0.349 N 
ATOM     36  H   UNL     1      -1.361  -4.507   0.154  0.00  0.00    +0.167 HD
ENDBRANCH  21  33
ENDBRANCH   1  21
TORSDOF 7
