REMARK  Name = ZINC40978827
REMARK  12 active torsions:
REMARK  status: ('A' for Active; 'I' for Inactive)
REMARK    1  A    between atoms: C_1  and  C_2
REMARK    2  A    between atoms: C_2  and  O_3
REMARK    3  A    between atoms: O_3  and  C_4
REMARK    4  A    between atoms: C_6  and  C_19
REMARK    5  A    between atoms: C_9  and  O_10
REMARK    6  A    between atoms: O_10  and  C_11
REMARK    7  A    between atoms: C_11  and  C_12
REMARK    8  A    between atoms: C_21  and  C_30
REMARK    9  A    between atoms: C_22  and  C_29
REMARK   10  A    between atoms: C_30  and  O_32
REMARK   11  A    between atoms: O_32  and  C_33
REMARK   12  A    between atoms: C_33  and  C_34
REMARK                            x       y       z     vdW  Elec       q    Type
REMARK                         _______ _______ _______ _____ _____    ______ ____
ROOT
ATOM      1  C   UNL     1      -1.273  -1.762  -0.078  0.00  0.00    +0.162 A 
ATOM      2  C   UNL     1      -0.213  -2.647   0.034  0.00  0.00    +0.055 A 
ATOM      3  C   UNL     1      -0.437  -4.009  -0.046  0.00  0.00    -0.015 A 
ATOM      4  C   UNL     1      -1.718  -4.491  -0.239  0.00  0.00    +0.010 A 
ATOM      5  C   UNL     1      -2.781  -3.614  -0.352  0.00  0.00    +0.050 A 
ATOM      6  C   UNL     1      -2.564  -2.248  -0.267  0.00  0.00    +0.162 A 
ENDROOT
BRANCH   3   7
ATOM      7  C   UNL     1       0.718  -4.969   0.077  0.00  0.00    +0.181 C 
ATOM      8  C   UNL     1       0.822  -5.792  -1.180  0.00  0.00    +0.082 C 
ATOM      9  C   UNL     1       0.492  -7.092  -1.235  0.00  0.00    +0.020 C 
ATOM     10  N   UNL     1       0.041  -7.781  -0.137  0.00  0.00    -0.286 N 
ATOM     11  C   UNL     1       0.176  -7.167   1.101  0.00  0.00    +0.240 A 
ATOM     12  N   UNL     1       0.497  -5.852   1.216  0.00  0.00    -0.201 N 
ATOM     13  N   UNL     1       0.551  -5.598   2.585  0.00  0.00    -0.042 NA
ATOM     14  N   UNL     1       0.269  -6.714   3.177  0.00  0.00    -0.021 NA
ATOM     15  N   UNL     1       0.046  -7.640   2.307  0.00  0.00    -0.092 NA
ATOM     16  C   UNL     1       0.621  -7.821  -2.548  0.00  0.00    +0.061 C 
ATOM     17  H   UNL     1      -0.357  -8.661  -0.222  0.00  0.00    +0.155 HD
BRANCH   8  18
ATOM     18  C   UNL     1       1.289  -5.166  -2.358  0.00  0.00    +0.339 C 
ATOM     19  O   UNL     1       2.484  -5.012  -2.532  0.00  0.00    -0.245 OA
BRANCH  18  20
ATOM     20  O   UNL     1       0.411  -4.740  -3.289  0.00  0.00    -0.457 OA
BRANCH  20  21
ATOM     21  C   UNL     1       0.953  -4.116  -4.455  0.00  0.00    +0.259 C 
BRANCH  21  22
ATOM     22  C   UNL     1      -0.169  -3.708  -5.375  0.00  0.00    +0.006 C 
ATOM     23  C   UNL     1      -0.162  -2.523  -5.931  0.00  0.00    +0.007 C 
ENDBRANCH  21  22
ENDBRANCH  20  21
ENDBRANCH  18  20
ENDBRANCH   8  18
ENDBRANCH   3   7
BRANCH   1  24
ATOM     24  O   UNL     1      -1.055  -0.422   0.001  0.00  0.00    -0.489 OA
BRANCH  24  26
ATOM     25  C   UNL     1       0.343   1.532   0.258  0.00  0.00    +0.048 C 
ATOM     26  C   UNL     1       0.295   0.004   0.195  0.00  0.00    +0.226 C 
ENDBRANCH  24  26
ENDBRANCH   1  24
BRANCH   6  27
ATOM     27  O   UNL     1      -3.609  -1.384  -0.372  0.00  0.00    -0.484 OA
BRANCH  27  28
ATOM     28  C   UNL     1      -4.905  -1.954  -0.565  0.00  0.00    +0.266 C 
BRANCH  28  29
ATOM     29  C   UNL     1      -5.929  -0.853  -0.658  0.00  0.00    +0.008 A 
ATOM     30  C   UNL     1      -5.534   0.468  -0.563  0.00  0.00    +0.008 A 
ATOM     31  C   UNL     1      -6.473   1.479  -0.649  0.00  0.00    +0.000 A 
ATOM     32  C   UNL     1      -7.808   1.169  -0.831  0.00  0.00    +0.001 A 
ATOM     33  C   UNL     1      -8.204  -0.152  -0.927  0.00  0.00    +0.020 A 
ATOM     34  C   UNL     1      -7.264  -1.164  -0.846  0.00  0.00    +0.047 A 
ATOM     35 CL   UNL     1      -7.760  -2.822  -0.973  0.00  0.00    -0.083 Cl
ENDBRANCH  28  29
ENDBRANCH  27  28
ENDBRANCH   6  27
TORSDOF 10
