REMARK  Name = ZINC43736990
REMARK  6 active torsions:
REMARK  status: ('A' for Active; 'I' for Inactive)
REMARK    1  A    between atoms: C_1  and  C_2
REMARK    2  A    between atoms: N_6  and  N_7
REMARK    3  A    between atoms: N_7  and  C_8
REMARK    4  A    between atoms: C_8  and  N_10
REMARK    5  A    between atoms: C_22  and  C_30
REMARK    6  A    between atoms: C_27  and  O_29
REMARK                            x       y       z     vdW  Elec       q    Type
REMARK                         _______ _______ _______ _____ _____    ______ ____
ROOT
ATOM      1  C   UNL     1      -0.017   1.536   0.014  0.00  0.00    +0.012 C 
ATOM      2  C   UNL     1       0.016   0.006  -0.021  0.00  0.00    -0.025 C 
ATOM      3  C   UNL     1       0.735  -0.461  -1.290  0.00  0.00    +0.013 C 
ATOM      4  C   UNL     1       2.145   0.135  -1.333  0.00  0.00    +0.053 C 
ATOM      5  C   UNL     1       2.858  -0.234  -0.051  0.00  0.00    +0.037 C 
ATOM      6  N   UNL     1       4.014  -0.783  -0.075  0.00  0.00    -0.190 NA
ATOM      7  C   UNL     1       2.166   0.065   1.259  0.00  0.00    +0.056 C 
ATOM      8  C   UNL     1       0.750  -0.517   1.214  0.00  0.00    +0.001 C 
ATOM      9  C   UNL     1       0.006  -0.086   2.481  0.00  0.00    +0.005 C 
ATOM     10  C   UNL     1      -1.420  -0.636   2.456  0.00  0.00    +0.004 C 
ATOM     11  C   UNL     1      -2.152  -0.081   1.232  0.00  0.00    -0.004 C 
ATOM     12  C   UNL     1      -1.415  -0.535  -0.037  0.00  0.00    -0.001 C 
ATOM     13  C   UNL     1      -2.134  -0.066  -1.297  0.00  0.00    +0.005 C 
ATOM     14  C   UNL     1      -3.603  -0.522  -1.308  0.00  0.00    +0.010 C 
ATOM     15  C   UNL     1      -4.254   0.024  -0.052  0.00  0.00    -0.003 C 
ATOM     16  C   UNL     1      -3.564  -0.633   1.169  0.00  0.00    +0.001 C 
ATOM     17  C   UNL     1      -4.493  -0.227   2.318  0.00  0.00    +0.007 C 
ATOM     18  C   UNL     1      -5.907  -0.407   1.701  0.00  0.00    +0.032 C 
ATOM     19  C   UNL     1      -5.726  -0.318   0.156  0.00  0.00    +0.121 C 
ATOM     20  C   UNL     1      -4.061   1.540   0.013  0.00  0.00    +0.014 C 
ENDROOT
BRANCH   6  21
ATOM     21  N   UNL     1       4.710  -1.002   1.121  0.00  0.00    -0.219 N 
ATOM     22  H   UNL     1       4.289  -0.801   1.971  0.00  0.00    +0.176 HD
BRANCH  21  23
ATOM     23  C   UNL     1       5.966  -1.490   1.089  0.00  0.00    +0.147 C 
ATOM     24  S   UNL     1       6.818  -1.756   2.550  0.00  0.00    -0.017 S 
BRANCH  23  25
ATOM     25  N   UNL     1       6.552  -1.768  -0.092  0.00  0.00    -0.339 N 
ATOM     26  H   UNL     1       6.069  -1.617  -0.920  0.00  0.00    +0.144 HD
ATOM     27  H   UNL     1       7.456  -2.119  -0.115  0.00  0.00    +0.144 HD
ENDBRANCH  23  25
ENDBRANCH  21  23
ENDBRANCH   6  21
BRANCH  19  28
ATOM     28  O   UNL     1      -6.043  -1.555  -0.484  0.00  0.00    -0.391 OA
ATOM     29  H   UNL     1      -6.966  -1.824  -0.386  0.00  0.00    +0.210 HD
ENDBRANCH  19  28
TORSDOF 4
