REMARK  Name = ZINC35991355
REMARK  14 active torsions:
REMARK  status: ('A' for Active; 'I' for Inactive)
REMARK    1  A    between atoms: C_1  and  C_2
REMARK    2  A    between atoms: C_2  and  N_3
REMARK    3  A    between atoms: C_4  and  C_24
REMARK    4  A    between atoms: C_5  and  C_19
REMARK    5  A    between atoms: C_6  and  C_11
REMARK    6  A    between atoms: C_15  and  O_17
REMARK    7  A    between atoms: O_17  and  C_18
REMARK    8  A    between atoms: C_19  and  O_21
REMARK    9  A    between atoms: O_21  and  C_22
REMARK   10  A    between atoms: C_22  and  C_23
REMARK   11  A    between atoms: C_24  and  N_25
REMARK   12  A    between atoms: N_25  and  C_26
REMARK   13  A    between atoms: N_25  and  C_27
REMARK   14  A    between atoms: C_27  and  C_28
REMARK                            x       y       z     vdW  Elec       q    Type
REMARK                         _______ _______ _______ _____ _____    ______ ____
ROOT
ATOM      1  N   UNL     1       0.716  -0.349  -1.465  0.00  0.00    -0.261 N 
ATOM      2  C   UNL     1      -0.193  -0.878  -2.336  0.00  0.00    +0.010 C 
ATOM      3  C   UNL     1       0.203  -1.617  -3.394  0.00  0.00    +0.076 C 
ATOM      4  C   UNL     1       1.690  -1.839  -3.583  0.00  0.00    +0.144 C 
ATOM      5  N   UNL     1       2.587  -1.225  -2.589  0.00  0.00    -0.288 N 
ATOM      6  C   UNL     1       2.040  -0.509  -1.587  0.00  0.00    +0.307 C 
ATOM      7  O   UNL     1       2.772   0.005  -0.764  0.00  0.00    -0.252 OA
ATOM      8  H   UNL     1       3.549  -1.331  -2.656  0.00  0.00    +0.151 HD
ENDROOT
BRANCH   4   9
ATOM      9  C   UNL     1       2.070  -1.308  -4.941  0.00  0.00    -0.019 A 
ATOM     10  C   UNL     1       2.270   0.048  -5.122  0.00  0.00    +0.006 A 
ATOM     11  C   UNL     1       2.619   0.538  -6.367  0.00  0.00    +0.004 A 
ATOM     12  C   UNL     1       2.768  -0.327  -7.434  0.00  0.00    +0.045 A 
ATOM     13  C   UNL     1       2.568  -1.688  -7.255  0.00  0.00    +0.120 A 
ATOM     14  C   UNL     1       2.224  -2.178  -6.003  0.00  0.00    +0.051 A 
BRANCH  13  15
ATOM     15  O   UNL     1       2.715  -2.541  -8.303  0.00  0.00    -0.495 OA
ATOM     16  C   UNL     1       3.076  -1.967  -9.561  0.00  0.00    +0.277 C 
ENDBRANCH  13  15
ENDBRANCH   4   9
BRANCH   1  18
ATOM     17  C   UNL     1       0.103   1.910  -0.757  0.00  0.00    +0.025 C 
ATOM     18  C   UNL     1       0.216   0.443  -0.339  0.00  0.00    +0.111 C 
ENDBRANCH   1  18
BRANCH   3  19
ATOM     19  C   UNL     1      -0.738  -2.167  -4.296  0.00  0.00    +0.339 C 
ATOM     20  O   UNL     1      -1.921  -1.905  -4.176  0.00  0.00    -0.245 OA
BRANCH  19  21
ATOM     21  O   UNL     1      -0.325  -2.982  -5.289  0.00  0.00    -0.462 OA
BRANCH  21  22
ATOM     22  C   UNL     1      -1.330  -3.501  -6.162  0.00  0.00    +0.229 C 
ATOM     23  C   UNL     1      -0.676  -4.397  -7.216  0.00  0.00    +0.048 C 
ENDBRANCH  21  22
ENDBRANCH  19  21
ENDBRANCH   3  19
BRANCH   2  24
ATOM     24  C   UNL     1      -1.663  -0.634  -2.111  0.00  0.00    -0.026 C 
BRANCH  24  25
ATOM     25  N   UNL     1      -2.265  -1.815  -1.478  0.00  0.00    +0.384 N 
ATOM     26  C   UNL     1      -1.710  -1.984  -0.129  0.00  0.00    -0.095 C 
ATOM     27  H   UNL     1      -2.061  -2.634  -2.031  0.00  0.00    -0.081 HD
BRANCH  25  28
ATOM     28  C   UNL     1      -3.720  -1.635  -1.390  0.00  0.00    -0.043 C 
BRANCH  28  29
ATOM     29  C   UNL     1      -4.351  -2.895  -0.854  0.00  0.00    -0.064 A 
ATOM     30  C   UNL     1      -4.754  -3.890  -1.724  0.00  0.00    +0.002 A 
ATOM     31  C   UNL     1      -5.332  -5.045  -1.233  0.00  0.00    +0.000 A 
ATOM     32  C   UNL     1      -5.506  -5.206   0.129  0.00  0.00    +0.000 A 
ATOM     33  C   UNL     1      -5.103  -4.211   0.999  0.00  0.00    +0.000 A 
ATOM     34  C   UNL     1      -4.521  -3.057   0.508  0.00  0.00    +0.002 A 
ENDBRANCH  28  29
ENDBRANCH  25  28
ENDBRANCH  24  25
ENDBRANCH   2  24
TORSDOF 10
