REMARK  Name = ZINC38890377
REMARK  13 active torsions:
REMARK  status: ('A' for Active; 'I' for Inactive)
REMARK    1  A    between atoms: C_1  and  C_2
REMARK    2  A    between atoms: C_7  and  C_14
REMARK    3  A    between atoms: C_14  and  N_15
REMARK    4  A    between atoms: N_15  and  C_16
REMARK    5  A    between atoms: C_21  and  O_22
REMARK    6  A    between atoms: O_22  and  C_23
REMARK    7  A    between atoms: C_24  and  C_26
REMARK    8  A    between atoms: C_28  and  O_36
REMARK    9  A    between atoms: C_29  and  O_34
REMARK   10  A    between atoms: C_30  and  O_32
REMARK   11  A    between atoms: O_32  and  C_33
REMARK   12  A    between atoms: O_34  and  C_35
REMARK   13  A    between atoms: O_36  and  C_37
REMARK                            x       y       z     vdW  Elec       q    Type
REMARK                         _______ _______ _______ _____ _____    ______ ____
ROOT
ATOM      1  N   UNL     1       1.231  -6.406   2.256  0.00  0.00    -0.263 N 
ATOM      2  C   UNL     1       1.802  -6.061   3.428  0.00  0.00    +0.251 C 
ATOM      3  O   UNL     1       2.461  -5.042   3.506  0.00  0.00    -0.270 OA
ENDROOT
BRANCH   1   4
ATOM      4  C   UNL     1       0.407  -7.536   2.185  0.00  0.00    +0.078 A 
ATOM      5  C   UNL     1       0.895  -8.721   1.653  0.00  0.00    +0.027 A 
ATOM      6  C   UNL     1       0.081  -9.835   1.584  0.00  0.00    +0.002 A 
ATOM      7  C   UNL     1      -1.222  -9.772   2.043  0.00  0.00    +0.004 A 
ATOM      8  C   UNL     1      -1.716  -8.595   2.575  0.00  0.00    +0.047 A 
ATOM      9  C   UNL     1      -0.904  -7.475   2.653  0.00  0.00    +0.141 A 
BRANCH   9  10
ATOM     10  O   UNL     1      -1.386  -6.319   3.180  0.00  0.00    -0.493 OA
ATOM     11  C   UNL     1      -2.739  -6.330   3.640  0.00  0.00    +0.277 C 
ENDBRANCH   9  10
ENDBRANCH   1   4
BRANCH   2  12
ATOM     12  C   UNL     1       1.627  -6.920   4.615  0.00  0.00    +0.044 A 
ATOM     13  C   UNL     1       1.352  -6.348   5.859  0.00  0.00    +0.062 A 
ATOM     14  C   UNL     1       1.188  -7.155   6.969  0.00  0.00    +0.166 A 
ATOM     15  C   UNL     1       1.299  -8.537   6.848  0.00  0.00    +0.204 A 
ATOM     16  C   UNL     1       1.574  -9.111   5.610  0.00  0.00    +0.166 A 
ATOM     17  C   UNL     1       1.732  -8.309   4.495  0.00  0.00    +0.062 A 
BRANCH  16  18
ATOM     18  O   UNL     1       1.682 -10.462   5.495  0.00  0.00    -0.491 OA
ATOM     19  C   UNL     1       2.061 -10.976   4.217  0.00  0.00    +0.277 C 
ENDBRANCH  16  18
BRANCH  15  20
ATOM     20  O   UNL     1       1.138  -9.329   7.941  0.00  0.00    -0.488 OA
ATOM     21  C   UNL     1      -0.187  -9.785   8.223  0.00  0.00    +0.277 C 
ENDBRANCH  15  20
BRANCH  14  22
ATOM     22  O   UNL     1       0.920  -6.598   8.180  0.00  0.00    -0.491 OA
ATOM     23  C   UNL     1       0.934  -5.171   8.256  0.00  0.00    +0.277 C 
ENDBRANCH  14  22
ENDBRANCH   2  12
BRANCH   1  24
ATOM     24  C   UNL     1       1.473  -5.598   1.058  0.00  0.00    +0.131 C 
BRANCH  24  31
ATOM     25  C   UNL     1       1.557   1.808  -0.098  0.00  0.00    +0.044 C 
ATOM     26  C   UNL     1       1.306   0.324  -0.150  0.00  0.00    -0.049 A 
ATOM     27  C   UNL     1       1.277  -0.307  -1.395  0.00  0.00    +0.004 A 
ATOM     28  C   UNL     1       1.055  -1.642  -1.506  0.00  0.00    +0.010 A 
ATOM     29  C   UNL     1       0.844  -2.426  -0.289  0.00  0.00    -0.007 A 
ATOM     30  C   UNL     1       0.618  -3.769  -0.352  0.00  0.00    -0.003 C 
ATOM     31  C   UNL     1       0.410  -4.502   0.960  0.00  0.00    +0.116 C 
ATOM     32  C   UNL     1       0.470  -3.683   2.230  0.00  0.00    +0.226 C 
ATOM     33  O   UNL     1       0.311  -4.220   3.310  0.00  0.00    -0.275 OA
ATOM     34  N   UNL     1       0.697  -2.382   2.162  0.00  0.00    -0.284 N 
ATOM     35  C   UNL     1       0.880  -1.734   1.012  0.00  0.00    +0.041 A 
ATOM     36  C   UNL     1       1.122  -0.348   1.016  0.00  0.00    +0.027 A 
ATOM     37  H   UNL     1       0.732  -1.876   2.988  0.00  0.00    +0.155 HD
ENDBRANCH  24  31
ENDBRANCH   1  24
TORSDOF 8
