REMARK  Name = ZINC39467296
REMARK  7 active torsions:
REMARK  status: ('A' for Active; 'I' for Inactive)
REMARK    1  A    between atoms: C_1  and  S_2
REMARK    2  A    between atoms: S_2  and  C_3
REMARK    3  A    between atoms: P_12  and  C_31
REMARK    4  A    between atoms: C_20  and  S_21
REMARK    5  A    between atoms: S_21  and  O_24
REMARK    6  A    between atoms: O_24  and  C_25
REMARK    7  A    between atoms: C_36  and  O_37
REMARK                            x       y       z     vdW  Elec       q    Type
REMARK                         _______ _______ _______ _____ _____    ______ ____
ROOT
ATOM      1  C   UNL     1       0.877  -0.427   1.472  0.00  0.00    +0.032 C 
ATOM      2  C   UNL     1       1.335   0.533   2.287  0.00  0.00    -0.006 C 
ATOM      3  C   UNL     1       2.090   0.148   3.530  0.00  0.00    +0.017 C 
ATOM      4  C   UNL     1       2.982   1.292   3.993  0.00  0.00    -0.003 C 
ATOM      5  C   UNL     1       4.078   1.580   2.959  0.00  0.00    -0.020 C 
ATOM      6  C   UNL     1       4.939   2.719   3.520  0.00  0.00    +0.157 C 
ATOM      7  O   UNL     1       5.960   3.065   2.568  0.00  0.00    -0.316 OA
ATOM      8  P   UNL     1       6.863   1.858   1.956  0.00  0.00    +0.291 P 
ATOM      9  O   UNL     1       7.928   1.479   2.911  0.00  0.00    -0.269 OA
ATOM     10  N   UNL     1       5.816   0.601   1.740  0.00  0.00    -0.288 NA
ATOM     11  N   UNL     1       4.875   0.374   2.723  0.00  0.00    +0.398 N 
ATOM     12  C   UNL     1       4.022  -0.715   2.221  0.00  0.00    -0.046 C 
ATOM     13  C   UNL     1       2.964  -1.075   3.239  0.00  0.00    +0.006 C 
ATOM     14  C   UNL     1       2.099  -2.163   2.649  0.00  0.00    +0.007 C 
ATOM     15  C   UNL     1       1.107  -1.843   1.822  0.00  0.00    +0.137 C 
ATOM     16  H   UNL     1       5.862   0.041   0.949  0.00  0.00    +0.111 HD
ATOM     17  H   UNL     1       5.334   0.096   3.578  0.00  0.00    -0.055 HD
ENDROOT
BRANCH   8  18
ATOM     18  C   UNL     1       7.590   2.356   0.370  0.00  0.00    +0.091 A 
ATOM     19  C   UNL     1       6.905   2.125  -0.807  0.00  0.00    +0.018 A 
ATOM     20  C   UNL     1       7.458   2.504  -2.016  0.00  0.00    +0.001 A 
ATOM     21  C   UNL     1       8.698   3.116  -2.050  0.00  0.00    +0.004 A 
ATOM     22  C   UNL     1       9.386   3.350  -0.875  0.00  0.00    +0.046 A 
ATOM     23  C   UNL     1       8.831   2.975   0.340  0.00  0.00    +0.131 A 
BRANCH  23  24
ATOM     24  O   UNL     1       9.503   3.210   1.497  0.00  0.00    -0.506 OA
ATOM     25  H   UNL     1      10.090   2.489   1.764  0.00  0.00    +0.292 HD
ENDBRANCH  23  24
ENDBRANCH   8  18
BRANCH  15  26
ATOM     26  S   UNL     1       0.077  -3.100   1.142  0.00  0.00    +0.152 S 
ATOM     27  O   UNL     1      -0.082  -2.794  -0.236  0.00  0.00    -0.131 OA
ATOM     28  O   UNL     1       0.602  -4.342   1.591  0.00  0.00    -0.131 OA
BRANCH  26  29
ATOM     29  O   UNL     1      -1.296  -2.952   1.782  0.00  0.00    -0.342 OA
BRANCH  29  30
ATOM     30  C   UNL     1      -2.017  -1.903   1.307  0.00  0.00    +0.157 A 
ATOM     31  C   UNL     1      -1.910  -0.657   1.907  0.00  0.00    +0.048 A 
ATOM     32  C   UNL     1      -2.644   0.408   1.422  0.00  0.00    +0.004 A 
ATOM     33  C   UNL     1      -3.485   0.233   0.339  0.00  0.00    +0.000 A 
ATOM     34  C   UNL     1      -3.594  -1.008  -0.262  0.00  0.00    +0.004 A 
ATOM     35  C   UNL     1      -2.857  -2.075   0.216  0.00  0.00    +0.048 A 
ENDBRANCH  29  30
ENDBRANCH  26  29
ENDBRANCH  15  26
BRANCH   1  37
ATOM     36  C   UNL     1      -0.022   1.810   0.012  0.00  0.00    +0.090 C 
ATOM     37  S   UNL     1       0.002  -0.004   0.002  0.00  0.00    -0.127 S 
ENDBRANCH   1  37
TORSDOF 6
