REMARK  Name = ZINC63490618
REMARK  9 active torsions:
REMARK  status: ('A' for Active; 'I' for Inactive)
REMARK    1  A    between atoms: C_1  and  C_2
REMARK    2  A    between atoms: C_7  and  N_12
REMARK    3  A    between atoms: C_9  and  C_11
REMARK    4  A    between atoms: C_13  and  C_15
REMARK    5  A    between atoms: C_15  and  C_16
REMARK    6  A    between atoms: C_16  and  C_17
REMARK    7  A    between atoms: C_17  and  N_18
REMARK    8  A    between atoms: C_26  and  O_33
REMARK    9  A    between atoms: O_33  and  C_34
REMARK                            x       y       z     vdW  Elec       q    Type
REMARK                         _______ _______ _______ _____ _____    ______ ____
ROOT
ATOM      1  N   UNL     1       1.553   0.988   9.621  0.00  0.00    -0.247 N 
ATOM      2  C   UNL     1       2.366   2.048   9.835  0.00  0.00    +0.272 C 
ATOM      3  O   UNL     1       3.316   2.273   9.109  0.00  0.00    -0.268 OA
ATOM      4  C   UNL     1       2.055   2.920  10.983  0.00  0.00    +0.150 C 
ATOM      5  N   UNL     1       2.583   3.996  11.496  0.00  0.00    -0.240 NA
ATOM      6  C   UNL     1       1.921   4.443  12.582  0.00  0.00    +0.074 A 
ATOM      7  C   UNL     1       2.144   5.545  13.420  0.00  0.00    +0.032 A 
ATOM      8  C   UNL     1       1.303   5.787  14.487  0.00  0.00    +0.048 A 
ATOM      9  C   UNL     1       0.229   4.947  14.745  0.00  0.00    +0.121 A 
ATOM     10  C   UNL     1      -0.012   3.843  13.921  0.00  0.00    +0.057 A 
ATOM     11  C   UNL     1       0.822   3.590  12.851  0.00  0.00    +0.029 A 
ATOM     12  C   UNL     1       0.872   2.551  11.803  0.00  0.00    +0.095 C 
ATOM     13  N   UNL     1       0.178   1.497  11.477  0.00  0.00    -0.190 NA
ATOM     14  C   UNL     1       0.503   0.742  10.417  0.00  0.00    +0.164 C 
ATOM     15  S   UNL     1      -0.475  -0.619  10.066  0.00  0.00    -0.016 S 
ENDROOT
BRANCH   9  16
ATOM     16  O   UNL     1      -0.589   5.197  15.799  0.00  0.00    -0.495 OA
ATOM     17  C   UNL     1      -0.284   6.341  16.599  0.00  0.00    +0.277 C 
ENDBRANCH   9  16
BRANCH   1  18
ATOM     18  C   UNL     1       1.822   0.094   8.492  0.00  0.00    +0.116 C 
BRANCH  18  19
ATOM     19  C   UNL     1       1.082   0.601   7.253  0.00  0.00    +0.029 C 
BRANCH  19  20
ATOM     20  C   UNL     1       1.363  -0.333   6.074  0.00  0.00    +0.097 C 
BRANCH  20  22
ATOM     21  N   UNL     1       0.735  -0.503   3.687  0.00  0.00    -0.312 N 
ATOM     22  C   UNL     1       0.634   0.166   4.853  0.00  0.00    +0.213 C 
ATOM     23  O   UNL     1      -0.044   1.170   4.919  0.00  0.00    -0.276 OA
ATOM     24  H   UNL     1       1.276  -1.306   3.634  0.00  0.00    +0.149 HD
BRANCH  21  30
ATOM     25  C   UNL     1      -0.019   1.526   0.010  0.00  0.00    +0.008 C 
ATOM     26  C   UNL     1       0.002  -0.004   0.002  0.00  0.00    -0.009 C 
ATOM     27  C   UNL     1      -1.433  -0.534   0.013  0.00  0.00    +0.003 C 
ATOM     28  C   UNL     1      -2.149  -0.040   1.272  0.00  0.00    +0.002 C 
ATOM     29  C   UNL     1      -1.409  -0.547   2.511  0.00  0.00    +0.022 C 
ATOM     30  C   UNL     1       0.026  -0.018   2.500  0.00  0.00    +0.076 C 
ATOM     31  C   UNL     1       0.742  -0.511   1.242  0.00  0.00    +0.009 C 
ATOM     32  C   UNL     1       2.178   0.019   1.231  0.00  0.00    +0.009 C 
ENDBRANCH  21  30
ENDBRANCH  20  22
ENDBRANCH  19  20
ENDBRANCH  18  19
ENDBRANCH   1  18
TORSDOF 6
