REMARK  Name = ZINC10242671
REMARK  11 active torsions:
REMARK  status: ('A' for Active; 'I' for Inactive)
REMARK    1  A    between atoms: C_1  and  C_2
REMARK    2  A    between atoms: C_5  and  N_11
REMARK    3  A    between atoms: C_6  and  N_8
REMARK    4  A    between atoms: C_12  and  C_14
REMARK    5  A    between atoms: C_14  and  C_16
REMARK    6  A    between atoms: C_14  and  O_22
REMARK    7  A    between atoms: O_22  and  C_23
REMARK    8  A    between atoms: C_23  and  C_25
REMARK    9  A    between atoms: C_27  and  S_32
REMARK   10  A    between atoms: C_30  and  C_31
REMARK   11  A    between atoms: S_32  and  C_35
REMARK                            x       y       z     vdW  Elec       q    Type
REMARK                         _______ _______ _______ _____ _____    ______ ____
ROOT
ATOM      1  C   UNL     1      -0.582   0.212  -4.860  0.00  0.00    +0.292 C 
ENDROOT
BRANCH   1   2
ATOM      2  C   UNL     1       0.790   0.327  -5.472  0.00  0.00    +0.002 A 
ATOM      3  C   UNL     1       1.658  -0.749  -5.431  0.00  0.00    +0.008 A 
ATOM      4  C   UNL     1       2.915  -0.645  -5.997  0.00  0.00    +0.000 A 
ATOM      5  C   UNL     1       3.308   0.537  -6.596  0.00  0.00    +0.000 A 
ATOM      6  C   UNL     1       2.442   1.614  -6.633  0.00  0.00    +0.000 A 
ATOM      7  C   UNL     1       1.183   1.509  -6.071  0.00  0.00    +0.008 A 
ENDBRANCH   1   2
BRANCH   1   9
ATOM      8  N   UNL     1      -1.731  -0.000  -7.040  0.00  0.00    -0.280 N 
ATOM      9  C   UNL     1      -1.499  -0.509  -5.813  0.00  0.00    +0.263 C 
ATOM     10  O   UNL     1      -2.028  -1.547  -5.477  0.00  0.00    -0.271 OA
ATOM     11  H   UNL     1      -1.249   0.787  -7.337  0.00  0.00    +0.155 HD
BRANCH   8  16
ATOM     12  C   UNL     1      -5.532  -2.462 -10.458  0.00  0.00    +0.044 C 
ATOM     13  C   UNL     1      -4.522  -1.808  -9.550  0.00  0.00    -0.048 A 
ATOM     14  C   UNL     1      -3.695  -2.588  -8.763  0.00  0.00    +0.005 A 
ATOM     15  C   UNL     1      -2.768  -1.992  -7.930  0.00  0.00    +0.026 A 
ATOM     16  C   UNL     1      -2.668  -0.607  -7.883  0.00  0.00    +0.064 A 
ATOM     17  C   UNL     1      -3.504   0.173  -8.671  0.00  0.00    +0.148 A 
ATOM     18  C   UNL     1      -4.425  -0.429  -9.506  0.00  0.00    +0.038 A 
BRANCH  17  19
ATOM     19  N   UNL     1      -3.405   1.649  -8.620  0.00  0.00    +0.058 N 
ATOM     20  O   UNL     1      -4.185   2.334  -9.256  0.00  0.00    -0.126 OA
ATOM     21  O   UNL     1      -2.543   2.178  -7.941  0.00  0.00    -0.126 OA
ENDBRANCH  17  19
ENDBRANCH   8  16
ENDBRANCH   1   9
BRANCH   1  22
ATOM     22  O   UNL     1      -0.496  -0.531  -3.615  0.00  0.00    -0.444 OA
BRANCH  22  23
ATOM     23  C   UNL     1      -0.278   0.180  -2.492  0.00  0.00    +0.341 C 
ATOM     24  O   UNL     1      -0.162   1.387  -2.550  0.00  0.00    -0.245 OA
BRANCH  23  25
ATOM     25  C   UNL     1      -0.178  -0.510  -1.189  0.00  0.00    +0.064 A 
ATOM     26  C   UNL     1      -0.170  -1.905  -1.133  0.00  0.00    +0.042 A 
ATOM     27  C   UNL     1      -0.084  -2.542   0.087  0.00  0.00    +0.089 A 
ATOM     28  C   UNL     1       0.000  -1.802   1.254  0.00  0.00    +0.027 A 
ATOM     29  C   UNL     1      -0.001  -0.419   1.204  0.00  0.00    +0.006 A 
ATOM     30  C   UNL     1      -0.087   0.231  -0.009  0.00  0.00    -0.036 A 
ATOM     31  C   UNL     1      -0.089   1.737  -0.061  0.00  0.00    +0.044 C 
BRANCH  27  32
ATOM     32  S   UNL     1      -0.080  -4.303   0.161  0.00  0.00    -0.006 S 
ATOM     33  O   UNL     1       0.434  -4.717  -1.097  0.00  0.00    -0.170 OA
ATOM     34  O   UNL     1       0.610  -4.614   1.364  0.00  0.00    -0.170 OA
ATOM     35  C   UNL     1      -1.828  -4.767   0.306  0.00  0.00    +0.200 C 
ENDBRANCH  27  32
ENDBRANCH  23  25
ENDBRANCH  22  23
ENDBRANCH   1  22
TORSDOF 8
