REMARK  Name = ZINC51097693
REMARK  7 active torsions:
REMARK  status: ('A' for Active; 'I' for Inactive)
REMARK    1  A    between atoms: C_1  and  C_2
REMARK    2  A    between atoms: C_5  and  C_7
REMARK    3  A    between atoms: N_9  and  C_10
REMARK    4  A    between atoms: N_13  and  C_16
REMARK    5  A    between atoms: C_16  and  C_17
REMARK    6  A    between atoms: N_19  and  C_20
REMARK    7  A    between atoms: C_20  and  C_21
REMARK                            x       y       z     vdW  Elec       q    Type
REMARK                         _______ _______ _______ _____ _____    ______ ____
ROOT
ATOM      1  C   UNL     1       3.902  -4.161  -0.041  0.00  0.00    +0.070 C 
ATOM      2  C   UNL     1       4.138  -4.641   1.394  0.00  0.00    +0.004 C 
ATOM      3  C   UNL     1       5.153  -5.786   1.383  0.00  0.00    -0.076 C 
ATOM      4  N   UNL     1       6.419  -5.316   0.808  0.00  0.00    +0.385 N 
ATOM      5  C   UNL     1       6.215  -4.921  -0.591  0.00  0.00    -0.076 C 
ATOM      6  C   UNL     1       5.241  -3.743  -0.655  0.00  0.00    +0.004 C 
ATOM      7  H   UNL     1       6.753  -4.523   1.335  0.00  0.00    -0.081 HD
ENDROOT
BRANCH   1  10
ATOM      8  C   UNL     1       1.656  -3.216  -0.025  0.00  0.00    +0.280 C 
ATOM      9  O   UNL     1       1.211  -4.349  -0.028  0.00  0.00    -0.267 OA
ATOM     10  N   UNL     1       2.989  -3.016  -0.030  0.00  0.00    -0.306 N 
ATOM     11  H   UNL     1       3.343  -2.113  -0.027  0.00  0.00    +0.149 HD
BRANCH   8  16
ATOM     12  C   UNL     1      -0.018   1.503   0.010  0.00  0.00    +0.086 C 
ATOM     13  C   UNL     1       0.002  -0.004   0.002  0.00  0.00    +0.103 A 
ATOM     14  C   UNL     1      -1.086  -0.806   0.003  0.00  0.00    +0.045 A 
ATOM     15  C   UNL     1      -0.622  -2.131  -0.007  0.00  0.00    +0.055 A 
ATOM     16  C   UNL     1       0.742  -2.070  -0.014  0.00  0.00    +0.189 A 
ATOM     17  O   UNL     1       1.101  -0.769  -0.013  0.00  0.00    -0.455 OA
ENDBRANCH   8  16
ENDBRANCH   1  10
BRANCH   4  18
ATOM     18  C   UNL     1       7.414  -6.395   0.871  0.00  0.00    +0.019 C 
BRANCH  18  19
ATOM     19  C   UNL     1       8.747  -5.877   0.395  0.00  0.00    +0.197 C 
ATOM     20  O   UNL     1       8.857  -4.723   0.039  0.00  0.00    -0.278 OA
ATOM     21  N   UNL     1       9.817  -6.697   0.366  0.00  0.00    -0.313 N 
ATOM     22  H   UNL     1       9.728  -7.620   0.650  0.00  0.00    +0.149 HD
BRANCH  21  23
ATOM     23  C   UNL     1      11.113  -6.194  -0.097  0.00  0.00    +0.139 C 
BRANCH  23  24
ATOM     24  C   UNL     1      12.133  -7.301  -0.032  0.00  0.00    -0.030 A 
ATOM     25  C   UNL     1      12.873  -7.492   1.120  0.00  0.00    +0.006 A 
ATOM     26  C   UNL     1      13.809  -8.508   1.179  0.00  0.00    +0.020 A 
ATOM     27  C   UNL     1      14.006  -9.332   0.086  0.00  0.00    +0.041 A 
ATOM     28  C   UNL     1      13.265  -9.139  -1.067  0.00  0.00    +0.020 A 
ATOM     29  C   UNL     1      12.325  -8.127  -1.123  0.00  0.00    +0.006 A 
ATOM     30 CL   UNL     1      15.182 -10.606   0.159  0.00  0.00    -0.084 Cl
ENDBRANCH  23  24
ENDBRANCH  21  23
ENDBRANCH  18  19
ENDBRANCH   4  18
TORSDOF 6
