REMARK  Name = ZINC02410360
REMARK  8 active torsions:
REMARK  status: ('A' for Active; 'I' for Inactive)
REMARK    1  A    between atoms: C_4  and  C_7
REMARK    2  A    between atoms: C_7  and  C_8
REMARK    3  A    between atoms: C_8  and  C_9
REMARK    4  A    between atoms: N_11  and  C_12
REMARK    5  A    between atoms: C_12  and  C_32
REMARK    6  A    between atoms: N_18  and  C_23
REMARK    7  A    between atoms: C_23  and  C_24
REMARK    8  A    between atoms: C_24  and  C_25
REMARK                            x       y       z     vdW  Elec       q    Type
REMARK                         _______ _______ _______ _____ _____    ______ ____
ROOT
ATOM      1  C   UNL     1       7.365  -2.749   2.524  0.00  0.00    +0.240 C 
ATOM      2  C   UNL     1       7.898  -2.920   3.927  0.00  0.00    +0.096 A 
ATOM      3  C   UNL     1       7.409  -3.575   5.064  0.00  0.00    +0.262 A 
ATOM      4  N   UNL     1       8.133  -3.549   6.203  0.00  0.00    -0.275 N 
ATOM      5  C   UNL     1       9.310  -2.899   6.241  0.00  0.00    +0.331 A 
ATOM      6  O   UNL     1       9.949  -2.886   7.275  0.00  0.00    -0.246 OA
ATOM      7  N   UNL     1       9.795  -2.264   5.160  0.00  0.00    -0.281 N 
ATOM      8  C   UNL     1       9.092  -2.263   3.974  0.00  0.00    +0.120 A 
ATOM      9  N   UNL     1       9.385  -1.690   2.760  0.00  0.00    -0.269 N 
ATOM     10  C   UNL     1       8.432  -1.918   1.839  0.00  0.00    +0.256 C 
ATOM     11  O   UNL     1       8.427  -1.535   0.688  0.00  0.00    -0.272 OA
ATOM     12  O   UNL     1       6.342  -4.163   5.025  0.00  0.00    -0.267 OA
ATOM     13  H   UNL     1      10.191  -1.179   2.586  0.00  0.00    +0.156 HD
ATOM     14  H   UNL     1       7.803  -4.000   6.996  0.00  0.00    +0.173 HD
ENDROOT
BRANCH   1  17
ATOM     15  C   UNL     1       5.487  -1.699   1.381  0.00  0.00    +0.215 C 
ATOM     16  O   UNL     1       6.005  -1.990   0.324  0.00  0.00    -0.276 OA
ATOM     17  N   UNL     1       6.087  -2.034   2.541  0.00  0.00    -0.291 N 
ATOM     18  H   UNL     1       5.672  -1.801   3.386  0.00  0.00    +0.150 HD
BRANCH  15  19
ATOM     19  C   UNL     1       4.171  -0.963   1.399  0.00  0.00    +0.100 C 
BRANCH  19  20
ATOM     20  C   UNL     1       3.711  -0.707  -0.038  0.00  0.00    +0.044 C 
BRANCH  20  24
ATOM     21  C   UNL     1      -0.017   1.378   0.010  0.00  0.00    +0.000 A 
ATOM     22  C   UNL     1       1.171   2.086   0.002  0.00  0.00    +0.000 A 
ATOM     23  C   UNL     1       2.377   1.411  -0.013  0.00  0.00    +0.003 A 
ATOM     24  C   UNL     1       2.396   0.029  -0.020  0.00  0.00    -0.047 A 
ATOM     25  C   UNL     1       1.208  -0.679  -0.012  0.00  0.00    +0.003 A 
ATOM     26  C   UNL     1       0.002  -0.004   0.002  0.00  0.00    +0.000 A 
ENDBRANCH  20  24
ENDBRANCH  19  20
ENDBRANCH  15  19
ENDBRANCH   1  17
BRANCH   1  27
ATOM     27  C   UNL     1       7.213  -4.106   1.833  0.00  0.00    +0.424 C 
ATOM     28  F   UNL     1       6.768  -3.913   0.521  0.00  0.00    -0.167 F 
ATOM     29  F   UNL     1       8.448  -4.761   1.815  0.00  0.00    -0.167 F 
ATOM     30  F   UNL     1       6.282  -4.882   2.532  0.00  0.00    -0.167 F 
ENDBRANCH   1  27
BRANCH   7  31
ATOM     31  C   UNL     1      11.081  -1.568   5.243  0.00  0.00    +0.133 C 
BRANCH  31  32
ATOM     32  C   UNL     1      12.208  -2.531   4.869  0.00  0.00    +0.057 C 
BRANCH  32  33
ATOM     33  C   UNL     1      13.531  -1.815   4.954  0.00  0.00    -0.046 A 
ATOM     34  C   UNL     1      14.033  -1.155   3.848  0.00  0.00    +0.004 A 
ATOM     35  C   UNL     1      15.246  -0.498   3.926  0.00  0.00    +0.000 A 
ATOM     36  C   UNL     1      15.958  -0.499   5.111  0.00  0.00    +0.000 A 
ATOM     37  C   UNL     1      15.456  -1.158   6.218  0.00  0.00    +0.000 A 
ATOM     38  C   UNL     1      14.240  -1.812   6.141  0.00  0.00    +0.004 A 
ENDBRANCH  32  33
ENDBRANCH  31  32
ENDBRANCH   7  31
TORSDOF 8
