REMARK  Name = ZINC08448667
REMARK  12 active torsions:
REMARK  status: ('A' for Active; 'I' for Inactive)
REMARK    1  A    between atoms: C_1  and  C_2
REMARK    2  A    between atoms: C_2  and  O_3
REMARK    3  A    between atoms: O_3  and  C_4
REMARK    4  A    between atoms: C_4  and  C_6
REMARK    5  A    between atoms: C_7  and  C_23
REMARK    6  A    between atoms: C_9  and  N_22
REMARK    7  A    between atoms: C_10  and  C_20
REMARK    8  A    between atoms: C_11  and  C_13
REMARK    9  A    between atoms: C_23  and  S_24
REMARK   10  A    between atoms: S_24  and  C_25
REMARK   11  A    between atoms: C_26  and  C_35
REMARK   12  A    between atoms: C_34  and  N_60
REMARK                            x       y       z     vdW  Elec       q    Type
REMARK                         _______ _______ _______ _____ _____    ______ ____
ROOT
ATOM      1  C   UNL     1      -0.748   6.595  -1.159  0.00  0.00    +0.088 C 
ATOM      2  C   UNL     1      -1.776   7.426  -0.946  0.00  0.00    +0.128 C 
ATOM      3  O   UNL     1      -2.488   7.410   0.190  0.00  0.00    -0.444 OA
ATOM      4  C   UNL     1      -1.966   6.832   1.287  0.00  0.00    +0.198 C 
ATOM      5  C   UNL     1      -0.938   5.953   1.210  0.00  0.00    +0.098 C 
ATOM      6  C   UNL     1      -0.335   5.588  -0.119  0.00  0.00    +0.105 C 
ENDROOT
BRANCH   6   7
ATOM      7  C   UNL     1      -0.815   4.220  -0.529  0.00  0.00    -0.034 A 
ATOM      8  C   UNL     1       0.097   3.201  -0.735  0.00  0.00    +0.006 A 
ATOM      9  C   UNL     1      -0.343   1.946  -1.111  0.00  0.00    +0.020 A 
ATOM     10  C   UNL     1      -1.695   1.708  -1.280  0.00  0.00    +0.041 A 
ATOM     11  C   UNL     1      -2.607   2.730  -1.079  0.00  0.00    +0.020 A 
ATOM     12  C   UNL     1      -2.167   3.983  -0.697  0.00  0.00    +0.006 A 
ATOM     13 CL   UNL     1      -2.248   0.132  -1.752  0.00  0.00    -0.084 Cl
ENDBRANCH   6   7
BRANCH   4  14
ATOM     14  N   UNL     1      -2.489   7.143   2.518  0.00  0.00    -0.328 N 
ATOM     15  H   UNL     1      -2.122   6.734   3.317  0.00  0.00    +0.145 HD
ATOM     16  H   UNL     1      -3.225   7.771   2.587  0.00  0.00    +0.145 HD
ENDBRANCH   4  14
BRANCH   1  17
ATOM     17  C   UNL     1      -0.038   6.664  -2.382  0.00  0.00    +0.339 C 
ATOM     18  O   UNL     1      -0.568   7.144  -3.367  0.00  0.00    -0.245 OA
BRANCH  17  19
ATOM     19  O   UNL     1       1.226   6.198  -2.456  0.00  0.00    -0.462 OA
BRANCH  19  21
ATOM     20  C   UNL     1       3.296   5.725  -3.610  0.00  0.00    +0.048 C 
ATOM     21  C   UNL     1       1.882   6.300  -3.721  0.00  0.00    +0.229 C 
ENDBRANCH  19  21
ENDBRANCH  17  19
ENDBRANCH   1  17
BRANCH   5  22
ATOM     22  C   UNL     1      -0.420   5.364   2.408  0.00  0.00    +0.101 C 
ATOM     23  N   UNL     1      -0.009   4.896   3.358  0.00  0.00    -0.191 NA
ENDBRANCH   5  22
BRANCH   2  24
ATOM     24  C   UNL     1      -2.145   8.416  -2.021  0.00  0.00    +0.150 C 
BRANCH  24  25
ATOM     25  S   UNL     1      -3.635   7.849  -2.877  0.00  0.00    -0.097 S 
BRANCH  25  26
ATOM     26  C   UNL     1      -3.833   9.154  -4.045  0.00  0.00    +0.115 A 
ATOM     27  C   UNL     1      -4.907   9.126  -4.952  0.00  0.00    +0.084 A 
ATOM     28  C   UNL     1      -5.035  10.174  -5.868  0.00  0.00    +0.025 A 
ATOM     29  C   UNL     1      -4.099  11.199  -5.844  0.00  0.00    -0.041 A 
ATOM     30  C   UNL     1      -3.074  11.162  -4.921  0.00  0.00    +0.042 A 
ATOM     31  N   UNL     1      -2.975  10.159  -4.061  0.00  0.00    -0.244 NA
ATOM     32  C   UNL     1      -2.039  12.258  -4.854  0.00  0.00    +0.037 C 
ATOM     33  C   UNL     1      -2.058  13.075  -6.146  0.00  0.00    -0.073 C 
ATOM     34  C   UNL     1      -4.239  12.319  -6.840  0.00  0.00    -0.042 C 
ATOM     35  C   UNL     1      -3.492  14.541  -7.437  0.00  0.00    -0.096 C 
ATOM     36  N   UNL     1      -3.455  13.485  -6.401  0.00  0.00    +0.381 N 
ATOM     37  H   UNL     1      -3.860  13.854  -5.533  0.00  0.00    -0.082 HD
BRANCH  27  38
ATOM     38  C   UNL     1      -5.849   8.046  -4.939  0.00  0.00    +0.102 C 
ATOM     39  N   UNL     1      -6.596   7.191  -4.929  0.00  0.00    -0.191 NA
ENDBRANCH  27  38
ENDBRANCH  25  26
ENDBRANCH  24  25
ENDBRANCH   2  24
TORSDOF 10
