REMARK  Name = ZINC09427680
REMARK  17 active torsions:
REMARK  status: ('A' for Active; 'I' for Inactive)
REMARK    1  A    between atoms: C_1  and  C_2
REMARK    2  A    between atoms: C_2  and  N_69
REMARK    3  A    between atoms: C_3  and  C_4
REMARK    4  A    between atoms: C_3  and  N_69
REMARK    5  A    between atoms: C_5  and  C_6
REMARK    6  A    between atoms: C_5  and  N_69
REMARK    7  A    between atoms: C_6  and  N_7
REMARK    8  A    between atoms: C_8  and  C_28
REMARK    9  A    between atoms: C_10  and  C_15
REMARK   10  A    between atoms: C_11  and  O_14
REMARK   11  A    between atoms: C_15  and  C_17
REMARK   12  A    between atoms: C_20  and  O_24
REMARK   13  A    between atoms: C_21  and  C_23
REMARK   14  A    between atoms: O_24  and  C_25
REMARK   15  A    between atoms: C_25  and  C_26
REMARK   16  A    between atoms: C_25  and  C_27
REMARK   17  A    between atoms: C_31  and  N_34
REMARK                            x       y       z     vdW  Elec       q    Type
REMARK                         _______ _______ _______ _____ _____    ______ ____
ROOT
ATOM      1  N   UNL     1      -0.197   0.931   0.629  0.00  0.00    -0.285 N 
ATOM      2  C   UNL     1       0.098   2.369   0.621  0.00  0.00    +0.144 C 
ATOM      3  C   UNL     1       1.598   2.492   0.750  0.00  0.00    +0.071 C 
ATOM      4  C   UNL     1       2.088   1.233   0.829  0.00  0.00    +0.188 C 
ATOM      5  C   UNL     1       0.968   0.271   0.757  0.00  0.00    +0.282 C 
ATOM      6  O   UNL     1       1.083  -0.938   0.802  0.00  0.00    -0.267 OA
ENDROOT
BRANCH   2   7
ATOM      7  C   UNL     1      -0.362   2.979  -0.678  0.00  0.00    -0.022 A 
ATOM      8  C   UNL     1      -0.221   2.276  -1.861  0.00  0.00    +0.008 A 
ATOM      9  C   UNL     1      -0.647   2.834  -3.051  0.00  0.00    +0.033 A 
ATOM     10  C   UNL     1      -1.206   4.098  -3.062  0.00  0.00    +0.126 A 
ATOM     11  C   UNL     1      -1.342   4.803  -1.881  0.00  0.00    +0.033 A 
ATOM     12  C   UNL     1      -0.920   4.243  -0.689  0.00  0.00    +0.008 A 
BRANCH  10  13
ATOM     13  N   UNL     1      -1.658   4.697  -4.338  0.00  0.00    +0.056 N 
ATOM     14  O   UNL     1      -2.149   5.811  -4.347  0.00  0.00    -0.126 OA
ATOM     15  O   UNL     1      -1.538   4.076  -5.378  0.00  0.00    -0.126 OA
ENDBRANCH  10  13
ENDBRANCH   2   7
BRANCH   4  16
ATOM     16  O   UNL     1       3.395   0.907   0.955  0.00  0.00    -0.502 OA
ATOM     17  H   UNL     1       3.488  -0.088   0.991  0.00  0.00    +0.292 HD
ENDBRANCH   4  16
BRANCH   3  18
ATOM     18  C   UNL     1       2.374   3.736   0.783  0.00  0.00    +0.195 C 
ATOM     19  O   UNL     1       3.135   4.003  -0.128  0.00  0.00    -0.287 OA
BRANCH  18  20
ATOM     20  C   UNL     1       2.231   4.664   1.922  0.00  0.00    +0.023 A 
ATOM     21  C   UNL     1       1.450   4.306   3.025  0.00  0.00    +0.015 A 
ATOM     22  C   UNL     1       1.319   5.175   4.084  0.00  0.00    +0.046 A 
ATOM     23  C   UNL     1       1.964   6.407   4.059  0.00  0.00    +0.124 A 
ATOM     24  C   UNL     1       2.741   6.767   2.964  0.00  0.00    -0.008 A 
ATOM     25  C   UNL     1       2.882   5.901   1.903  0.00  0.00    +0.018 A 
ATOM     26  C   UNL     1       3.437   8.104   2.942  0.00  0.00    +0.047 C 
BRANCH  23  27
ATOM     27  O   UNL     1       1.832   7.261   5.106  0.00  0.00    -0.489 OA
BRANCH  27  28
ATOM     28  C   UNL     1       0.955   6.863   6.161  0.00  0.00    +0.167 C 
ATOM     29  C   UNL     1       1.711   5.961   7.139  0.00  0.00    +0.051 C 
ATOM     30  C   UNL     1       0.449   8.104   6.899  0.00  0.00    +0.051 C 
ENDBRANCH  27  28
ENDBRANCH  23  27
ENDBRANCH  18  20
ENDBRANCH   3  18
BRANCH   1  31
ATOM     31  C   UNL     1      -1.526   0.323   0.522  0.00  0.00    +0.090 C 
BRANCH  31  32
ATOM     32  C   UNL     1      -2.123   0.152   1.920  0.00  0.00    -0.060 C 
BRANCH  32  33
ATOM     33  N   UNL     1      -3.470  -0.443   1.793  0.00  0.00    +0.380 N 
ATOM     34  H   UNL     1      -4.017   0.109   1.121  0.00  0.00    -0.082 HD
BRANCH  33  36
ATOM     35  C   UNL     1      -2.596  -2.700   2.299  0.00  0.00    -0.017 C 
ATOM     36  C   UNL     1      -3.365  -1.832   1.300  0.00  0.00    -0.082 C 
ENDBRANCH  33  36
BRANCH  33  37
ATOM     37  C   UNL     1      -4.157  -0.422   3.102  0.00  0.00    -0.082 C 
ATOM     38  C   UNL     1      -5.645  -0.702   2.881  0.00  0.00    -0.017 C 
ENDBRANCH  33  37
ENDBRANCH  32  33
ENDBRANCH  31  32
ENDBRANCH   1  31
TORSDOF 12
