REMARK  Name = ZINC36119143
REMARK  13 active torsions:
REMARK  status: ('A' for Active; 'I' for Inactive)
REMARK    1  A    between atoms: C_1  and  C_2
REMARK    2  A    between atoms: C_2  and  C_3
REMARK    3  A    between atoms: C_3  and  C_5
REMARK    4  A    between atoms: C_3  and  C_6
REMARK    5  A    between atoms: C_6  and  N_7
REMARK    6  A    between atoms: N_7  and  C_8
REMARK    7  A    between atoms: C_8  and  C_9
REMARK    8  A    between atoms: C_19  and  C_21
REMARK    9  A    between atoms: C_21  and  O_22
REMARK   10  A    between atoms: O_22  and  C_23
REMARK   11  A    between atoms: C_26  and  C_30
REMARK   12  A    between atoms: C_28  and  C_29
REMARK   13  A    between atoms: C_31  and  C_33
REMARK                            x       y       z     vdW  Elec       q    Type
REMARK                         _______ _______ _______ _____ _____    ______ ____
ROOT
ATOM      1  C   UNL     1       3.347  -3.292  -2.262  0.00  0.00    +0.234 C 
ATOM      2  O   UNL     1       2.658  -4.229  -1.919  0.00  0.00    -0.274 OA
ATOM      3  N   UNL     1       4.690  -3.407  -2.260  0.00  0.00    -0.289 N 
ATOM      4  C   UNL     1       5.535  -2.275  -2.668  0.00  0.00    +0.114 C 
ATOM      5  C   UNL     1       6.287  -2.671  -3.948  0.00  0.00    +0.061 C 
ATOM      6  C   UNL     1       6.790  -4.070  -3.795  0.00  0.00    -0.004 A 
ATOM      7  C   UNL     1       6.399  -5.004  -2.886  0.00  0.00    -0.014 A 
ATOM      8  C   UNL     1       7.023  -6.248  -2.959  0.00  0.00    +0.013 A 
ATOM      9  C   UNL     1       7.971  -6.475  -3.897  0.00  0.00    +0.046 A 
ATOM     10  S   UNL     1       8.031  -4.905  -4.747  0.00  0.00    -0.101 S 
ATOM     11  C   UNL     1       5.330  -4.662  -1.844  0.00  0.00    +0.144 C 
ENDROOT
BRANCH   1  12
ATOM     12  C   UNL     1       2.702  -1.999  -2.691  0.00  0.00    +0.204 C 
BRANCH  12  13
ATOM     13  N   UNL     1       1.245  -2.129  -2.605  0.00  0.00    -0.288 N 
ATOM     14  C   UNL     1       0.531  -2.444  -3.704  0.00  0.00    +0.247 C 
ATOM     15  O   UNL     1      -0.682  -2.499  -3.646  0.00  0.00    -0.270 OA
BRANCH  14  16
ATOM     16  C   UNL     1       1.223  -2.723  -4.981  0.00  0.00    +0.040 A 
ATOM     17  C   UNL     1       2.370  -3.518  -4.997  0.00  0.00    +0.013 A 
ATOM     18  C   UNL     1       3.012  -3.776  -6.190  0.00  0.00    +0.004 A 
ATOM     19  C   UNL     1       2.521  -3.249  -7.371  0.00  0.00    +0.038 A 
ATOM     20  C   UNL     1       1.383  -2.458  -7.364  0.00  0.00    +0.124 A 
ATOM     21  C   UNL     1       0.728  -2.198  -6.175  0.00  0.00    +0.051 A 
ATOM     22  F   UNL     1       0.910  -1.946  -8.521  0.00  0.00    -0.205 F 
ENDBRANCH  14  16
BRANCH  13  23
ATOM     23  C   UNL     1       0.564  -1.915  -1.326  0.00  0.00    +0.112 C 
BRANCH  23  24
ATOM     24  C   UNL     1       0.060  -0.473  -1.251  0.00  0.00    +0.003 C 
ATOM     25  C   UNL     1       1.253   0.485  -1.240  0.00  0.00    +0.009 C 
BRANCH  24  27
ATOM     26  C   UNL     1      -1.366   1.120   0.043  0.00  0.00    +0.004 C 
ATOM     27  C   UNL     1      -0.758  -0.284   0.028  0.00  0.00    +0.001 C 
ENDBRANCH  24  27
ENDBRANCH  23  24
ENDBRANCH  13  23
ENDBRANCH  12  13
ENDBRANCH   1  12
BRANCH  11  28
ATOM     28  C   UNL     1       5.978  -4.483  -0.470  0.00  0.00    +0.256 C 
BRANCH  28  29
ATOM     29  O   UNL     1       7.042  -3.534  -0.565  0.00  0.00    -0.490 OA
BRANCH  29  30
ATOM     30  C   UNL     1       7.726  -3.259   0.576  0.00  0.00    +0.124 A 
ATOM     31  C   UNL     1       7.385  -3.893   1.762  0.00  0.00    +0.046 A 
ATOM     32  C   UNL     1       8.082  -3.611   2.920  0.00  0.00    +0.007 A 
ATOM     33  C   UNL     1       9.121  -2.698   2.899  0.00  0.00    -0.050 A 
ATOM     34  C   UNL     1       9.463  -2.064   1.719  0.00  0.00    +0.010 A 
ATOM     35  C   UNL     1       8.772  -2.347   0.556  0.00  0.00    -0.009 A 
ATOM     36  C   UNL     1       9.149  -1.661  -0.732  0.00  0.00    +0.047 C 
ATOM     37  C   UNL     1       9.880  -2.393   4.164  0.00  0.00    +0.044 C 
ENDBRANCH  29  30
ENDBRANCH  28  29
ENDBRANCH  11  28
TORSDOF 9
