REMARK  Name = ZINC36209899
REMARK  9 active torsions:
REMARK  status: ('A' for Active; 'I' for Inactive)
REMARK    1  A    between atoms: C_1  and  C_2
REMARK    2  A    between atoms: C_2  and  C_4
REMARK    3  A    between atoms: C_2  and  O_17
REMARK    4  A    between atoms: N_6  and  C_7
REMARK    5  A    between atoms: C_11  and  N_13
REMARK    6  A    between atoms: O_17  and  C_18
REMARK    7  A    between atoms: C_18  and  C_20
REMARK    8  A    between atoms: C_20  and  S_21
REMARK    9  A    between atoms: S_21  and  C_22
REMARK                            x       y       z     vdW  Elec       q    Type
REMARK                         _______ _______ _______ _____ _____    ______ ____
ROOT
ATOM      1  C   UNL     1      -0.033   1.520   0.013  0.00  0.00    +0.062 C 
ATOM      2  C   UNL     1      -0.002  -0.010   0.002  0.00  0.00    +0.259 C 
ENDROOT
BRANCH   2   3
ATOM      3  C   UNL     1       0.708  -0.488  -1.238  0.00  0.00    +0.258 C 
ATOM      4  O   UNL     1       1.758  -1.088  -1.142  0.00  0.00    -0.271 OA
ATOM      5  N   UNL     1       0.176  -0.250  -2.453  0.00  0.00    -0.282 N 
ATOM      6  H   UNL     1      -0.695   0.170  -2.527  0.00  0.00    +0.155 HD
BRANCH   5   7
ATOM      7  C   UNL     1       0.882  -0.608  -3.609  0.00  0.00    +0.036 A 
ATOM      8  C   UNL     1       0.803   0.185  -4.745  0.00  0.00    +0.026 A 
ATOM      9  C   UNL     1       1.499  -0.170  -5.884  0.00  0.00    +0.042 A 
ATOM     10  C   UNL     1       2.275  -1.317  -5.893  0.00  0.00    +0.154 A 
ATOM     11  C   UNL     1       2.355  -2.109  -4.760  0.00  0.00    +0.163 A 
ATOM     12  C   UNL     1       1.665  -1.754  -3.617  0.00  0.00    +0.059 A 
ATOM     13  F   UNL     1       2.955  -1.663  -7.008  0.00  0.00    -0.203 F 
BRANCH  11  14
ATOM     14  N   UNL     1       3.185  -3.335  -4.772  0.00  0.00    +0.059 N 
ATOM     15  O   UNL     1       3.256  -4.027  -3.784  0.00  0.00    -0.126 OA
ATOM     16  O   UNL     1       3.793  -3.643  -5.771  0.00  0.00    -0.126 OA
ENDBRANCH  11  14
ENDBRANCH   5   7
ENDBRANCH   2   3
BRANCH   2  17
ATOM     17  O   UNL     1       0.692  -0.480   1.160  0.00  0.00    -0.452 OA
BRANCH  17  18
ATOM     18  C   UNL     1      -0.042  -0.707   2.260  0.00  0.00    +0.318 C 
ATOM     19  O   UNL     1      -1.235  -0.512   2.241  0.00  0.00    -0.250 OA
BRANCH  18  20
ATOM     20  C   UNL     1       0.620  -1.204   3.519  0.00  0.00    +0.199 C 
BRANCH  20  21
ATOM     21  S   UNL     1      -0.629  -1.411   4.819  0.00  0.00    -0.056 S 
BRANCH  21  22
ATOM     22  C   UNL     1       0.291  -1.989   6.206  0.00  0.00    +0.258 A 
ATOM     23  N   UNL     1       1.585  -2.191   6.217  0.00  0.00    -0.203 NA
ATOM     24  C   UNL     1       1.946  -2.635   7.452  0.00  0.00    +0.110 A 
ATOM     25  C   UNL     1       3.165  -3.002   8.025  0.00  0.00    +0.031 A 
ATOM     26  C   UNL     1       3.204  -3.420   9.337  0.00  0.00    +0.002 A 
ATOM     27  C   UNL     1       2.041  -3.478  10.090  0.00  0.00    +0.004 A 
ATOM     28  C   UNL     1       0.830  -3.117   9.535  0.00  0.00    +0.048 A 
ATOM     29  C   UNL     1       0.772  -2.694   8.217  0.00  0.00    +0.156 A 
ATOM     30  O   UNL     1      -0.232  -2.281   7.410  0.00  0.00    -0.431 OA
ENDBRANCH  21  22
ENDBRANCH  20  21
ENDBRANCH  18  20
ENDBRANCH  17  18
ENDBRANCH   2  17
TORSDOF 8
