REMARK  Name = ZINC64074572
REMARK  5 active torsions:
REMARK  status: ('A' for Active; 'I' for Inactive)
REMARK    1  A    between atoms: C_1  and  C_2
REMARK    2  A    between atoms: C_10  and  C_12
REMARK    3  A    between atoms: C_21  and  C_23
REMARK    4  A    between atoms: N_25  and  C_26
REMARK    5  A    between atoms: C_26  and  C_27
REMARK                            x       y       z     vdW  Elec       q    Type
REMARK                         _______ _______ _______ _____ _____    ______ ____
ROOT
ATOM      1  C   UNL     1       0.579  -1.250   2.392  0.00  0.00    +0.242 C 
ATOM      2  O   UNL     1       1.416  -2.126   2.337  0.00  0.00    -0.273 OA
ATOM      3  N   UNL     1       0.822  -0.130   3.101  0.00  0.00    -0.299 N 
ATOM      4  C   UNL     1      -0.188   0.933   3.179  0.00  0.00    +0.108 C 
ATOM      5  C   UNL     1      -0.517   1.196   4.653  0.00  0.00    +0.026 C 
ATOM      6  C   UNL     1       0.791   1.417   5.418  0.00  0.00    -0.015 C 
ATOM      7  C   UNL     1       1.817   0.287   5.291  0.00  0.00    +0.026 C 
ATOM      8  C   UNL     1       2.097   0.040   3.808  0.00  0.00    +0.108 C 
ATOM      9  C   UNL     1       1.321   2.848   5.519  0.00  0.00    +0.021 C 
ATOM     10  C   UNL     1       0.719   2.165   6.749  0.00  0.00    +0.082 C 
ENDROOT
BRANCH   1  20
ATOM     11  C   UNL     1      -0.524   0.833   0.186  0.00  0.00    +0.042 C 
ATOM     12  C   UNL     1      -0.708  -0.652   0.364  0.00  0.00    -0.033 C 
ATOM     13  C   UNL     1      -0.879  -1.573  -0.612  0.00  0.00    +0.001 A 
ATOM     14  C   UNL     1      -0.943  -1.471  -2.075  0.00  0.00    +0.030 A 
ATOM     15  C   UNL     1      -1.129  -2.596  -2.803  0.00  0.00    +0.042 A 
ATOM     16  C   UNL     1      -1.262  -3.854  -2.196  0.00  0.00    +0.022 A 
ATOM     17  C   UNL     1      -1.214  -4.027  -0.859  0.00  0.00    +0.027 A 
ATOM     18  C   UNL     1      -1.022  -2.912   0.004  0.00  0.00    +0.043 A 
ATOM     19  N   UNL     1      -0.942  -2.822   1.309  0.00  0.00    -0.370 N 
ATOM     20  C   UNL     1      -0.733  -1.415   1.669  0.00  0.00    +0.193 C 
ATOM     21 CL   UNL     1      -1.205  -2.480  -4.534  0.00  0.00    -0.084 Cl
ATOM     22  H   UNL     1      -1.006  -3.562   1.933  0.00  0.00    +0.161 HD
ENDBRANCH   1  20
BRANCH  10  23
ATOM     23  C   UNL     1       1.665   1.736   7.840  0.00  0.00    +0.217 C 
ATOM     24  O   UNL     1       2.713   2.326   8.001  0.00  0.00    -0.275 OA
ATOM     25  N   UNL     1       1.348   0.697   8.638  0.00  0.00    -0.310 N 
ATOM     26  H   UNL     1       0.511   0.225   8.510  0.00  0.00    +0.149 HD
BRANCH  25  27
ATOM     27  C   UNL     1       2.269   0.280   9.699  0.00  0.00    +0.146 C 
BRANCH  27  28
ATOM     28  C   UNL     1       1.683  -0.894  10.440  0.00  0.00    +0.007 A 
ATOM     29  C   UNL     1       1.830  -2.219  10.192  0.00  0.00    +0.013 A 
ATOM     30  C   UNL     1       1.192  -3.129  11.014  0.00  0.00    +0.008 A 
ATOM     31  C   UNL     1       0.439  -2.670  12.044  0.00  0.00    +0.045 A 
ATOM     32  S   UNL     1       0.622  -0.902  11.876  0.00  0.00    -0.100 S 
ENDBRANCH  27  28
ENDBRANCH  25  27
ENDBRANCH  10  23
TORSDOF 4
