REMARK  Name = ZINC49192874
REMARK  13 active torsions:
REMARK  status: ('A' for Active; 'I' for Inactive)
REMARK    1  A    between atoms: C_1  and  C_2
REMARK    2  A    between atoms: C_4  and  N_22
REMARK    3  A    between atoms: C_6  and  S_9
REMARK    4  A    between atoms: C_7  and  C_8
REMARK    5  A    between atoms: S_9  and  N_12
REMARK    6  A    between atoms: N_12  and  C_13
REMARK    7  A    between atoms: C_13  and  C_15
REMARK    8  A    between atoms: C_13  and  C_19
REMARK    9  A    between atoms: C_15  and  N_16
REMARK   10  A    between atoms: N_16  and  C_17
REMARK   11  A    between atoms: N_16  and  C_18
REMARK   12  A    between atoms: C_19  and  C_20
REMARK   13  A    between atoms: C_19  and  C_21
REMARK                            x       y       z     vdW  Elec       q    Type
REMARK                         _______ _______ _______ _____ _____    ______ ____
ROOT
ATOM      1  S   UNL     1       0.379  -2.843   2.338  0.00  0.00    +0.059 S 
ATOM      2  O   UNL     1      -0.608  -2.132   3.073  0.00  0.00    -0.153 OA
ATOM      3  O   UNL     1       0.188  -4.183   1.905  0.00  0.00    -0.153 OA
ENDROOT
BRANCH   1   9
ATOM      4  C   UNL     1       2.920  -2.086  -2.166  0.00  0.00    +0.044 C 
ATOM      5  C   UNL     1       1.909  -1.593  -1.163  0.00  0.00    -0.044 A 
ATOM      6  C   UNL     1       1.250  -0.399  -1.377  0.00  0.00    +0.026 A 
ATOM      7  C   UNL     1       0.318   0.054  -0.452  0.00  0.00    +0.027 A 
ATOM      8  C   UNL     1       0.052  -0.697   0.686  0.00  0.00    +0.051 A 
ATOM      9  C   UNL     1       0.715  -1.890   0.894  0.00  0.00    +0.110 A 
ATOM     10  C   UNL     1       1.639  -2.341  -0.031  0.00  0.00    -0.021 A 
ATOM     11  C   UNL     1       2.355  -3.647   0.196  0.00  0.00    +0.046 C 
BRANCH   7  12
ATOM     12  N   UNL     1      -0.349   1.262  -0.666  0.00  0.00    -0.358 N 
ATOM     13  H   UNL     1      -0.163   1.786  -1.461  0.00  0.00    +0.142 HD
ATOM     14  H   UNL     1      -1.000   1.577  -0.019  0.00  0.00    +0.142 HD
ENDBRANCH   7  12
ENDBRANCH   1   9
BRANCH   1  15
ATOM     15  N   UNL     1       1.754  -2.835   3.261  0.00  0.00    -0.188 NA
ATOM     16  H   UNL     1       2.261  -3.653   3.382  0.00  0.00    +0.148 HD
BRANCH  15  17
ATOM     17  C   UNL     1       2.204  -1.594   3.894  0.00  0.00    +0.063 C 
BRANCH  17  18
ATOM     18  C   UNL     1       1.835  -1.615   5.379  0.00  0.00    -0.000 C 
ATOM     19  C   UNL     1       2.219  -0.280   6.019  0.00  0.00    +0.009 C 
ATOM     20  C   UNL     1       0.329  -1.838   5.527  0.00  0.00    +0.009 C 
ENDBRANCH  17  18
BRANCH  17  21
ATOM     21  C   UNL     1       3.722  -1.468   3.748  0.00  0.00    -0.059 C 
BRANCH  21  22
ATOM     22  N   UNL     1       4.078  -1.467   2.322  0.00  0.00    +0.377 N 
ATOM     23  C   UNL     1       3.561  -0.247   1.688  0.00  0.00    -0.097 C 
ATOM     24  C   UNL     1       5.540  -1.510   2.183  0.00  0.00    -0.097 C 
ATOM     25  H   UNL     1       3.674  -2.276   1.875  0.00  0.00    -0.083 HD
ENDBRANCH  21  22
ENDBRANCH  17  21
ENDBRANCH  15  17
ENDBRANCH   1  15
TORSDOF 7
