REMARK  Name = ZINC01886161
REMARK  11 active torsions:
REMARK  status: ('A' for Active; 'I' for Inactive)
REMARK    1  A    between atoms: C_1  and  C_2
REMARK    2  A    between atoms: C_2  and  C_3
REMARK    3  A    between atoms: C_3  and  C_4
REMARK    4  A    between atoms: C_4  and  O_5
REMARK    5  A    between atoms: O_5  and  C_6
REMARK    6  A    between atoms: C_9  and  C_15
REMARK    7  A    between atoms: C_11  and  O_12
REMARK    8  A    between atoms: O_12  and  C_13
REMARK    9  A    between atoms: C_13  and  C_14
REMARK   10  A    between atoms: N_23  and  C_26
REMARK   11  A    between atoms: N_34  and  C_35
REMARK                            x       y       z     vdW  Elec       q    Type
REMARK                         _______ _______ _______ _____ _____    ______ ____
ROOT
ATOM      1  C   UNL     1       1.793  -8.058  -3.080  0.00  0.00    +0.157 C 
ATOM      2  C   UNL     1       2.938  -8.625  -2.210  0.00  0.00    +0.145 C 
ATOM      3  C   UNL     1       2.204  -9.151  -0.946  0.00  0.00    +0.249 C 
ATOM      4  C   UNL     1       2.746  -8.272   0.160  0.00  0.00    +0.259 C 
ATOM      5  O   UNL     1       2.452  -8.360   1.333  0.00  0.00    -0.272 OA
ATOM      6  N   UNL     1       3.601  -7.382  -0.358  0.00  0.00    -0.208 N 
ATOM      7  C   UNL     1       3.788  -7.487  -1.696  0.00  0.00    +0.235 C 
ATOM      8  O   UNL     1       4.510  -6.789  -2.375  0.00  0.00    -0.274 OA
ATOM      9  O   UNL     1       0.811  -8.856  -1.156  0.00  0.00    -0.257 OA
ATOM     10  N   UNL     1       0.600  -8.773  -2.565  0.00  0.00    -0.244 N 
ENDROOT
BRANCH   6  11
ATOM     11  C   UNL     1       4.258  -6.420   0.422  0.00  0.00    +0.044 A 
ATOM     12  C   UNL     1       5.636  -6.480   0.585  0.00  0.00    +0.025 A 
ATOM     13  C   UNL     1       6.281  -5.531   1.354  0.00  0.00    +0.017 A 
ATOM     14  C   UNL     1       5.556  -4.520   1.960  0.00  0.00    +0.018 A 
ATOM     15  C   UNL     1       4.183  -4.458   1.799  0.00  0.00    +0.017 A 
ATOM     16  C   UNL     1       3.534  -5.402   1.027  0.00  0.00    +0.025 A 
ATOM     17 BR   UNL     1       6.442  -3.223   3.012  0.00  0.00    -0.050 Br
ENDBRANCH   6  11
BRANCH   1  21
ATOM     18  C   UNL     1       1.396  -3.840  -2.498  0.00  0.00    +0.162 A 
ATOM     19  C   UNL     1       0.901  -4.722  -1.551  0.00  0.00    +0.050 A 
ATOM     20  C   UNL     1       1.031  -6.085  -1.743  0.00  0.00    +0.009 A 
ATOM     21  C   UNL     1       1.654  -6.571  -2.877  0.00  0.00    -0.018 A 
ATOM     22  C   UNL     1       2.151  -5.696  -3.825  0.00  0.00    +0.055 A 
ATOM     23  C   UNL     1       2.019  -4.329  -3.642  0.00  0.00    +0.162 A 
BRANCH  18  24
ATOM     24  O   UNL     1       1.269  -2.499  -2.311  0.00  0.00    -0.488 OA
BRANCH  24  25
ATOM     25  C   UNL     1       0.620  -2.069  -1.113  0.00  0.00    +0.229 C 
BRANCH  25  26
ATOM     26  C   UNL     1       0.571  -0.540  -1.080  0.00  0.00    +0.041 C 
BRANCH  26  28
ATOM     27  C   UNL     1      -0.174   1.449   0.236  0.00  0.00    +0.004 C 
ATOM     28  C   UNL     1      -0.125  -0.080   0.203  0.00  0.00    -0.000 C 
ENDBRANCH  26  28
ENDBRANCH  25  26
ENDBRANCH  24  25
ENDBRANCH  18  24
BRANCH  23  29
ATOM     29  O   UNL     1       2.501  -3.467  -4.577  0.00  0.00    -0.489 OA
BRANCH  29  30
ATOM     30  C   UNL     1       3.128  -4.040  -5.726  0.00  0.00    +0.226 C 
ATOM     31  C   UNL     1       3.604  -2.923  -6.658  0.00  0.00    +0.048 C 
ENDBRANCH  29  30
ENDBRANCH  23  29
ENDBRANCH   1  21
BRANCH  10  32
ATOM     32  C   UNL     1      -0.482  -9.267  -3.297  0.00  0.00    +0.065 A 
ATOM     33  C   UNL     1      -0.517  -9.114  -4.677  0.00  0.00    +0.028 A 
ATOM     34  C   UNL     1      -1.589  -9.604  -5.397  0.00  0.00    +0.002 A 
ATOM     35  C   UNL     1      -2.626 -10.245  -4.746  0.00  0.00    +0.000 A 
ATOM     36  C   UNL     1      -2.595 -10.399  -3.372  0.00  0.00    +0.002 A 
ATOM     37  C   UNL     1      -1.524  -9.916  -2.646  0.00  0.00    +0.028 A 
ENDBRANCH  10  32
TORSDOF 9
