REMARK  Name = ZINC03241914
REMARK  10 active torsions:
REMARK  status: ('A' for Active; 'I' for Inactive)
REMARK    1  A    between atoms: C_1  and  O_2
REMARK    2  A    between atoms: O_2  and  C_3
REMARK    3  A    between atoms: C_3  and  C_5
REMARK    4  A    between atoms: C_8  and  C_11
REMARK    5  A    between atoms: C_11  and  O_12
REMARK    6  A    between atoms: O_12  and  C_13
REMARK    7  A    between atoms: C_16  and  C_19
REMARK    8  A    between atoms: N_20  and  N_21
REMARK    9  A    between atoms: C_22  and  C_24
REMARK   10  A    between atoms: C_26  and  C_34
REMARK                            x       y       z     vdW  Elec       q    Type
REMARK                         _______ _______ _______ _____ _____    ______ ____
ROOT
ATOM      1  C   UNL     1       1.276  -8.210  -2.136  0.00  0.00    +0.138 C 
ATOM      2  N   UNL     1       1.279  -9.006  -1.110  0.00  0.00    -0.187 NA
ENDROOT
BRANCH   1   6
ATOM      3  C   UNL     1       1.248  -4.004  -1.557  0.00  0.00    +0.121 A 
ATOM      4  C   UNL     1       1.257  -4.854  -0.458  0.00  0.00    +0.046 A 
ATOM      5  C   UNL     1       1.261  -6.220  -0.641  0.00  0.00    +0.013 A 
ATOM      6  C   UNL     1       1.267  -6.750  -1.935  0.00  0.00    -0.005 A 
ATOM      7  C   UNL     1       1.264  -5.890  -3.037  0.00  0.00    +0.013 A 
ATOM      8  C   UNL     1       1.255  -4.526  -2.844  0.00  0.00    +0.046 A 
BRANCH   3   9
ATOM      9  O   UNL     1       1.239  -2.659  -1.371  0.00  0.00    -0.487 OA
BRANCH   9  10
ATOM     10  C   UNL     1       1.232  -2.189  -0.021  0.00  0.00    +0.264 C 
BRANCH  10  14
ATOM     11  C   UNL     1       1.204   2.087   0.002  0.00  0.00    +0.059 A 
ATOM     12  C   UNL     1       0.001   1.377  -0.005  0.00  0.00    +0.015 A 
ATOM     13  C   UNL     1       0.018  -0.002  -0.012  0.00  0.00    +0.008 A 
ATOM     14  C   UNL     1       1.222  -0.683  -0.013  0.00  0.00    -0.010 A 
ATOM     15  C   UNL     1       2.418   0.014  -0.006  0.00  0.00    +0.008 A 
ATOM     16  C   UNL     1       2.416   1.393   0.002  0.00  0.00    +0.015 A 
BRANCH  11  17
ATOM     17  C   UNL     1       1.194   3.564   0.009  0.00  0.00    +0.339 C 
ATOM     18  O   UNL     1       0.138   4.164   0.010  0.00  0.00    -0.245 OA
BRANCH  17  20
ATOM     19  C   UNL     1       2.270   5.695   0.023  0.00  0.00    +0.280 C 
ATOM     20  O   UNL     1       2.356   4.245   0.016  0.00  0.00    -0.464 OA
ENDBRANCH  17  20
ENDBRANCH  11  17
ENDBRANCH  10  14
ENDBRANCH   9  10
ENDBRANCH   3   9
ENDBRANCH   1   6
BRANCH   2  21
ATOM     21  N   UNL     1       1.288 -10.394  -1.301  0.00  0.00    -0.203 N 
ATOM     22  C   UNL     1       1.291 -11.221  -0.237  0.00  0.00    +0.264 C 
ATOM     23  O   UNL     1       1.286 -10.762   0.889  0.00  0.00    -0.268 OA
ATOM     24  H   UNL     1       1.292 -10.760  -2.200  0.00  0.00    +0.178 HD
BRANCH  22  25
ATOM     25  C   UNL     1       1.301 -12.685  -0.439  0.00  0.00    +0.050 A 
ATOM     26  C   UNL     1       1.189 -13.239  -1.705  0.00  0.00    +0.042 A 
ATOM     27  C   UNL     1       1.207 -14.637  -1.851  0.00  0.00    +0.079 A 
ATOM     28  N   UNL     1       1.318 -15.450  -0.818  0.00  0.00    -0.246 NA
ATOM     29  C   UNL     1       1.425 -15.002   0.434  0.00  0.00    +0.072 A 
ATOM     30  C   UNL     1       1.422 -13.608   0.691  0.00  0.00    +0.013 A 
ATOM     31  C   UNL     1       1.533 -13.143   2.005  0.00  0.00    +0.011 A 
ATOM     32  C   UNL     1       1.645 -14.036   3.030  0.00  0.00    +0.001 A 
ATOM     33  C   UNL     1       1.648 -15.407   2.783  0.00  0.00    +0.002 A 
ATOM     34  C   UNL     1       1.541 -15.894   1.517  0.00  0.00    +0.028 A 
BRANCH  27  35
ATOM     35  C   UNL     1       1.094 -15.214  -3.204  0.00  0.00    +0.038 A 
ATOM     36  C   UNL     1       1.089 -16.532  -3.583  0.00  0.00    +0.017 A 
ATOM     37  C   UNL     1       0.967 -16.834  -4.920  0.00  0.00    +0.008 A 
ATOM     38  C   UNL     1       0.865 -15.823  -5.821  0.00  0.00    +0.046 A 
ATOM     39  S   UNL     1       0.933 -14.379  -4.773  0.00  0.00    -0.095 S 
ENDBRANCH  27  35
ENDBRANCH  22  25
ENDBRANCH   2  21
TORSDOF 9
