REMARK  Name = ZINC04858323
REMARK  2 active torsions:
REMARK  status: ('A' for Active; 'I' for Inactive)
REMARK    1  A    between atoms: C_5  and  N_13
REMARK    2  A    between atoms: C_6  and  C_10
REMARK                            x       y       z     vdW  Elec       q    Type
REMARK                         _______ _______ _______ _____ _____    ______ ____
ROOT
ATOM      1  C   UNL     1      -2.306   1.494   0.149  0.00  0.00    +0.116 A 
ATOM      2  C   UNL     1      -2.398   0.102   0.154  0.00  0.00    -0.025 A 
ATOM      3  C   UNL     1      -1.259  -0.654   0.101  0.00  0.00    -0.031 A 
ATOM      4  C   UNL     1       0.003  -0.004   0.045  0.00  0.00    +0.032 A 
ATOM      5  C   UNL     1       1.327  -0.604  -0.015  0.00  0.00    +0.054 A 
ATOM      6  C   UNL     1       2.422   0.231  -0.061  0.00  0.00    +0.097 A 
ATOM      7  S   UNL     1       1.699   1.860  -0.026  0.00  0.00    -0.062 S 
ATOM      8  C   UNL     1      -0.016   1.407   0.048  0.00  0.00    +0.111 A 
ATOM      9  N   UNL     1      -1.137   2.095   0.093  0.00  0.00    -0.247 NA
ATOM     10  C   UNL     1      -1.271  -2.158   0.093  0.00  0.00    +0.036 C 
ATOM     11  C   UNL     1      -2.622  -2.684   0.575  0.00  0.00    +0.005 C 
ATOM     12  C   UNL     1      -3.728  -1.974  -0.215  0.00  0.00    +0.005 C 
ATOM     13  C   UNL     1      -3.772  -0.511   0.223  0.00  0.00    +0.037 C 
ENDROOT
BRANCH   6  14
ATOM     14  C   UNL     1       3.793  -0.121  -0.123  0.00  0.00    +0.250 C 
ATOM     15  O   UNL     1       4.121  -1.294  -0.140  0.00  0.00    -0.270 OA
ATOM     16  N   UNL     1       4.735   0.843  -0.162  0.00  0.00    -0.325 N 
ATOM     17  H   UNL     1       4.474   1.777  -0.148  0.00  0.00    +0.145 HD
ATOM     18  H   UNL     1       5.674   0.602  -0.204  0.00  0.00    +0.145 HD
ENDBRANCH   6  14
BRANCH   5  19
ATOM     19  N   UNL     1       1.484  -1.983  -0.025  0.00  0.00    -0.356 N 
ATOM     20  H   UNL     1       0.778  -2.549  -0.376  0.00  0.00    +0.142 HD
ATOM     21  H   UNL     1       2.298  -2.381   0.320  0.00  0.00    +0.142 HD
ENDBRANCH   5  19
TORSDOF 2
