REMARK  Name = ZINC39670361
REMARK  6 active torsions:
REMARK  status: ('A' for Active; 'I' for Inactive)
REMARK    1  A    between atoms: C_1  and  C_2
REMARK    2  A    between atoms: C_7  and  C_11
REMARK    3  A    between atoms: C_11  and  N_12
REMARK    4  A    between atoms: C_13  and  C_15
REMARK    5  A    between atoms: C_26  and  C_28
REMARK    6  A    between atoms: C_33  and  C_34
REMARK                            x       y       z     vdW  Elec       q    Type
REMARK                         _______ _______ _______ _____ _____    ______ ____
ROOT
ATOM      1  C   UNL     1       3.673  -7.412   3.755  0.00  0.00    +0.100 C 
ATOM      2  C   UNL     1       3.998  -7.756   2.284  0.00  0.00    +0.121 C 
ATOM      3  N   UNL     1       4.708  -9.055   2.352  0.00  0.00    -0.296 N 
ATOM      4  C   UNL     1       3.990  -9.814   3.404  0.00  0.00    +0.115 C 
ATOM      5  C   UNL     1       3.669  -8.764   4.486  0.00  0.00    -0.004 C 
ATOM      6  C   UNL     1       2.294  -9.034   5.090  0.00  0.00    -0.010 C 
ATOM      7  C   UNL     1       2.330 -10.357   5.861  0.00  0.00    -0.082 C 
ATOM      8  N   UNL     1       3.345 -10.281   6.919  0.00  0.00    +0.379 N 
ATOM      9  C   UNL     1       4.676 -10.114   6.324  0.00  0.00    -0.082 C 
ATOM     10  C   UNL     1       4.739  -8.781   5.573  0.00  0.00    -0.010 C 
ATOM     11  C   UNL     1       5.769  -9.455   1.623  0.00  0.00    +0.247 C 
ATOM     12  O   UNL     1       6.183 -10.594   1.726  0.00  0.00    -0.270 OA
ATOM     13  H   UNL     1       3.145  -9.494   7.519  0.00  0.00    -0.086 HD
ATOM     14  H   UNL     1       3.325 -11.130   7.464  0.00  0.00    -0.086 HD
ENDROOT
BRANCH  11  15
ATOM     15  C   UNL     1       6.429  -8.510   0.697  0.00  0.00    +0.040 A 
ATOM     16  C   UNL     1       5.670  -7.571  -0.004  0.00  0.00    +0.013 A 
ATOM     17  C   UNL     1       6.292  -6.692  -0.866  0.00  0.00    +0.001 A 
ATOM     18  C   UNL     1       7.665  -6.739  -1.036  0.00  0.00    +0.000 A 
ATOM     19  C   UNL     1       8.422  -7.667  -0.344  0.00  0.00    +0.004 A 
ATOM     20  C   UNL     1       7.813  -8.549   0.525  0.00  0.00    -0.038 A 
ATOM     21  C   UNL     1       8.640  -9.555   1.283  0.00  0.00    +0.044 C 
ENDBRANCH  11  15
BRANCH   1  23
ATOM     22  N   UNL     1       2.061  -5.893   4.856  0.00  0.00    -0.309 N 
ATOM     23  C   UNL     1       2.320  -6.757   3.854  0.00  0.00    +0.219 C 
ATOM     24  O   UNL     1       1.463  -7.007   3.033  0.00  0.00    -0.275 OA
ATOM     25  H   UNL     1       2.746  -5.693   5.513  0.00  0.00    +0.149 HD
BRANCH  22  26
ATOM     26  C   UNL     1       0.745  -5.256   4.953  0.00  0.00    +0.159 C 
BRANCH  26  33
ATOM     27  C   UNL     1       0.040  -1.871  11.484  0.00  0.00    +0.045 C 
ATOM     28  C   UNL     1       0.368  -2.118  10.034  0.00  0.00    -0.034 A 
ATOM     29  C   UNL     1       0.938  -1.092   9.262  0.00  0.00    +0.008 A 
ATOM     30  C   UNL     1       1.233  -1.319   7.953  0.00  0.00    +0.045 A 
ATOM     31  C   UNL     1       0.962  -2.583   7.394  0.00  0.00    +0.115 A 
ATOM     32  N   UNL     1       1.139  -3.077   6.176  0.00  0.00    -0.342 N 
ATOM     33  C   UNL     1       0.716  -4.343   6.151  0.00  0.00    +0.051 A 
ATOM     34  C   UNL     1       0.256  -4.669   7.379  0.00  0.00    +0.115 A 
ATOM     35  N   UNL     1       0.406  -3.565   8.173  0.00  0.00    -0.308 N 
ATOM     36  C   UNL     1       0.119  -3.325   9.486  0.00  0.00    +0.096 A 
ATOM     37  H   UNL     1       1.517  -2.596   5.424  0.00  0.00    +0.167 HD
ENDBRANCH  26  33
ENDBRANCH  22  26
ENDBRANCH   1  23
TORSDOF 4
