REMARK  Name = ZINC09667359
REMARK  7 active torsions:
REMARK  status: ('A' for Active; 'I' for Inactive)
REMARK    1  A    between atoms: C_1  and  C_2
REMARK    2  A    between atoms: C_5  and  C_8
REMARK    3  A    between atoms: C_9  and  C_18
REMARK    4  A    between atoms: N_28  and  C_29
REMARK    5  A    between atoms: C_29  and  C_30
REMARK    6  A    between atoms: C_30  and  C_31
REMARK    7  A    between atoms: C_36  and  C_39
REMARK                            x       y       z     vdW  Elec       q    Type
REMARK                         _______ _______ _______ _____ _____    ______ ____
ROOT
ATOM      1  C   UNL     1      -2.168   0.934   6.766  0.00  0.00    +0.140 C 
ATOM      2  C   UNL     1      -3.279   1.357   7.695  0.00  0.00    -0.010 A 
ATOM      3  C   UNL     1      -3.297   1.841   8.983  0.00  0.00    +0.006 A 
ATOM      4  C   UNL     1      -4.504   2.142   9.591  0.00  0.00    +0.000 A 
ATOM      5  C   UNL     1      -5.693   1.959   8.906  0.00  0.00    +0.001 A 
ATOM      6  C   UNL     1      -5.686   1.475   7.615  0.00  0.00    +0.013 A 
ATOM      7  C   UNL     1      -4.473   1.169   6.995  0.00  0.00    +0.042 A 
ATOM      8  C   UNL     1      -4.146   0.646   5.654  0.00  0.00    +0.248 C 
ATOM      9  O   UNL     1      -4.963   0.374   4.796  0.00  0.00    -0.270 OA
ATOM     10  N   UNL     1      -2.815   0.513   5.518  0.00  0.00    -0.286 N 
ENDROOT
BRANCH   1  12
ATOM     11  C   UNL     1      -0.141  -0.168   7.869  0.00  0.00    +0.053 A 
ATOM     12  C   UNL     1      -1.398  -0.215   7.364  0.00  0.00    +0.010 A 
ATOM     13  C   UNL     1      -1.863  -1.594   7.503  0.00  0.00    +0.006 A 
ATOM     14  C   UNL     1      -3.049  -2.255   7.170  0.00  0.00    +0.010 A 
ATOM     15  C   UNL     1      -3.181  -3.588   7.437  0.00  0.00    +0.001 A 
ATOM     16  C   UNL     1      -2.146  -4.293   8.037  0.00  0.00    +0.002 A 
ATOM     17  C   UNL     1      -0.969  -3.662   8.374  0.00  0.00    +0.026 A 
ATOM     18  C   UNL     1      -0.811  -2.305   8.112  0.00  0.00    +0.047 A 
ATOM     19  N   UNL     1       0.219  -1.415   8.325  0.00  0.00    -0.354 N 
ATOM     20  H   UNL     1       1.071  -1.636   8.732  0.00  0.00    +0.166 HD
BRANCH  11  25
ATOM     21  C   UNL     1       3.179   4.528   8.081  0.00  0.00    +0.044 C 
ATOM     22  C   UNL     1       2.309   3.298   8.025  0.00  0.00    -0.050 A 
ATOM     23  C   UNL     1       2.215   2.471   9.130  0.00  0.00    +0.004 A 
ATOM     24  C   UNL     1       1.421   1.343   9.086  0.00  0.00    +0.010 A 
ATOM     25  C   UNL     1       0.712   1.039   7.923  0.00  0.00    -0.001 A 
ATOM     26  C   UNL     1       0.816   1.874   6.811  0.00  0.00    +0.010 A 
ATOM     27  C   UNL     1       1.609   3.002   6.870  0.00  0.00    +0.004 A 
ENDBRANCH  11  25
ENDBRANCH   1  12
BRANCH  10  28
ATOM     28  C   UNL     1      -2.125   0.023   4.322  0.00  0.00    +0.118 C 
BRANCH  28  29
ATOM     29  C   UNL     1      -1.801   1.201   3.401  0.00  0.00    +0.115 C 
BRANCH  29  30
ATOM     30  C   UNL     1      -1.091   0.697   2.171  0.00  0.00    +0.217 C 
ATOM     31  O   UNL     1      -0.866  -0.488   2.044  0.00  0.00    -0.276 OA
ATOM     32  N   UNL     1      -0.706   1.562   1.213  0.00  0.00    -0.301 N 
ATOM     33  C   UNL     1      -0.013   1.086   0.008  0.00  0.00    +0.108 C 
ATOM     34  C   UNL     1      -0.759   1.596  -1.228  0.00  0.00    +0.032 C 
ATOM     35  C   UNL     1      -0.898   3.118  -1.144  0.00  0.00    +0.078 C 
ATOM     36  C   UNL     1      -1.711   3.490   0.099  0.00  0.00    +0.032 C 
ATOM     37  C   UNL     1      -0.975   3.001   1.350  0.00  0.00    +0.108 C 
BRANCH  35  38
ATOM     38  C   UNL     1      -1.602   3.627  -2.375  0.00  0.00    +0.214 C 
ATOM     39  O   UNL     1      -1.958   2.850  -3.235  0.00  0.00    -0.276 OA
ATOM     40  N   UNL     1      -1.836   4.946  -2.520  0.00  0.00    -0.329 N 
ATOM     41  H   UNL     1      -1.552   5.568  -1.832  0.00  0.00    +0.145 HD
ATOM     42  H   UNL     1      -2.289   5.274  -3.313  0.00  0.00    +0.145 HD
ENDBRANCH  35  38
ENDBRANCH  29  30
ENDBRANCH  28  29
ENDBRANCH  10  28
TORSDOF 6
