REMARK  Name = ZINC22704950
REMARK  10 active torsions:
REMARK  status: ('A' for Active; 'I' for Inactive)
REMARK    1  A    between atoms: C_1  and  C_2
REMARK    2  A    between atoms: C_2  and  C_4
REMARK    3  A    between atoms: C_2  and  N_11
REMARK    4  A    between atoms: C_12  and  C_14
REMARK    5  A    between atoms: C_14  and  C_16
REMARK    6  A    between atoms: C_14  and  O_17
REMARK    7  A    between atoms: O_17  and  C_18
REMARK    8  A    between atoms: C_18  and  C_20
REMARK    9  A    between atoms: C_24  and  S_26
REMARK   10  A    between atoms: S_26  and  N_29
REMARK                            x       y       z     vdW  Elec       q    Type
REMARK                         _______ _______ _______ _____ _____    ______ ____
ROOT
ATOM      1  C   UNL     1       0.015  -2.819  -2.484  0.00  0.00    +0.340 C 
ATOM      2  O   UNL     1      -0.003  -2.210  -3.535  0.00  0.00    -0.245 OA
ENDROOT
BRANCH   1   3
ATOM      3  C   UNL     1       0.018  -2.082  -1.203  0.00  0.00    +0.061 A 
ATOM      4  C   UNL     1       0.039  -2.779   0.007  0.00  0.00    +0.015 A 
ATOM      5  C   UNL     1       0.041  -2.084   1.199  0.00  0.00    +0.003 A 
ATOM      6  C   UNL     1       0.023  -0.701   1.197  0.00  0.00    +0.029 A 
ATOM      7  C   UNL     1       0.002  -0.004   0.002  0.00  0.00    +0.109 A 
ATOM      8  C   UNL     1      -0.006  -0.686  -1.197  0.00  0.00    +0.043 A 
BRANCH   7   9
ATOM      9  S   UNL     1      -0.022   1.758   0.012  0.00  0.00    +0.075 S 
ATOM     10  O   UNL     1      -0.590   2.163  -1.226  0.00  0.00    -0.150 OA
ATOM     11  O   UNL     1      -0.566   2.150   1.264  0.00  0.00    -0.150 OA
BRANCH   9  12
ATOM     12  N   UNL     1       1.553   2.269  -0.001  0.00  0.00    -0.202 N 
ATOM     13  C   UNL     1       2.340   2.534  -1.208  0.00  0.00    +0.136 C 
ATOM     14  C   UNL     1       3.721   2.979  -0.699  0.00  0.00    +0.058 C 
ATOM     15  C   UNL     1       3.605   2.929   0.808  0.00  0.00    -0.023 A 
ATOM     16  C   UNL     1       2.323   2.515   1.137  0.00  0.00    +0.054 A 
ATOM     17  C   UNL     1       1.974   2.398   2.484  0.00  0.00    +0.025 A 
ATOM     18  C   UNL     1       2.893   2.693   3.469  0.00  0.00    +0.002 A 
ATOM     19  C   UNL     1       4.167   3.108   3.130  0.00  0.00    +0.000 A 
ATOM     20  C   UNL     1       4.523   3.218   1.798  0.00  0.00    +0.005 A 
ENDBRANCH   9  12
ENDBRANCH   7   9
ENDBRANCH   1   3
BRANCH   1  21
ATOM     21  O   UNL     1       0.032  -4.166  -2.486  0.00  0.00    -0.449 OA
BRANCH  21  22
ATOM     22  C   UNL     1       0.028  -4.823  -3.780  0.00  0.00    +0.259 C 
ATOM     23  C   UNL     1      -1.416  -5.072  -4.221  0.00  0.00    +0.062 C 
BRANCH  22  25
ATOM     24  N   UNL     1       0.967  -6.879  -4.784  0.00  0.00    -0.306 N 
ATOM     25  C   UNL     1       0.756  -6.138  -3.678  0.00  0.00    +0.254 C 
ATOM     26  O   UNL     1       1.153  -6.530  -2.601  0.00  0.00    -0.272 OA
ATOM     27  H   UNL     1       0.607  -6.524  -5.761  0.00  0.00    +0.149 HD
BRANCH  24  29
ATOM     28  C   UNL     1       0.684  -9.262  -4.312  0.00  0.00    +0.033 C 
ATOM     29  C   UNL     1       1.675  -8.158  -4.685  0.00  0.00    +0.100 C 
BRANCH  29  30
ATOM     30  C   UNL     1       2.314  -8.483  -6.011  0.00  0.00    -0.027 A 
ATOM     31  C   UNL     1       1.632  -8.228  -7.186  0.00  0.00    +0.008 A 
ATOM     32  C   UNL     1       2.218  -8.521  -8.403  0.00  0.00    +0.038 A 
ATOM     33  C   UNL     1       3.485  -9.079  -8.444  0.00  0.00    +0.123 A 
ATOM     34  C   UNL     1       4.164  -9.339  -7.266  0.00  0.00    +0.038 A 
ATOM     35  C   UNL     1       3.578  -9.040  -6.051  0.00  0.00    +0.008 A 
ATOM     36  F   UNL     1       4.056  -9.372  -9.633  0.00  0.00    -0.205 F 
ENDBRANCH  29  30
ENDBRANCH  24  29
ENDBRANCH  22  25
ENDBRANCH  21  22
ENDBRANCH   1  21
TORSDOF 8
