REMARK  Name = ZINC11909031
REMARK  6 active torsions:
REMARK  status: ('A' for Active; 'I' for Inactive)
REMARK    1  A    between atoms: C_1  and  C_2
REMARK    2  A    between atoms: C_13  and  C_14
REMARK    3  A    between atoms: C_13  and  N_52
REMARK    4  A    between atoms: N_16  and  C_17
REMARK    5  A    between atoms: C_17  and  C_18
REMARK    6  A    between atoms: C_23  and  C_24
REMARK                            x       y       z     vdW  Elec       q    Type
REMARK                         _______ _______ _______ _____ _____    ______ ____
ROOT
ATOM      1  C   UNL     1       4.412  -2.842  -1.851  0.00  0.00    +0.197 C 
ATOM      2  O   UNL     1       3.205  -2.769  -1.756  0.00  0.00    -0.278 OA
ATOM      3  N   UNL     1       4.992  -4.014  -2.178  0.00  0.00    -0.313 N 
ATOM      4  H   UNL     1       5.957  -4.074  -2.254  0.00  0.00    +0.149 HD
ENDROOT
BRANCH   1   5
ATOM      5  C   UNL     1       5.264  -1.624  -1.603  0.00  0.00    +0.019 C 
BRANCH   5  17
ATOM      6  C   UNL     1       5.151   3.244  -1.464  0.00  0.00    +0.050 C 
ATOM      7  C   UNL     1       4.274   2.002  -1.293  0.00  0.00    +0.154 C 
ATOM      8  C   UNL     1       5.151   0.768  -1.299  0.00  0.00    -0.033 C 
ATOM      9  C   UNL     1       3.720  -0.700   0.015  0.00  0.00    -0.038 C 
ATOM     10  C   UNL     1       2.391   0.029  -0.008  0.00  0.00    -0.022 A 
ATOM     11  C   UNL     1       1.209  -0.682  -0.003  0.00  0.00    +0.005 A 
ATOM     12  C   UNL     1       0.002  -0.004   0.002  0.00  0.00    +0.000 A 
ATOM     13  C   UNL     1      -0.017   1.379   0.010  0.00  0.00    +0.004 A 
ATOM     14  C   UNL     1       1.168   2.091   0.002  0.00  0.00    +0.046 A 
ATOM     15  C   UNL     1       2.378   1.411  -0.017  0.00  0.00    +0.122 A 
ATOM     16  O   UNL     1       3.549   2.103  -0.061  0.00  0.00    -0.491 OA
ATOM     17  N   UNL     1       4.376  -0.490  -1.298  0.00  0.00    +0.391 N 
ATOM     18  H   UNL     1       3.651  -0.431  -2.023  0.00  0.00    -0.081 HD
ENDBRANCH   5  17
ENDBRANCH   1   5
BRANCH   3  19
ATOM     19  C   UNL     1       4.165  -5.199  -2.418  0.00  0.00    +0.143 C 
BRANCH  19  20
ATOM     20  C   UNL     1       5.050  -6.369  -2.764  0.00  0.00    +0.015 A 
ATOM     21  C   UNL     1       5.298  -6.839  -4.006  0.00  0.00    +0.110 A 
ATOM     22  N   UNL     1       6.137  -7.891  -3.893  0.00  0.00    -0.284 N 
ATOM     23  H   UNL     1       6.495  -8.439  -4.649  0.00  0.00    +0.188 HD
ATOM     24  N   UNL     1       6.419  -8.081  -2.534  0.00  0.00    -0.174 NA
ATOM     25  C   UNL     1       5.770  -7.162  -1.850  0.00  0.00    +0.097 A 
BRANCH  25  26
ATOM     26  C   UNL     1       5.791  -6.995  -0.375  0.00  0.00    +0.002 A 
ATOM     27  C   UNL     1       5.733  -5.721   0.185  0.00  0.00    +0.010 A 
ATOM     28  C   UNL     1       5.747  -5.571   1.557  0.00  0.00    +0.001 A 
ATOM     29  C   UNL     1       5.829  -6.683   2.375  0.00  0.00    +0.000 A 
ATOM     30  C   UNL     1       5.893  -7.950   1.824  0.00  0.00    +0.001 A 
ATOM     31  C   UNL     1       5.874  -8.111   0.454  0.00  0.00    +0.010 A 
ENDBRANCH  25  26
ENDBRANCH  19  20
ENDBRANCH   3  19
TORSDOF 5
