REMARK  Name = ZINC33139363
REMARK  9 active torsions:
REMARK  status: ('A' for Active; 'I' for Inactive)
REMARK    1  A    between atoms: C_1  and  C_2
REMARK    2  A    between atoms: C_2  and  C_3
REMARK    3  A    between atoms: C_6  and  N_9
REMARK    4  A    between atoms: C_10  and  C_18
REMARK    5  A    between atoms: C_18  and  N_19
REMARK    6  A    between atoms: N_22  and  S_25
REMARK    7  A    between atoms: S_25  and  C_28
REMARK    8  A    between atoms: C_31  and  C_35
REMARK    9  A    between atoms: C_33  and  C_34
REMARK                            x       y       z     vdW  Elec       q    Type
REMARK                         _______ _______ _______ _____ _____    ______ ____
ROOT
ATOM      1  N   UNL     1       0.673   1.034  -1.184  0.00  0.00    -0.281 N 
ATOM      2  C   UNL     1      -0.665   0.815  -1.041  0.00  0.00    +0.108 A 
ATOM      3  N   UNL     1      -0.928  -0.451  -1.190  0.00  0.00    -0.341 N 
ATOM      4  C   UNL     1       0.222  -1.128  -1.438  0.00  0.00    +0.084 A 
ATOM      5  C   UNL     1       1.266  -0.185  -1.438  0.00  0.00    +0.163 A 
ATOM      6  N   UNL     1       2.513  -0.569  -1.658  0.00  0.00    -0.236 NA
ATOM      7  C   UNL     1       2.818  -1.831  -1.880  0.00  0.00    +0.113 A 
ATOM      8  C   UNL     1       1.843  -2.816  -1.895  0.00  0.00    +0.022 A 
ATOM      9  C   UNL     1       0.523  -2.473  -1.672  0.00  0.00    +0.031 A 
ATOM     10  H   UNL     1      -1.964  -0.811  -1.106  0.00  0.00    +0.167 HD
ENDROOT
BRANCH   1  14
ATOM     11  C   UNL     1       2.613   4.713  -0.907  0.00  0.00    -0.047 A 
ATOM     12  C   UNL     1       2.875   3.723   0.022  0.00  0.00    +0.005 A 
ATOM     13  C   UNL     1       2.233   2.503  -0.067  0.00  0.00    +0.026 A 
ATOM     14  C   UNL     1       1.325   2.272  -1.091  0.00  0.00    +0.050 A 
ATOM     15  C   UNL     1       1.068   3.265  -2.026  0.00  0.00    +0.026 A 
ATOM     16  C   UNL     1       1.709   4.485  -1.928  0.00  0.00    +0.005 A 
BRANCH  11  18
ATOM     17  C   UNL     1       4.619   5.993  -1.606  0.00  0.00    +0.009 C 
ATOM     18  C   UNL     1       3.315   6.043  -0.807  0.00  0.00    +0.032 C 
ENDBRANCH  11  18
ENDBRANCH   1  14
BRANCH   2  19
ATOM     19  C   UNL     1      -1.691   1.882  -0.758  0.00  0.00    +0.157 C 
BRANCH  19  20
ATOM     20  N   UNL     1      -1.852   2.034   0.694  0.00  0.00    -0.293 NA
ATOM     21  C   UNL     1      -2.427   0.820   1.290  0.00  0.00    +0.102 C 
ATOM     22  C   UNL     1      -2.410   0.948   2.817  0.00  0.00    +0.125 C 
ATOM     23  N   UNL     1      -3.083   2.201   3.188  0.00  0.00    -0.174 NA
ATOM     24  C   UNL     1      -2.653   3.444   2.529  0.00  0.00    +0.125 C 
ATOM     25  C   UNL     1      -2.660   3.218   1.013  0.00  0.00    +0.102 C 
BRANCH  23  26
ATOM     26  S   UNL     1      -4.294   2.214   4.318  0.00  0.00    +0.061 S 
ATOM     27  O   UNL     1      -4.034   1.133   5.204  0.00  0.00    -0.153 OA
ATOM     28  O   UNL     1      -4.415   3.556   4.769  0.00  0.00    -0.153 OA
BRANCH  26  29
ATOM     29  C   UNL     1      -5.794   1.828   3.479  0.00  0.00    +0.108 A 
ATOM     30  C   UNL     1      -6.449   0.640   3.745  0.00  0.00    +0.029 A 
ATOM     31  C   UNL     1      -7.627   0.337   3.087  0.00  0.00    +0.005 A 
ATOM     32  C   UNL     1      -8.149   1.222   2.163  0.00  0.00    -0.050 A 
ATOM     33  C   UNL     1      -7.494   2.410   1.896  0.00  0.00    +0.008 A 
ATOM     34  C   UNL     1      -6.319   2.715   2.558  0.00  0.00    -0.024 A 
ATOM     35  C   UNL     1      -5.608   4.013   2.272  0.00  0.00    +0.046 C 
ATOM     36  C   UNL     1      -9.433   0.893   1.446  0.00  0.00    +0.044 C 
ENDBRANCH  26  29
ENDBRANCH  23  26
ENDBRANCH  19  20
ENDBRANCH   2  19
TORSDOF 6
