REMARK  Name = ZINC35664169
REMARK  11 active torsions:
REMARK  status: ('A' for Active; 'I' for Inactive)
REMARK    1  A    between atoms: C_1  and  C_2
REMARK    2  A    between atoms: C_2  and  N_3
REMARK    3  A    between atoms: C_4  and  C_23
REMARK    4  A    between atoms: C_5  and  C_18
REMARK    5  A    between atoms: C_6  and  C_11
REMARK    6  A    between atoms: C_15  and  C_17
REMARK    7  A    between atoms: C_18  and  O_20
REMARK    8  A    between atoms: O_20  and  C_21
REMARK    9  A    between atoms: C_21  and  C_22
REMARK   10  A    between atoms: C_23  and  N_24
REMARK   11  A    between atoms: C_31  and  C_33
REMARK                            x       y       z     vdW  Elec       q    Type
REMARK                         _______ _______ _______ _____ _____    ______ ____
ROOT
ATOM      1  N   UNL     1      -1.660  -0.535  -0.040  0.00  0.00    -0.261 N 
ATOM      2  C   UNL     1      -2.032  -1.060   1.165  0.00  0.00    +0.010 C 
ATOM      3  C   UNL     1      -3.148  -1.810   1.284  0.00  0.00    +0.076 C 
ATOM      4  C   UNL     1      -3.974  -2.050   0.036  0.00  0.00    +0.143 C 
ATOM      5  N   UNL     1      -3.487  -1.440  -1.213  0.00  0.00    -0.288 N 
ATOM      6  C   UNL     1      -2.354  -0.711  -1.172  0.00  0.00    +0.307 C 
ATOM      7  O   UNL     1      -1.946  -0.201  -2.197  0.00  0.00    -0.252 OA
ATOM      8  H   UNL     1      -3.972  -1.558  -2.045  0.00  0.00    +0.151 HD
ENDROOT
BRANCH   4   9
ATOM      9  C   UNL     1      -5.365  -1.532   0.293  0.00  0.00    -0.022 A 
ATOM     10  C   UNL     1      -5.631  -0.180   0.185  0.00  0.00    +0.006 A 
ATOM     11  C   UNL     1      -6.908   0.295   0.420  0.00  0.00    +0.001 A 
ATOM     12  C   UNL     1      -7.919  -0.583   0.765  0.00  0.00    +0.003 A 
ATOM     13  C   UNL     1      -7.653  -1.935   0.873  0.00  0.00    -0.050 A 
ATOM     14  C   UNL     1      -6.377  -2.410   0.633  0.00  0.00    +0.009 A 
ATOM     15  C   UNL     1      -8.755  -2.891   1.249  0.00  0.00    +0.044 C 
ENDBRANCH   4   9
BRANCH   1  17
ATOM     16  C   UNL     1      -0.795   1.750   0.041  0.00  0.00    +0.025 C 
ATOM     17  C   UNL     1      -0.437   0.269  -0.097  0.00  0.00    +0.111 C 
ENDBRANCH   1  17
BRANCH   3  18
ATOM     18  C   UNL     1      -3.533  -2.354   2.532  0.00  0.00    +0.339 C 
ATOM     19  O   UNL     1      -2.905  -2.077   3.536  0.00  0.00    -0.245 OA
BRANCH  18  20
ATOM     20  O   UNL     1      -4.598  -3.180   2.607  0.00  0.00    -0.462 OA
BRANCH  20  21
ATOM     21  C   UNL     1      -4.930  -3.693   3.899  0.00  0.00    +0.229 C 
ATOM     22  C   UNL     1      -6.154  -4.604   3.787  0.00  0.00    +0.048 C 
ENDBRANCH  20  21
ENDBRANCH  18  20
ENDBRANCH   3  18
BRANCH   2  23
ATOM     23  C   UNL     1      -1.182  -0.797   2.381  0.00  0.00    -0.026 C 
BRANCH  23  24
ATOM     24  N   UNL     1      -0.320  -1.959   2.637  0.00  0.00    +0.384 N 
ATOM     25  C   UNL     1       0.323  -1.779   3.937  0.00  0.00    -0.077 C 
ATOM     26  C   UNL     1       0.596  -3.134   4.551  0.00  0.00    +0.000 C 
ATOM     27  C   UNL     1       2.024  -3.582   4.190  0.00  0.00    +0.106 C 
ATOM     28  N   UNL     1       2.353  -3.231   2.793  0.00  0.00    -0.299 N 
ATOM     29  C   UNL     1       1.406  -3.392   1.709  0.00  0.00    +0.089 C 
ATOM     30  C   UNL     1       0.568  -2.103   1.548  0.00  0.00    -0.059 C 
ATOM     31  C   UNL     1       3.579  -2.743   2.518  0.00  0.00    +0.253 C 
ATOM     32  O   UNL     1       4.426  -2.699   3.390  0.00  0.00    -0.269 OA
ATOM     33  H   UNL     1      -0.903  -2.781   2.683  0.00  0.00    -0.081 HD
BRANCH  31  34
ATOM     34  C   UNL     1       3.891  -2.265   1.168  0.00  0.00    +0.074 A 
ATOM     35  C   UNL     1       5.108  -1.852   0.647  0.00  0.00    +0.021 A 
ATOM     36  C   UNL     1       5.090  -1.453  -0.668  0.00  0.00    +0.008 A 
ATOM     37  C   UNL     1       3.919  -1.488  -1.351  0.00  0.00    +0.046 A 
ATOM     38  S   UNL     1       2.807  -2.070  -0.234  0.00  0.00    -0.092 S 
ENDBRANCH  31  34
ENDBRANCH  23  24
ENDBRANCH   2  23
TORSDOF 8
