REMARK  Name = ZINC45122605
REMARK  8 active torsions:
REMARK  status: ('A' for Active; 'I' for Inactive)
REMARK    1  A    between atoms: C_1  and  C_2
REMARK    2  A    between atoms: N_5  and  C_8
REMARK    3  A    between atoms: C_8  and  C_9
REMARK    4  A    between atoms: C_9  and  C_10
REMARK    5  A    between atoms: C_10  and  N_11
REMARK    6  A    between atoms: N_14  and  N_15
REMARK    7  A    between atoms: N_15  and  C_16
REMARK    8  A    between atoms: C_16  and  C_23
REMARK                            x       y       z     vdW  Elec       q    Type
REMARK                         _______ _______ _______ _____ _____    ______ ____
ROOT
ATOM      1  N   UNL     1       0.412  -6.329   4.132  0.00  0.00    -0.298 N 
ATOM      2  C   UNL     1       0.481  -7.638   4.447  0.00  0.00    +0.313 C 
ATOM      3  O   UNL     1       0.053  -8.473   3.674  0.00  0.00    -0.252 OA
ATOM      4  N   UNL     1       1.024  -8.021   5.620  0.00  0.00    -0.234 N 
ATOM      5  H   UNL     1       0.753  -5.663   4.750  0.00  0.00    +0.150 HD
ATOM      6  H   UNL     1       1.074  -8.963   5.846  0.00  0.00    +0.171 HD
ENDROOT
BRANCH   4   7
ATOM      7  N   UNL     1       1.504  -7.083   6.489  0.00  0.00    -0.232 NA
ATOM      8  H   UNL     1       2.196  -6.498   6.044  0.00  0.00    +0.145 HD
BRANCH   7   9
ATOM      9  C   UNL     1       2.049  -7.716   7.698  0.00  0.00    +0.054 C 
ATOM     10  C   UNL     1       0.962  -8.586   8.327  0.00  0.00    +0.047 C 
ATOM     11  C   UNL     1       1.180  -8.694   9.862  0.00  0.00    +0.168 C 
ATOM     12  S   UNL     1       1.701  -6.959  10.222  0.00  0.00    -0.029 S 
ATOM     13  O   UNL     1       0.548  -6.134  10.310  0.00  0.00    -0.174 OA
ATOM     14  O   UNL     1       2.644  -6.966  11.285  0.00  0.00    -0.174 OA
ATOM     15  C   UNL     1       2.574  -6.613   8.638  0.00  0.00    +0.189 C 
ATOM     16  C   UNL     1       3.220  -8.614   7.294  0.00  0.00    +0.031 C 
ENDBRANCH   7   9
ENDBRANCH   4   7
BRANCH   1  17
ATOM     17  C   UNL     1      -0.178  -5.912   2.858  0.00  0.00    +0.104 C 
BRANCH  17  18
ATOM     18  C   UNL     1      -0.134  -4.387   2.750  0.00  0.00    +0.000 C 
BRANCH  18  19
ATOM     19  C   UNL     1      -0.750  -3.952   1.419  0.00  0.00    -0.077 C 
BRANCH  19  24
ATOM     20  C   UNL     1      -0.019   1.526   0.010  0.00  0.00    +0.007 C 
ATOM     21  C   UNL     1       0.002  -0.004   0.002  0.00  0.00    -0.018 C 
ATOM     22  C   UNL     1      -1.434  -0.536   0.023  0.00  0.00    -0.016 C 
ATOM     23  C   UNL     1      -1.405  -2.064   0.095  0.00  0.00    -0.079 C 
ATOM     24  N   UNL     1      -0.707  -2.487   1.315  0.00  0.00    +0.380 N 
ATOM     25  C   UNL     1       0.691  -2.042   1.269  0.00  0.00    -0.079 C 
ATOM     26  C   UNL     1       0.743  -0.513   1.242  0.00  0.00    -0.016 C 
ATOM     27  H   UNL     1      -1.162  -2.082   2.119  0.00  0.00    -0.082 HD
ENDBRANCH  19  24
ENDBRANCH  18  19
ENDBRANCH  17  18
ENDBRANCH   1  17
TORSDOF 6
