REMARK  Name = ZINC63825372
REMARK  4 active torsions:
REMARK  status: ('A' for Active; 'I' for Inactive)
REMARK    1  A    between atoms: C_1  and  C_2
REMARK    2  A    between atoms: C_4  and  C_21
REMARK    3  A    between atoms: N_12  and  C_14
REMARK    4  A    between atoms: C_24  and  C_26
REMARK                            x       y       z     vdW  Elec       q    Type
REMARK                         _______ _______ _______ _____ _____    ______ ____
ROOT
ATOM      1  C   UNL     1      -0.018   1.503   0.010  0.00  0.00    +0.062 C 
ATOM      2  C   UNL     1       0.002  -0.004   0.002  0.00  0.00    +0.022 C 
ATOM      3  C   UNL     1      -1.064  -0.752   0.003  0.00  0.00    -0.001 C 
ATOM      4  C   UNL     1      -2.522  -0.386  -0.141  0.00  0.00    +0.095 C 
ATOM      5  C   UNL     1      -3.018  -1.085  -1.415  0.00  0.00    +0.111 C 
ATOM      6  C   UNL     1      -2.419  -2.446  -1.570  0.00  0.00    +0.216 C 
ATOM      7  O   UNL     1      -3.009  -3.211  -2.304  0.00  0.00    -0.276 OA
ATOM      8  N   UNL     1      -1.312  -2.916  -0.995  0.00  0.00    -0.292 N 
ATOM      9  C   UNL     1      -0.615  -2.203   0.068  0.00  0.00    +0.210 C 
ATOM     10  N   UNL     1       0.833  -2.133  -0.134  0.00  0.00    -0.210 N 
ATOM     11  N   UNL     1       1.158  -0.770  -0.014  0.00  0.00    -0.265 N 
ATOM     12  H   UNL     1      -0.956  -3.766  -1.296  0.00  0.00    +0.151 HD
ATOM     13  H   UNL     1       2.060  -0.417   0.051  0.00  0.00    +0.170 HD
ENDROOT
BRANCH  10  14
ATOM     14  C   UNL     1       1.703  -3.189  -0.396  0.00  0.00    +0.162 A 
ATOM     15  C   UNL     1       3.066  -2.947  -0.565  0.00  0.00    +0.052 A 
ATOM     16  C   UNL     1       3.890  -4.030  -0.823  0.00  0.00    +0.077 A 
ATOM     17  C   UNL     1       3.306  -5.293  -0.899  0.00  0.00    +0.289 A 
ATOM     18  O   UNL     1       4.075  -6.383  -1.150  0.00  0.00    -0.264 OA
ATOM     19  N   UNL     1       2.003  -5.427  -0.726  0.00  0.00    -0.105 NA
ATOM     20  N   UNL     1       1.238  -4.425  -0.480  0.00  0.00    -0.129 NA
ENDBRANCH  10  14
BRANCH   4  21
ATOM     21  C   UNL     1      -3.299  -0.873   1.055  0.00  0.00    +0.113 A 
ATOM     22  C   UNL     1      -4.004  -0.099   1.902  0.00  0.00    +0.046 A 
ATOM     23  C   UNL     1      -4.569  -0.953   2.870  0.00  0.00    +0.050 A 
ATOM     24  C   UNL     1      -4.173  -2.216   2.557  0.00  0.00    +0.138 A 
ATOM     25  O   UNL     1      -3.408  -2.152   1.450  0.00  0.00    -0.459 OA
BRANCH  24  26
ATOM     26  C   UNL     1      -4.526  -3.444   3.298  0.00  0.00    +0.052 A 
ATOM     27  C   UNL     1      -4.362  -3.499   4.683  0.00  0.00    +0.014 A 
ATOM     28  C   UNL     1      -4.693  -4.649   5.369  0.00  0.00    +0.001 A 
ATOM     29  C   UNL     1      -5.187  -5.748   4.688  0.00  0.00    +0.003 A 
ATOM     30  C   UNL     1      -5.352  -5.703   3.316  0.00  0.00    +0.039 A 
ATOM     31  C   UNL     1      -5.031  -4.555   2.616  0.00  0.00    +0.134 A 
ATOM     32  F   UNL     1      -5.198  -4.509   1.276  0.00  0.00    -0.205 F 
ENDBRANCH  24  26
ENDBRANCH   4  21
TORSDOF 3
