REMARK  Name = ZINC14884266
REMARK  11 active torsions:
REMARK  status: ('A' for Active; 'I' for Inactive)
REMARK    1  A    between atoms: C_1  and  O_2
REMARK    2  A    between atoms: O_2  and  C_3
REMARK    3  A    between atoms: C_12  and  C_13
REMARK    4  A    between atoms: C_13  and  N_14
REMARK    5  A    between atoms: C_17  and  N_28
REMARK    6  A    between atoms: C_19  and  C_22
REMARK    7  A    between atoms: C_22  and  C_23
REMARK    8  A    between atoms: C_23  and  C_24
REMARK    9  A    between atoms: C_24  and  O_26
REMARK   10  A    between atoms: O_26  and  C_27
REMARK   11  A    between atoms: N_31  and  C_34
REMARK                            x       y       z     vdW  Elec       q    Type
REMARK                         _______ _______ _______ _____ _____    ______ ____
ROOT
ATOM      1  N   UNL     1      -2.166   1.086   1.339  0.00  0.00    +0.383 N 
ATOM      2  C   UNL     1      -0.826   1.688   1.368  0.00  0.00    -0.077 C 
ATOM      3  C   UNL     1      -0.021   1.202   0.161  0.00  0.00    +0.000 C 
ATOM      4  C   UNL     1      -0.751   1.597  -1.126  0.00  0.00    +0.056 C 
ATOM      5  C   UNL     1      -2.160   0.998  -1.109  0.00  0.00    -0.010 C 
ATOM      6  C   UNL     1      -2.903   1.490   0.135  0.00  0.00    -0.073 C 
ATOM      7  H   UNL     1      -2.043  -0.006   1.306  0.00  0.00    -0.081 HD
ENDROOT
BRANCH   4   8
ATOM      8  N   UNL     1      -0.013   1.082  -2.287  0.00  0.00    -0.296 NA
ATOM      9  C   UNL     1       1.380   1.550  -2.275  0.00  0.00    +0.103 C 
ATOM     10  C   UNL     1       2.134   0.929  -3.454  0.00  0.00    +0.120 C 
ATOM     11  N   UNL     1       1.467   1.301  -4.709  0.00  0.00    -0.325 N 
ATOM     12  C   UNL     1       0.074   0.833  -4.721  0.00  0.00    +0.120 C 
ATOM     13  C   UNL     1      -0.680   1.454  -3.543  0.00  0.00    +0.103 C 
BRANCH  11  14
ATOM     14  C   UNL     1       2.170   0.811  -5.814  0.00  0.00    +0.065 A 
ATOM     15  C   UNL     1       1.748   1.121  -7.100  0.00  0.00    +0.026 A 
ATOM     16  C   UNL     1       2.445   0.635  -8.190  0.00  0.00    +0.002 A 
ATOM     17  C   UNL     1       3.561  -0.159  -8.002  0.00  0.00    +0.003 A 
ATOM     18  C   UNL     1       3.985  -0.471  -6.724  0.00  0.00    +0.040 A 
ATOM     19  C   UNL     1       3.296   0.017  -5.628  0.00  0.00    +0.144 A 
ATOM     20  F   UNL     1       3.714  -0.282  -4.378  0.00  0.00    -0.204 F 
ENDBRANCH  11  14
ENDBRANCH   4   8
BRANCH   1  21
ATOM     21  C   UNL     1      -2.919   1.421   2.555  0.00  0.00    -0.039 C 
BRANCH  21  31
ATOM     22  C   UNL     1      -2.007   0.014   4.397  0.00  0.00    +0.122 A 
ATOM     23  C   UNL     1      -1.192  -0.188   5.516  0.00  0.00    +0.046 A 
ATOM     24  C   UNL     1      -0.418   0.817   6.006  0.00  0.00    +0.012 A 
ATOM     25  C   UNL     1      -0.430   2.076   5.380  0.00  0.00    -0.017 A 
ATOM     26  C   UNL     1       0.357   3.136   5.861  0.00  0.00    +0.008 A 
ATOM     27  C   UNL     1       0.321   4.342   5.231  0.00  0.00    +0.001 A 
ATOM     28  C   UNL     1      -0.487   4.543   4.113  0.00  0.00    +0.001 A 
ATOM     29  C   UNL     1      -1.263   3.540   3.619  0.00  0.00    +0.009 A 
ATOM     30  C   UNL     1      -1.252   2.281   4.243  0.00  0.00    -0.013 A 
ATOM     31  C   UNL     1      -2.039   1.222   3.762  0.00  0.00    -0.015 A 
BRANCH  22  33
ATOM     32  C   UNL     1      -2.699  -2.248   4.640  0.00  0.00    +0.277 C 
ATOM     33  O   UNL     1      -2.774  -1.008   3.934  0.00  0.00    -0.495 OA
ENDBRANCH  22  33
ENDBRANCH  21  31
ENDBRANCH   1  21
BRANCH   5  34
ATOM     34  C   UNL     1      -2.066  -0.529  -1.077  0.00  0.00    +0.014 C 
BRANCH  34  35
ATOM     35  C   UNL     1      -3.467  -1.130  -1.207  0.00  0.00    +0.121 C 
BRANCH  35  36
ATOM     36  C   UNL     1      -3.374  -2.634  -1.175  0.00  0.00    +0.307 C 
ATOM     37  O   UNL     1      -2.297  -3.170  -1.060  0.00  0.00    -0.251 OA
BRANCH  36  38
ATOM     38  O   UNL     1      -4.487  -3.377  -1.275  0.00  0.00    -0.468 OA
ATOM     39  C   UNL     1      -4.322  -4.819  -1.237  0.00  0.00    +0.280 C 
ENDBRANCH  36  38
ENDBRANCH  35  36
ENDBRANCH  34  35
ENDBRANCH   5  34
TORSDOF 9
