REMARK  Name = ZINC11909227
REMARK  10 active torsions:
REMARK  status: ('A' for Active; 'I' for Inactive)
REMARK    1  A    between atoms: C_1  and  C_2
REMARK    2  A    between atoms: C_2  and  C_4
REMARK    3  A    between atoms: C_2  and  N_65
REMARK    4  A    between atoms: C_10  and  C_26
REMARK    5  A    between atoms: C_11  and  O_18
REMARK    6  A    between atoms: O_18  and  C_19
REMARK    7  A    between atoms: C_19  and  C_20
REMARK    8  A    between atoms: C_20  and  C_21
REMARK    9  A    between atoms: C_26  and  O_28
REMARK   10  A    between atoms: O_28  and  C_29
REMARK                            x       y       z     vdW  Elec       q    Type
REMARK                         _______ _______ _______ _____ _____    ______ ____
ROOT
ATOM      1  C   UNL     1       4.049  -0.122   1.996  0.00  0.00    +0.202 C 
ATOM      2  O   UNL     1       2.859  -0.353   1.971  0.00  0.00    -0.277 OA
ATOM      3  N   UNL     1       4.836  -0.735   2.902  0.00  0.00    -0.301 N 
ATOM      4  C   UNL     1       6.269  -0.412   3.014  0.00  0.00    +0.114 C 
ATOM      5  C   UNL     1       7.054  -1.701   2.821  0.00  0.00    +0.073 C 
ATOM      6  C   UNL     1       7.187  -2.494   4.098  0.00  0.00    +0.041 A 
ATOM      7  C   UNL     1       8.335  -3.276   4.196  0.00  0.00    +0.120 A 
ATOM      8  C   UNL     1       8.528  -4.143   5.356  0.00  0.00    +0.141 A 
ATOM      9  C   UNL     1       7.539  -4.158   6.319  0.00  0.00    +0.116 A 
ATOM     10  C   UNL     1       6.426  -3.336   6.150  0.00  0.00    +0.255 A 
ATOM     11  O   UNL     1       5.543  -3.362   6.992  0.00  0.00    -0.268 OA
ATOM     12  N   UNL     1       6.286  -2.508   5.085  0.00  0.00    -0.310 N 
ATOM     13  C   UNL     1       5.104  -1.646   5.108  0.00  0.00    +0.144 C 
ATOM     14  C   UNL     1       4.300  -1.751   3.812  0.00  0.00    +0.129 C 
ENDROOT
BRANCH   1  16
ATOM     15  C   UNL     1       5.608   0.106   0.081  0.00  0.00    -0.004 C 
ATOM     16  C   UNL     1       4.649   0.849   1.012  0.00  0.00    +0.016 C 
BRANCH  16  22
ATOM     17  C   UNL     1       4.113   2.508  -0.670  0.00  0.00    -0.049 C 
ATOM     18  C   UNL     1       2.959   3.165  -1.432  0.00  0.00    +0.141 C 
ATOM     19  O   UNL     1       2.234   2.161  -2.148  0.00  0.00    -0.383 OA
ATOM     20  C   UNL     1       1.698   1.132  -1.313  0.00  0.00    +0.141 C 
ATOM     21  C   UNL     1       2.840   0.454  -0.550  0.00  0.00    -0.049 C 
ATOM     22  N   UNL     1       3.559   1.480   0.235  0.00  0.00    +0.390 N 
ATOM     23  H   UNL     1       2.901   1.926   0.885  0.00  0.00    -0.081 HD
ENDBRANCH  16  22
ENDBRANCH   1  16
BRANCH   7  24
ATOM     24  C   UNL     1       9.352  -3.228   3.133  0.00  0.00    +0.344 C 
ATOM     25  O   UNL     1      10.369  -2.583   3.294  0.00  0.00    -0.245 OA
BRANCH  24  26
ATOM     26  O   UNL     1       9.155  -3.901   1.982  0.00  0.00    -0.464 OA
ATOM     27  C   UNL     1      10.200  -3.809   0.978  0.00  0.00    +0.280 C 
ENDBRANCH  24  26
ENDBRANCH   7  24
BRANCH   8  28
ATOM     28  O   UNL     1       9.640  -4.905   5.483  0.00  0.00    -0.491 OA
BRANCH  28  29
ATOM     29  C   UNL     1       9.738  -5.720   6.652  0.00  0.00    +0.234 C 
BRANCH  29  30
ATOM     30  C   UNL     1      11.051  -6.503   6.620  0.00  0.00    +0.083 C 
BRANCH  30  31
ATOM     31  C   UNL     1      11.155  -7.363   7.853  0.00  0.00    -0.007 A 
ATOM     32  C   UNL     1      10.726  -8.635   8.046  0.00  0.00    +0.011 A 
ATOM     33  C   UNL     1      10.934  -9.233   9.274  0.00  0.00    +0.008 A 
ATOM     34  C   UNL     1      11.550  -8.527  10.253  0.00  0.00    +0.045 A 
ATOM     35  S   UNL     1      11.866  -6.968   9.442  0.00  0.00    -0.101 S 
ENDBRANCH  30  31
ENDBRANCH  29  30
ENDBRANCH  28  29
ENDBRANCH   8  28
TORSDOF 8
