REMARK  Name = ZINC12022641
REMARK  8 active torsions:
REMARK  status: ('A' for Active; 'I' for Inactive)
REMARK    1  A    between atoms: C_1  and  C_2
REMARK    2  A    between atoms: C_3  and  C_17
REMARK    3  A    between atoms: N_6  and  C_7
REMARK    4  A    between atoms: C_17  and  C_19
REMARK    5  A    between atoms: C_17  and  N_20
REMARK    6  A    between atoms: N_20  and  C_21
REMARK    7  A    between atoms: C_21  and  C_22
REMARK    8  A    between atoms: C_25  and  N_28
REMARK                            x       y       z     vdW  Elec       q    Type
REMARK                         _______ _______ _______ _____ _____    ______ ____
ROOT
ATOM      1  C   UNL     1      -0.468  -0.510  -2.401  0.00  0.00    -0.040 C 
ATOM      2  C   UNL     1       0.837   0.031  -2.988  0.00  0.00    -0.009 C 
ENDROOT
BRANCH   1   5
ATOM      3  C   UNL     1      -0.479   1.207   0.215  0.00  0.00    +0.066 C 
ATOM      4  C   UNL     1      -0.224  -0.276   0.126  0.00  0.00    +0.043 A 
ATOM      5  C   UNL     1      -0.218  -1.019  -1.004  0.00  0.00    -0.021 A 
ATOM      6  C   UNL     1       0.059  -2.344  -0.649  0.00  0.00    +0.137 A 
ATOM      7  N   UNL     1       0.216  -2.398   0.649  0.00  0.00    -0.174 NA
ATOM      8  N   UNL     1       0.049  -1.107   1.165  0.00  0.00    -0.236 N 
BRANCH   8   9
ATOM      9  C   UNL     1       0.142  -0.739   2.512  0.00  0.00    +0.073 A 
ATOM     10  C   UNL     1       0.901   0.349   2.885  0.00  0.00    +0.028 A 
ATOM     11  C   UNL     1       1.001   0.723   4.221  0.00  0.00    +0.003 A 
ATOM     12  C   UNL     1       0.353   0.028   5.196  0.00  0.00    +0.008 A 
ATOM     13  C   UNL     1      -0.432  -1.087   4.858  0.00  0.00    -0.016 A 
ATOM     14  C   UNL     1      -0.545  -1.475   3.500  0.00  0.00    +0.008 A 
ATOM     15  C   UNL     1      -1.334  -2.587   3.163  0.00  0.00    +0.010 A 
ATOM     16  C   UNL     1      -1.983  -3.274   4.143  0.00  0.00    +0.001 A 
ATOM     17  C   UNL     1      -1.877  -2.890   5.479  0.00  0.00    +0.001 A 
ATOM     18  C   UNL     1      -1.112  -1.825   5.843  0.00  0.00    +0.008 A 
ENDBRANCH   8   9
ENDBRANCH   1   5
BRANCH   1  19
ATOM     19  N   UNL     1      -0.965  -1.608  -3.241  0.00  0.00    +0.386 N 
ATOM     20  H   UNL     1      -0.245  -2.310  -3.337  0.00  0.00    -0.085 HD
ATOM     21  H   UNL     1      -1.780  -2.019  -2.811  0.00  0.00    -0.085 HD
BRANCH  19  22
ATOM     22  C   UNL     1      -1.321  -1.087  -4.567  0.00  0.00    -0.046 C 
BRANCH  22  23
ATOM     23  C   UNL     1      -1.830  -2.214  -5.429  0.00  0.00    -0.064 A 
ATOM     24  C   UNL     1      -0.947  -2.945  -6.202  0.00  0.00    +0.003 A 
ATOM     25  C   UNL     1      -1.411  -3.978  -6.993  0.00  0.00    +0.024 A 
ATOM     26  C   UNL     1      -2.765  -4.283  -7.011  0.00  0.00    +0.038 A 
ATOM     27  C   UNL     1      -3.650  -3.547  -6.233  0.00  0.00    +0.024 A 
ATOM     28  C   UNL     1      -3.179  -2.519  -5.441  0.00  0.00    +0.003 A 
BRANCH  26  29
ATOM     29  N   UNL     1      -3.238  -5.329  -7.811  0.00  0.00    -0.254 N 
ATOM     30  C   UNL     1      -4.653  -5.672  -8.016  0.00  0.00    +0.134 C 
ATOM     31  C   UNL     1      -4.605  -6.883  -8.969  0.00  0.00    +0.125 C 
ATOM     32  N   UNL     1      -3.168  -7.093  -9.199  0.00  0.00    -0.297 N 
ATOM     33  C   UNL     1      -2.474  -6.174  -8.516  0.00  0.00    +0.307 C 
ATOM     34  O   UNL     1      -1.259  -6.113  -8.531  0.00  0.00    -0.252 OA
ATOM     35  H   UNL     1      -2.784  -7.785  -9.760  0.00  0.00    +0.150 HD
ENDBRANCH  26  29
ENDBRANCH  22  23
ENDBRANCH  19  22
ENDBRANCH   1  19
TORSDOF 6
