REMARK  Name = ZINC13800496
REMARK  10 active torsions:
REMARK  status: ('A' for Active; 'I' for Inactive)
REMARK    1  A    between atoms: C_1  and  C_2
REMARK    2  A    between atoms: C_2  and  C_8
REMARK    3  A    between atoms: N_3  and  N_4
REMARK    4  A    between atoms: C_8  and  C_9
REMARK    5  A    between atoms: C_9  and  C_10
REMARK    6  A    between atoms: C_12  and  C_26
REMARK    7  A    between atoms: C_16  and  C_24
REMARK    8  A    between atoms: C_16  and  C_25
REMARK    9  A    between atoms: C_21  and  C_22
REMARK   10  A    between atoms: C_21  and  O_23
REMARK                            x       y       z     vdW  Elec       q    Type
REMARK                         _______ _______ _______ _____ _____    ______ ____
ROOT
ATOM      1  C   UNL     1       1.114  -4.793   1.554  0.00  0.00    +0.027 C 
ATOM      2  C   UNL     1       1.743  -5.903   2.401  0.00  0.00    -0.023 C 
ATOM      3  C   UNL     1       0.670  -6.764   3.059  0.00  0.00    +0.007 C 
ATOM      4  C   UNL     1       1.322  -7.852   3.917  0.00  0.00    +0.001 C 
ATOM      5  C   UNL     1       2.183  -8.751   3.038  0.00  0.00    +0.007 C 
ATOM      6  C   UNL     1       3.265  -7.952   2.315  0.00  0.00    -0.032 C 
ATOM      7  C   UNL     1       2.677  -6.767   1.558  0.00  0.00    +0.001 C 
ATOM      8  C   UNL     1       1.921  -7.288   0.329  0.00  0.00    +0.007 C 
ATOM      9  C   UNL     1       1.387  -6.130  -0.515  0.00  0.00    +0.035 C 
ATOM     10  C   UNL     1       0.400  -5.311   0.316  0.00  0.00    +0.067 C 
ATOM     11  C   UNL     1      -0.077  -4.117  -0.525  0.00  0.00    +0.041 C 
ATOM     12  C   UNL     1       4.357  -7.534   3.304  0.00  0.00    +0.011 C 
ATOM     13  C   UNL     1       3.954  -8.914   1.321  0.00  0.00    +0.011 C 
ATOM     14  C   UNL     1       2.521  -5.157   3.502  0.00  0.00    +0.012 C 
ENDROOT
BRANCH  10  15
ATOM     15  O   UNL     1      -0.731  -6.105   0.663  0.00  0.00    -0.389 OA
ATOM     16  H   UNL     1      -1.215  -6.455  -0.098  0.00  0.00    +0.210 HD
ENDBRANCH  10  15
BRANCH   1  17
ATOM     17  C   UNL     1       0.156  -3.952   2.400  0.00  0.00    +0.013 C 
BRANCH  17  18
ATOM     18  C   UNL     1      -0.254  -2.703   1.617  0.00  0.00    +0.052 C 
BRANCH  18  20
ATOM     19  C   UNL     1      -2.068  -1.388   2.957  0.00  0.00    +0.062 C 
ATOM     20  C   UNL     1      -0.625  -1.606   2.581  0.00  0.00    +0.034 C 
ATOM     21  N   UNL     1       0.286  -0.858   3.081  0.00  0.00    -0.188 NA
BRANCH  21  22
ATOM     22  N   UNL     1       1.622  -1.028   2.694  0.00  0.00    -0.191 N 
ATOM     23  C   UNL     1       2.588  -0.275   3.257  0.00  0.00    +0.317 C 
ATOM     24  O   UNL     1       3.747  -0.422   2.921  0.00  0.00    -0.251 OA
ATOM     25  N   UNL     1       2.268   0.645   4.188  0.00  0.00    -0.312 N 
ATOM     26  H   UNL     1       1.852  -1.688   2.021  0.00  0.00    +0.179 HD
ATOM     27  H   UNL     1       1.343   0.765   4.453  0.00  0.00    +0.147 HD
ATOM     28  H   UNL     1       2.963   1.187   4.594  0.00  0.00    +0.147 HD
ENDBRANCH  21  22
ENDBRANCH  18  20
ENDBRANCH  17  18
ENDBRANCH   1  17
TORSDOF 5
