REMARK  Name = ZINC20806125
REMARK  12 active torsions:
REMARK  status: ('A' for Active; 'I' for Inactive)
REMARK    1  A    between atoms: C_1  and  C_2
REMARK    2  A    between atoms: C_2  and  C_4
REMARK    3  A    between atoms: C_2  and  N_10
REMARK    4  A    between atoms: C_11  and  C_13
REMARK    5  A    between atoms: C_13  and  S_14
REMARK    6  A    between atoms: S_14  and  C_15
REMARK    7  A    between atoms: N_19  and  N_20
REMARK    8  A    between atoms: N_21  and  N_22
REMARK    9  A    between atoms: C_23  and  C_24
REMARK   10  A    between atoms: C_27  and  C_30
REMARK   11  A    between atoms: C_30  and  O_32
REMARK   12  A    between atoms: O_32  and  C_33
REMARK                            x       y       z     vdW  Elec       q    Type
REMARK                         _______ _______ _______ _____ _____    ______ ____
ROOT
ATOM      1  C   UNL     1      -6.902   9.456   0.087  0.00  0.00    +0.210 A 
ATOM      2  N   UNL     1      -5.593   9.390   0.080  0.00  0.00    -0.119 NA
ATOM      3  N   UNL     1      -5.214   8.162   0.076  0.00  0.00    -0.109 NA
ATOM      4  C   UNL     1      -6.257   7.370   0.071  0.00  0.00    +0.254 A 
ATOM      5  N   UNL     1      -7.371   8.169   0.081  0.00  0.00    -0.211 N 
ATOM      6  N   UNL     1      -6.238   5.983   0.064  0.00  0.00    -0.204 N 
ATOM      7  H   UNL     1      -7.183   5.420   0.065  0.00  0.00    +0.177 HD
ENDROOT
BRANCH   5   8
ATOM      8  N   UNL     1      -8.677   7.766   0.084  0.00  0.00    -0.294 N 
ATOM      9  H   UNL     1      -8.921   6.694   0.078  0.00  0.00    +0.163 HD
ATOM     10  H   UNL     1      -9.483   8.514   0.091  0.00  0.00    +0.163 HD
ENDBRANCH   5   8
BRANCH   6  11
ATOM     11  N   UNL     1      -5.016   5.299   0.054  0.00  0.00    -0.188 NA
ATOM     12  C   UNL     1      -4.998   3.999   0.047  0.00  0.00    +0.138 C 
BRANCH  12  13
ATOM     13  C   UNL     1      -3.714   3.280   0.037  0.00  0.00    -0.005 A 
ATOM     14  C   UNL     1      -3.695   1.881   0.029  0.00  0.00    +0.010 A 
ATOM     15  C   UNL     1      -2.503   1.215   0.021  0.00  0.00    +0.015 A 
ATOM     16  C   UNL     1      -1.301   1.931   0.019  0.00  0.00    +0.059 A 
ATOM     17  C   UNL     1      -1.320   3.329   0.032  0.00  0.00    +0.015 A 
ATOM     18  C   UNL     1      -2.511   3.996   0.036  0.00  0.00    +0.010 A 
BRANCH  16  19
ATOM     19  C   UNL     1      -0.014   1.211   0.009  0.00  0.00    +0.339 C 
ATOM     20  O   UNL     1       0.002  -0.004   0.002  0.00  0.00    -0.245 OA
BRANCH  19  21
ATOM     21  O   UNL     1       1.143   1.901   0.001  0.00  0.00    -0.464 OA
ATOM     22  C   UNL     1       2.372   1.127  -0.015  0.00  0.00    +0.280 C 
ENDBRANCH  19  21
ENDBRANCH  16  19
ENDBRANCH  12  13
ENDBRANCH   6  11
BRANCH   1  23
ATOM     23  S   UNL     1      -7.875  10.925   0.099  0.00  0.00    -0.075 S 
BRANCH  23  24
ATOM     24  C   UNL     1      -6.563  12.171   0.101  0.00  0.00    +0.173 C 
BRANCH  24  26
ATOM     25  N   UNL     1      -6.387  14.639   0.114  0.00  0.00    -0.308 N 
ATOM     26  C   UNL     1      -7.178  13.547   0.111  0.00  0.00    +0.224 C 
ATOM     27  O   UNL     1      -8.384  13.673   0.116  0.00  0.00    -0.275 OA
ATOM     28  H   UNL     1      -5.293  14.525   0.110  0.00  0.00    +0.149 HD
BRANCH  25  30
ATOM     29  C   UNL     1      -7.301  16.382   1.565  0.00  0.00    +0.033 C 
ATOM     30  C   UNL     1      -6.984  15.976   0.124  0.00  0.00    +0.100 C 
BRANCH  30  31
ATOM     31  C   UNL     1      -6.016  16.963  -0.474  0.00  0.00    -0.027 A 
ATOM     32  C   UNL     1      -4.667  16.872  -0.182  0.00  0.00    +0.005 A 
ATOM     33  C   UNL     1      -3.778  17.775  -0.735  0.00  0.00    +0.000 A 
ATOM     34  C   UNL     1      -4.239  18.775  -1.571  0.00  0.00    +0.000 A 
ATOM     35  C   UNL     1      -5.587  18.869  -1.859  0.00  0.00    +0.000 A 
ATOM     36  C   UNL     1      -6.476  17.963  -1.310  0.00  0.00    +0.005 A 
ENDBRANCH  30  31
ENDBRANCH  25  30
ENDBRANCH  24  26
ENDBRANCH  23  24
ENDBRANCH   1  23
TORSDOF 10
