REMARK  Name = ZINC39325555
REMARK  12 active torsions:
REMARK  status: ('A' for Active; 'I' for Inactive)
REMARK    1  A    between atoms: C_1  and  C_2
REMARK    2  A    between atoms: C_6  and  C_8
REMARK    3  A    between atoms: C_8  and  C_9
REMARK    4  A    between atoms: C_9  and  N_10
REMARK    5  A    between atoms: N_10  and  C_11
REMARK    6  A    between atoms: N_10  and  S_26
REMARK    7  A    between atoms: C_11  and  C_12
REMARK    8  A    between atoms: C_17  and  O_24
REMARK    9  A    between atoms: O_24  and  C_25
REMARK   10  A    between atoms: S_26  and  C_29
REMARK   11  A    between atoms: C_32  and  O_35
REMARK   12  A    between atoms: O_35  and  C_36
REMARK                            x       y       z     vdW  Elec       q    Type
REMARK                         _______ _______ _______ _____ _____    ______ ____
ROOT
ATOM      1  N   UNL     1       1.503  -3.826   4.064  0.00  0.00    -0.175 NA
ENDROOT
BRANCH   1   2
ATOM      2  S   UNL     1       1.744  -2.903   5.417  0.00  0.00    +0.061 S 
ATOM      3  O   UNL     1       2.377  -3.742   6.373  0.00  0.00    -0.153 OA
ATOM      4  O   UNL     1       2.320  -1.680   4.978  0.00  0.00    -0.153 OA
BRANCH   2   5
ATOM      5  C   UNL     1       0.155  -2.507   6.068  0.00  0.00    +0.106 A 
ATOM      6  C   UNL     1      -0.497  -1.363   5.647  0.00  0.00    +0.032 A 
ATOM      7  C   UNL     1      -1.743  -1.050   6.156  0.00  0.00    +0.047 A 
ATOM      8  C   UNL     1      -2.339  -1.885   7.089  0.00  0.00    +0.120 A 
ATOM      9  C   UNL     1      -1.683  -3.032   7.510  0.00  0.00    +0.047 A 
ATOM     10  C   UNL     1      -0.439  -3.344   6.994  0.00  0.00    +0.032 A 
BRANCH   8  11
ATOM     11  O   UNL     1      -3.564  -1.579   7.592  0.00  0.00    -0.495 OA
ATOM     12  C   UNL     1      -4.117  -2.484   8.549  0.00  0.00    +0.277 C 
ENDBRANCH   8  11
ENDBRANCH   2   5
ENDBRANCH   1   2
BRANCH   1  13
ATOM     13  C   UNL     1       1.476  -3.195   2.742  0.00  0.00    +0.114 C 
BRANCH  13  14
ATOM     14  C   UNL     1       0.030  -2.864   2.364  0.00  0.00    +0.052 C 
BRANCH  14  20
ATOM     15  C   UNL     1       0.182   1.254  -0.476  0.00  0.00    +0.044 C 
ATOM     16  C   UNL     1       0.074  -0.245  -0.354  0.00  0.00    -0.050 A 
ATOM     17  C   UNL     1      -0.050  -1.023  -1.490  0.00  0.00    +0.003 A 
ATOM     18  C   UNL     1      -0.149  -2.397  -1.378  0.00  0.00    +0.001 A 
ATOM     19  C   UNL     1      -0.123  -2.993  -0.131  0.00  0.00    +0.004 A 
ATOM     20  C   UNL     1       0.002  -2.215   1.005  0.00  0.00    -0.046 A 
ATOM     21  C   UNL     1       0.105  -0.841   0.893  0.00  0.00    +0.007 A 
ENDBRANCH  14  20
ENDBRANCH  13  14
ENDBRANCH   1  13
BRANCH   1  22
ATOM     22  C   UNL     1       1.317  -5.274   4.188  0.00  0.00    +0.126 C 
BRANCH  22  23
ATOM     23  C   UNL     1       2.670  -5.975   4.055  0.00  0.00    +0.114 C 
ATOM     24  C   UNL     1       3.271  -5.579   2.721  0.00  0.00    -0.003 C 
ATOM     25  C   UNL     1       3.573  -6.582   1.849  0.00  0.00    -0.004 A 
ATOM     26  C   UNL     1       4.155  -6.287   0.539  0.00  0.00    +0.055 A 
ATOM     27  C   UNL     1       4.441  -7.321  -0.300  0.00  0.00    +0.121 A 
ATOM     28  C   UNL     1       4.188  -8.647   0.069  0.00  0.00    +0.047 A 
ATOM     29  C   UNL     1       3.649  -8.982   1.269  0.00  0.00    +0.027 A 
ATOM     30  C   UNL     1       3.318  -7.988   2.208  0.00  0.00    +0.041 A 
ATOM     31  N   UNL     1       2.790  -8.332   3.383  0.00  0.00    -0.284 N 
ATOM     32  C   UNL     1       2.455  -7.450   4.309  0.00  0.00    +0.225 C 
ATOM     33  O   UNL     1       1.976  -7.825   5.363  0.00  0.00    -0.275 OA
ATOM     34  H   UNL     1       2.644  -9.273   3.567  0.00  0.00    +0.155 HD
BRANCH  27  35
ATOM     35  O   UNL     1       4.982  -7.059  -1.519  0.00  0.00    -0.495 OA
ATOM     36  C   UNL     1       5.261  -8.181  -2.359  0.00  0.00    +0.277 C 
ENDBRANCH  27  35
ENDBRANCH  22  23
ENDBRANCH   1  22
TORSDOF 9
