REMARK  Name = ZINC02130563
REMARK  9 active torsions:
REMARK  status: ('A' for Active; 'I' for Inactive)
REMARK    1  A    between atoms: C_1  and  C_2
REMARK    2  A    between atoms: C_7  and  C_8
REMARK    3  A    between atoms: C_17  and  C_19
REMARK    4  A    between atoms: C_19  and  C_20
REMARK    5  A    between atoms: C_20  and  C_21
REMARK    6  A    between atoms: N_26  and  C_29
REMARK    7  A    between atoms: C_29  and  C_30
REMARK    8  A    between atoms: C_33  and  O_36
REMARK    9  A    between atoms: O_36  and  C_37
REMARK                            x       y       z     vdW  Elec       q    Type
REMARK                         _______ _______ _______ _____ _____    ______ ____
ROOT
ATOM      1  C   UNL     1       0.803  -4.000  -0.474  0.00  0.00    +0.044 C 
ATOM      2  C   UNL     1       0.410  -2.548  -0.394  0.00  0.00    -0.046 A 
ATOM      3  C   UNL     1      -0.920  -2.202  -0.242  0.00  0.00    +0.004 A 
ATOM      4  C   UNL     1      -1.281  -0.868  -0.168  0.00  0.00    +0.005 A 
ATOM      5  C   UNL     1      -0.317   0.112  -0.246  0.00  0.00    -0.027 A 
ATOM      6  C   UNL     1       1.025  -0.224  -0.398  0.00  0.00    +0.039 A 
ATOM      7  C   UNL     1       1.379  -1.569  -0.471  0.00  0.00    -0.026 A 
ATOM      8  C   UNL     1       2.826  -1.957  -0.636  0.00  0.00    +0.046 C 
ATOM      9  N   UNL     1       1.809   0.930  -0.451  0.00  0.00    -0.286 N 
ATOM     10  C   UNL     1       1.070   2.051  -0.344  0.00  0.00    +0.211 C 
ATOM     11  O   UNL     1       1.480   3.193  -0.356  0.00  0.00    -0.277 OA
ATOM     12  C   UNL     1      -0.362   1.613  -0.204  0.00  0.00    +0.050 C 
ATOM     13  C   UNL     1      -0.981   2.124   1.102  0.00  0.00    +0.088 C 
ATOM     14  C   UNL     1      -2.454   2.455   0.736  0.00  0.00    +0.073 C 
ATOM     15  C   UNL     1      -2.584   2.082  -0.756  0.00  0.00    -0.057 C 
ATOM     16  C   UNL     1      -3.248   1.470   1.565  0.00  0.00    +0.224 C 
ATOM     17  O   UNL     1      -4.457   1.386   1.584  0.00  0.00    -0.275 OA
ATOM     18  N   UNL     1      -2.408   0.707   2.273  0.00  0.00    -0.237 N 
ATOM     19  C   UNL     1      -1.113   0.986   2.087  0.00  0.00    +0.225 C 
ATOM     20  O   UNL     1      -0.189   0.415   2.626  0.00  0.00    -0.275 OA
ATOM     21  H   UNL     1       2.773   0.925  -0.554  0.00  0.00    +0.155 HD
ATOM     22  N   UNL     1      -1.210   2.147  -1.257  0.00  0.00    +0.394 N 
ATOM     23  H   UNL     1      -1.115   1.581  -2.109  0.00  0.00    -0.083 HD
ATOM     24  H   UNL     1      -0.952   3.119  -1.462  0.00  0.00    -0.083 HD
ENDROOT
BRANCH  15  25
ATOM     25  C   UNL     1      -3.489   3.082  -1.478  0.00  0.00    -0.006 C 
BRANCH  25  26
ATOM     26  C   UNL     1      -3.641   2.667  -2.943  0.00  0.00    +0.094 C 
BRANCH  26  27
ATOM     27  C   UNL     1      -4.533   3.652  -3.655  0.00  0.00    +0.210 C 
ATOM     28  O   UNL     1      -5.000   4.593  -3.049  0.00  0.00    -0.276 OA
ATOM     29  N   UNL     1      -4.810   3.487  -4.963  0.00  0.00    -0.329 N 
ATOM     30  H   UNL     1      -4.436   2.734  -5.447  0.00  0.00    +0.145 HD
ATOM     31  H   UNL     1      -5.384   4.121  -5.421  0.00  0.00    +0.145 HD
ENDBRANCH  26  27
ENDBRANCH  25  26
ENDBRANCH  15  25
BRANCH  18  32
ATOM     32  C   UNL     1      -2.870  -0.350   3.177  0.00  0.00    +0.151 C 
BRANCH  32  33
ATOM     33  C   UNL     1      -3.081   0.224   4.554  0.00  0.00    -0.029 A 
ATOM     34  C   UNL     1      -2.041   0.234   5.465  0.00  0.00    +0.009 A 
ATOM     35  C   UNL     1      -2.231   0.765   6.726  0.00  0.00    +0.046 A 
ATOM     36  C   UNL     1      -3.470   1.278   7.082  0.00  0.00    +0.120 A 
ATOM     37  C   UNL     1      -4.514   1.261   6.168  0.00  0.00    +0.046 A 
ATOM     38  C   UNL     1      -4.317   0.734   4.906  0.00  0.00    +0.009 A 
BRANCH  36  39
ATOM     39  O   UNL     1      -3.661   1.796   8.324  0.00  0.00    -0.495 OA
ATOM     40  C   UNL     1      -2.542   1.780   9.212  0.00  0.00    +0.277 C 
ENDBRANCH  36  39
ENDBRANCH  32  33
ENDBRANCH  18  32
TORSDOF 6
