REMARK  Name = ZINC09324668
REMARK  8 active torsions:
REMARK  status: ('A' for Active; 'I' for Inactive)
REMARK    1  A    between atoms: C_1  and  O_2
REMARK    2  A    between atoms: O_2  and  C_3
REMARK    3  A    between atoms: C_3  and  C_4
REMARK    4  A    between atoms: C_4  and  N_5
REMARK    5  A    between atoms: C_9  and  C_23
REMARK    6  A    between atoms: N_17  and  C_20
REMARK    7  A    between atoms: C_20  and  C_21
REMARK    8  A    between atoms: C_23  and  C_25
REMARK                            x       y       z     vdW  Elec       q    Type
REMARK                         _______ _______ _______ _____ _____    ______ ____
ROOT
ATOM      1  N   UNL     1      -5.228   3.668  -0.046  0.00  0.00    -0.271 N 
ATOM      2  C   UNL     1      -5.929   2.519   0.008  0.00  0.00    +0.288 C 
ATOM      3  O   UNL     1      -7.142   2.442   0.029  0.00  0.00    -0.266 OA
ATOM      4  C   UNL     1      -5.005   1.365   0.033  0.00  0.00    +0.250 C 
ATOM      5  C   UNL     1      -3.728   1.818   0.001  0.00  0.00    +0.089 C 
ATOM      6  C   UNL     1      -3.809   3.319  -0.055  0.00  0.00    +0.174 C 
ATOM      7  C   UNL     1      -3.079   3.951   1.099  0.00  0.00    +0.011 A 
ATOM      8  C   UNL     1      -3.221   3.867   2.466  0.00  0.00    +0.008 A 
ATOM      9  C   UNL     1      -2.378   4.587   3.295  0.00  0.00    +0.000 A 
ATOM     10  C   UNL     1      -1.394   5.389   2.747  0.00  0.00    +0.002 A 
ATOM     11  C   UNL     1      -1.247   5.474   1.378  0.00  0.00    +0.024 A 
ATOM     12  C   UNL     1      -2.093   4.754   0.536  0.00  0.00    +0.043 A 
ATOM     13  N   UNL     1      -2.144   4.676  -0.857  0.00  0.00    -0.265 N 
ATOM     14  C   UNL     1      -3.121   3.856  -1.284  0.00  0.00    +0.253 C 
ATOM     15  O   UNL     1      -3.396   3.598  -2.437  0.00  0.00    -0.272 OA
ATOM     16  O   UNL     1      -5.375   0.064   0.082  0.00  0.00    -0.282 OA
ENDROOT
BRANCH   5  17
ATOM     17  C   UNL     1      -2.507   1.005   0.013  0.00  0.00    +0.196 C 
ATOM     18  O   UNL     1      -1.849   0.911   1.032  0.00  0.00    -0.287 OA
BRANCH  17  19
ATOM     19  C   UNL     1      -2.078   0.300  -1.210  0.00  0.00    +0.026 A 
ATOM     20  C   UNL     1      -2.890   0.313  -2.348  0.00  0.00    +0.015 A 
ATOM     21  C   UNL     1      -2.490  -0.351  -3.486  0.00  0.00    +0.050 A 
ATOM     22  C   UNL     1      -1.276  -1.030  -3.511  0.00  0.00    +0.162 A 
ATOM     23  C   UNL     1      -0.459  -1.040  -2.383  0.00  0.00    +0.163 A 
ATOM     24  C   UNL     1      -0.855  -0.377  -1.237  0.00  0.00    +0.061 A 
ATOM     25  O   UNL     1       0.736  -1.693  -2.395  0.00  0.00    -0.485 OA
ATOM     26  C   UNL     1       0.933  -2.656  -3.436  0.00  0.00    +0.270 C 
ATOM     27  C   UNL     1       0.481  -2.029  -4.762  0.00  0.00    +0.270 C 
ATOM     28  O   UNL     1      -0.903  -1.681  -4.645  0.00  0.00    -0.485 OA
ENDBRANCH  17  19
ENDBRANCH   5  17
BRANCH   1  29
ATOM     29  C   UNL     1      -5.786   5.022  -0.089  0.00  0.00    +0.138 C 
BRANCH  29  30
ATOM     30  C   UNL     1      -6.004   5.438  -1.545  0.00  0.00    +0.178 C 
BRANCH  30  32
ATOM     31  C   UNL     1      -7.278   4.907  -3.504  0.00  0.00    +0.194 C 
ATOM     32  O   UNL     1      -6.998   4.600  -2.137  0.00  0.00    -0.381 OA
ENDBRANCH  30  32
ENDBRANCH  29  30
ENDBRANCH   1  29
BRANCH  13  33
ATOM     33  C   UNL     1      -1.239   5.404  -1.750  0.00  0.00    +0.140 C 
BRANCH  33  34
ATOM     34  C   UNL     1      -1.777   6.792  -1.988  0.00  0.00    -0.015 C 
ATOM     35  C   UNL     1      -1.027   7.837  -1.740  0.00  0.00    +0.005 C 
ENDBRANCH  33  34
ENDBRANCH  13  33
TORSDOF 7
