REMARK  Name = ZINC57562959
REMARK  14 active torsions:
REMARK  status: ('A' for Active; 'I' for Inactive)
REMARK    1  A    between atoms: C_1  and  C_2
REMARK    2  A    between atoms: C_5  and  N_9
REMARK    3  A    between atoms: N_9  and  C_10
REMARK    4  A    between atoms: C_10  and  C_11
REMARK    5  A    between atoms: N_13  and  C_14
REMARK    6  A    between atoms: N_13  and  C_18
REMARK    7  A    between atoms: C_14  and  C_15
REMARK    8  A    between atoms: C_15  and  O_16
REMARK    9  A    between atoms: O_16  and  C_17
REMARK   10  A    between atoms: C_19  and  N_31
REMARK   11  A    between atoms: N_20  and  C_27
REMARK   12  A    between atoms: C_27  and  C_28
REMARK   13  A    between atoms: C_28  and  C_29
REMARK   14  A    between atoms: C_28  and  C_30
REMARK                            x       y       z     vdW  Elec       q    Type
REMARK                         _______ _______ _______ _____ _____    ______ ____
ROOT
ATOM      1  C   UNL     1      -0.036  -6.361   1.521  0.00  0.00    +0.237 C 
ATOM      2  O   UNL     1       0.323  -6.540   0.376  0.00  0.00    -0.274 OA
ATOM      3  N   UNL     1      -0.151  -7.408   2.364  0.00  0.00    -0.261 N 
ENDROOT
BRANCH   3   4
ATOM      4  C   UNL     1       0.051  -8.722   1.889  0.00  0.00    +0.140 A 
ATOM      5  C   UNL     1      -0.796  -9.264   0.943  0.00  0.00    +0.127 A 
ATOM      6  N   UNL     1      -0.573 -10.546   0.499  0.00  0.00    -0.280 N 
ATOM      7  C   UNL     1       0.458 -11.264   0.981  0.00  0.00    +0.331 A 
ATOM      8  O   UNL     1       0.638 -12.396   0.576  0.00  0.00    -0.246 OA
ATOM      9  N   UNL     1       1.293 -10.752   1.903  0.00  0.00    -0.273 N 
ATOM     10  H   UNL     1       2.029 -11.290   2.234  0.00  0.00    +0.173 HD
ATOM     11  C   UNL     1       1.122  -9.499   2.367  0.00  0.00    +0.277 A 
ATOM     12  O   UNL     1       1.887  -9.043   3.200  0.00  0.00    -0.266 OA
BRANCH   5  13
ATOM     13  N   UNL     1      -1.849  -8.531   0.451  0.00  0.00    -0.343 N 
ATOM     14  H   UNL     1      -1.945  -7.596   0.694  0.00  0.00    +0.144 HD
ATOM     15  H   UNL     1      -2.496  -8.948  -0.139  0.00  0.00    +0.144 HD
ENDBRANCH   5  13
BRANCH   6  16
ATOM     16  C   UNL     1      -1.464 -11.135  -0.504  0.00  0.00    +0.131 C 
BRANCH  16  17
ATOM     17  C   UNL     1      -0.927 -10.829  -1.904  0.00  0.00    +0.003 C 
ATOM     18  C   UNL     1      -1.786 -11.547  -2.947  0.00  0.00    +0.009 C 
ATOM     19  C   UNL     1      -0.979  -9.320  -2.152  0.00  0.00    +0.009 C 
ENDBRANCH  16  17
ENDBRANCH   6  16
ENDBRANCH   3   4
BRANCH   1  20
ATOM     20  C   UNL     1      -0.353  -4.968   2.002  0.00  0.00    +0.198 C 
BRANCH  20  21
ATOM     21  N   UNL     1      -0.151  -4.016   0.907  0.00  0.00    -0.335 N 
ATOM     22  H   UNL     1       0.144  -4.331   0.039  0.00  0.00    +0.147 HD
BRANCH  21  27
ATOM     23  C   UNL     1      -1.098   1.513   1.745  0.00  0.00    +0.045 C 
ATOM     24  C   UNL     1      -0.846   0.044   1.523  0.00  0.00    -0.032 A 
ATOM     25  C   UNL     1      -0.425  -0.404   0.285  0.00  0.00    +0.006 A 
ATOM     26  C   UNL     1      -0.193  -1.750   0.077  0.00  0.00    +0.023 A 
ATOM     27  C   UNL     1      -0.384  -2.654   1.115  0.00  0.00    +0.029 A 
ATOM     28  C   UNL     1      -0.807  -2.202   2.357  0.00  0.00    +0.043 A 
ATOM     29  C   UNL     1      -1.032  -0.853   2.560  0.00  0.00    +0.046 A 
ATOM     30 CL   UNL     1      -1.555  -0.285   4.115  0.00  0.00    -0.083 Cl
ENDBRANCH  21  27
ENDBRANCH  20  21
ENDBRANCH   1  20
BRANCH   3  31
ATOM     31  C   UNL     1      -0.486  -7.182   3.772  0.00  0.00    +0.142 C 
BRANCH  31  32
ATOM     32  C   UNL     1      -2.007  -7.157   3.937  0.00  0.00    +0.178 C 
BRANCH  32  33
ATOM     33  O   UNL     1      -2.542  -8.445   3.623  0.00  0.00    -0.381 OA
ATOM     34  C   UNL     1      -3.963  -8.530   3.746  0.00  0.00    +0.194 C 
ENDBRANCH  32  33
ENDBRANCH  31  32
ENDBRANCH   3  31
TORSDOF 10
