REMARK  Name = ZINC16010184
REMARK  3 active torsions:
REMARK  status: ('A' for Active; 'I' for Inactive)
REMARK    1  A    between atoms: C_7  and  C_11
REMARK    2  A    between atoms: C_11  and  C_12
REMARK    3  A    between atoms: N_20  and  C_23
REMARK                            x       y       z     vdW  Elec       q    Type
REMARK                         _______ _______ _______ _____ _____    ______ ____
ROOT
ATOM      1  C   UNL     1       0.381  -3.914  -1.316  0.00  0.00    +0.072 C 
ATOM      2  C   UNL     1      -0.689  -5.007  -1.521  0.00  0.00    +0.108 C 
ATOM      3  C   UNL     1      -1.701  -4.391  -2.527  0.00  0.00    +0.123 C 
ATOM      4  C   UNL     1      -2.971  -4.274  -1.714  0.00  0.00    +0.233 C 
ATOM      5  O   UNL     1      -4.027  -3.841  -2.123  0.00  0.00    -0.274 OA
ATOM      6  N   UNL     1      -2.748  -4.723  -0.474  0.00  0.00    -0.210 N 
ATOM      7  C   UNL     1      -1.490  -5.167  -0.250  0.00  0.00    +0.232 C 
ATOM      8  O   UNL     1      -1.066  -5.618   0.793  0.00  0.00    -0.274 OA
ATOM      9  C   UNL     1      -1.140  -2.997  -2.834  0.00  0.00    +0.136 C 
ATOM     10  N   UNL     1      -0.299  -2.639  -1.667  0.00  0.00    -0.295 NA
ATOM     11  C   UNL     1      -0.364  -2.988  -4.120  0.00  0.00    +0.003 A 
ATOM     12  C   UNL     1       0.745  -3.673  -4.563  0.00  0.00    +0.008 A 
ATOM     13  C   UNL     1       1.240  -3.441  -5.835  0.00  0.00    +0.000 A 
ATOM     14  C   UNL     1       0.618  -2.520  -6.658  0.00  0.00    +0.002 A 
ATOM     15  C   UNL     1      -0.493  -1.831  -6.218  0.00  0.00    +0.023 A 
ATOM     16  C   UNL     1      -0.997  -2.058  -4.939  0.00  0.00    +0.039 A 
ATOM     17  N   UNL     1      -2.089  -1.494  -4.276  0.00  0.00    -0.283 N 
ATOM     18  C   UNL     1      -2.241  -1.992  -3.033  0.00  0.00    +0.243 C 
ATOM     19  O   UNL     1      -3.099  -1.688  -2.231  0.00  0.00    -0.273 OA
ATOM     20  H   UNL     1      -0.858  -2.303  -0.897  0.00  0.00    +0.124 HD
ATOM     21  H   UNL     1      -2.671  -0.822  -4.664  0.00  0.00    +0.155 HD
ENDROOT
BRANCH   6  22
ATOM     22  C   UNL     1      -3.741  -4.740   0.517  0.00  0.00    +0.045 A 
ATOM     23  C   UNL     1      -4.832  -5.590   0.393  0.00  0.00    +0.027 A 
ATOM     24  C   UNL     1      -5.809  -5.606   1.369  0.00  0.00    +0.041 A 
ATOM     25  C   UNL     1      -5.701  -4.775   2.472  0.00  0.00    +0.142 A 
ATOM     26  C   UNL     1      -4.614  -3.926   2.597  0.00  0.00    +0.078 A 
ATOM     27  C   UNL     1      -3.631  -3.911   1.625  0.00  0.00    +0.046 A 
ATOM     28 CL   UNL     1      -4.481  -2.884   3.980  0.00  0.00    -0.081 Cl
ATOM     29  F   UNL     1      -6.658  -4.791   3.425  0.00  0.00    -0.204 F 
ENDBRANCH   6  22
BRANCH   1  30
ATOM     30  C   UNL     1       0.841  -3.887   0.143  0.00  0.00    +0.056 C 
BRANCH  30  37
ATOM     31  C   UNL     1       0.860   0.743   0.878  0.00  0.00    +0.001 A 
ATOM     32  C   UNL     1       2.141   1.272   0.962  0.00  0.00    +0.002 A 
ATOM     33  C   UNL     1       3.247   0.460   0.833  0.00  0.00    +0.026 A 
ATOM     34  C   UNL     1       3.080  -0.904   0.617  0.00  0.00    +0.047 A 
ATOM     35  C   UNL     1       1.780  -1.435   0.532  0.00  0.00    +0.003 A 
ATOM     36  C   UNL     1       0.674  -0.594   0.666  0.00  0.00    +0.010 A 
ATOM     37  C   UNL     1       1.944  -2.873   0.304  0.00  0.00    -0.021 A 
ATOM     38  C   UNL     1       3.264  -3.116   0.265  0.00  0.00    +0.087 A 
ATOM     39  N   UNL     1       3.958  -1.952   0.450  0.00  0.00    -0.360 N 
ATOM     40  H   UNL     1       4.925  -1.876   0.462  0.00  0.00    +0.165 HD
ENDBRANCH  30  37
ENDBRANCH   1  30
TORSDOF 3
