REMARK  Name = ZINC13013262
REMARK  13 active torsions:
REMARK  status: ('A' for Active; 'I' for Inactive)
REMARK    1  A    between atoms: C_1  and  C_2
REMARK    2  A    between atoms: C_6  and  N_9
REMARK    3  A    between atoms: C_7  and  C_8
REMARK    4  A    between atoms: N_9  and  C_10
REMARK    5  A    between atoms: C_10  and  N_12
REMARK    6  A    between atoms: N_12  and  N_13
REMARK    7  A    between atoms: C_14  and  C_15
REMARK    8  A    between atoms: C_14  and  C_16
REMARK    9  A    between atoms: C_19  and  S_22
REMARK   10  A    between atoms: S_22  and  N_25
REMARK   11  A    between atoms: N_25  and  C_26
REMARK   12  A    between atoms: C_26  and  C_28
REMARK   13  A    between atoms: C_26  and  C_29
REMARK                            x       y       z     vdW  Elec       q    Type
REMARK                         _______ _______ _______ _____ _____    ______ ____
ROOT
ATOM      1  N   UNL     1       2.325   1.415   0.005  0.00  0.00    -0.185 NA
ATOM      2  C   UNL     1       3.422   2.109  -0.000  0.00  0.00    +0.063 C 
ATOM      3  C   UNL     1       3.398   3.553  -0.431  0.00  0.00    +0.068 C 
ENDROOT
BRANCH   2   4
ATOM      4  C   UNL     1       4.692   1.485   0.416  0.00  0.00    -0.002 A 
ATOM      5  C   UNL     1       5.875   2.227   0.405  0.00  0.00    +0.011 A 
ATOM      6  C   UNL     1       7.058   1.639   0.801  0.00  0.00    +0.029 A 
ATOM      7  C   UNL     1       7.077   0.312   1.196  0.00  0.00    +0.105 A 
ATOM      8  C   UNL     1       5.910  -0.431   1.203  0.00  0.00    +0.029 A 
ATOM      9  C   UNL     1       4.718   0.147   0.816  0.00  0.00    +0.011 A 
BRANCH   7  10
ATOM     10  S   UNL     1       8.594  -0.433   1.692  0.00  0.00    +0.059 S 
ATOM     11  O   UNL     1       9.445   0.622   2.119  0.00  0.00    -0.153 OA
ATOM     12  O   UNL     1       8.253  -1.525   2.536  0.00  0.00    -0.153 OA
BRANCH  10  13
ATOM     13  N   UNL     1       9.288  -1.082   0.336  0.00  0.00    -0.176 NA
ATOM     14  H   UNL     1       9.400  -2.043   0.261  0.00  0.00    +0.149 HD
BRANCH  13  15
ATOM     15  C   UNL     1       9.731  -0.206  -0.751  0.00  0.00    +0.186 C 
ATOM     16  C   UNL     1      11.220   0.103  -0.582  0.00  0.00    +0.038 C 
BRANCH  15  17
ATOM     17  C   UNL     1       9.508  -0.893  -2.073  0.00  0.00    +0.374 C 
ATOM     18  O   UNL     1       9.027  -2.002  -2.105  0.00  0.00    -0.245 OA
ATOM     19  O   UNL     1       9.842  -0.274  -3.216  0.00  0.00    -0.245 OA
ENDBRANCH  15  17
ENDBRANCH  13  15
ENDBRANCH  10  13
ENDBRANCH   7  10
ENDBRANCH   2   4
BRANCH   1  20
ATOM     20  N   UNL     1       1.119   2.008  -0.389  0.00  0.00    -0.218 N 
ATOM     21  H   UNL     1       1.104   2.937  -0.667  0.00  0.00    +0.176 HD
BRANCH  20  22
ATOM     22  C   UNL     1      -0.020   1.287  -0.384  0.00  0.00    +0.154 C 
ATOM     23  S   UNL     1      -1.492   2.010  -0.873  0.00  0.00    -0.017 S 
BRANCH  22  24
ATOM     24  N   UNL     1       0.002  -0.004   0.002  0.00  0.00    -0.295 N 
ATOM     25  H   UNL     1       0.847  -0.437   0.201  0.00  0.00    +0.154 HD
BRANCH  24  31
ATOM     26  C   UNL     1      -2.564  -4.114  -0.829  0.00  0.00    +0.044 C 
ATOM     27  C   UNL     1      -2.466  -2.715  -0.279  0.00  0.00    -0.046 A 
ATOM     28  C   UNL     1      -3.560  -2.137   0.339  0.00  0.00    +0.004 A 
ATOM     29  C   UNL     1      -3.474  -0.853   0.844  0.00  0.00    +0.002 A 
ATOM     30  C   UNL     1      -2.295  -0.143   0.735  0.00  0.00    +0.023 A 
ATOM     31  C   UNL     1      -1.194  -0.720   0.115  0.00  0.00    +0.036 A 
ATOM     32  C   UNL     1      -1.285  -2.008  -0.397  0.00  0.00    -0.026 A 
ATOM     33  C   UNL     1      -0.095  -2.636  -1.075  0.00  0.00    +0.046 C 
ENDBRANCH  24  31
ENDBRANCH  22  24
ENDBRANCH  20  22
ENDBRANCH   1  20
TORSDOF 9
