REMARK  Name = ZINC12426058
REMARK  8 active torsions:
REMARK  status: ('A' for Active; 'I' for Inactive)
REMARK    1  A    between atoms: C_3  and  C_6
REMARK    2  A    between atoms: N_8  and  N_9
REMARK    3  A    between atoms: C_10  and  C_12
REMARK    4  A    between atoms: C_12  and  O_13
REMARK    5  A    between atoms: O_13  and  C_14
REMARK    6  A    between atoms: C_14  and  C_16
REMARK    7  A    between atoms: C_16  and  C_17
REMARK    8  A    between atoms: C_24  and  C_29
REMARK                            x       y       z     vdW  Elec       q    Type
REMARK                         _______ _______ _______ _____ _____    ______ ____
ROOT
ATOM      1  C   UNL     1      -2.783   5.355   0.044  0.00  0.00    +0.309 C 
ATOM      2  O   UNL     1      -1.835   6.104   0.044  0.00  0.00    -0.251 OA
ENDROOT
BRANCH   1   3
ATOM      3  O   UNL     1      -2.589   4.027   0.036  0.00  0.00    -0.455 OA
BRANCH   3   4
ATOM      4  C   UNL     1      -1.214   3.562   0.027  0.00  0.00    +0.329 C 
BRANCH   4   6
ATOM      5  N   UNL     1      -0.017   1.397   0.010  0.00  0.00    -0.231 N 
ATOM      6  C   UNL     1      -1.193   2.055   0.019  0.00  0.00    +0.267 C 
ATOM      7  O   UNL     1      -2.235   1.434   0.020  0.00  0.00    -0.271 OA
ATOM      8  H   UNL     1       0.816   1.893   0.004  0.00  0.00    +0.173 HD
BRANCH   5  11
ATOM      9  C   UNL     1       1.178  -0.662  -0.013  0.00  0.00    +0.267 C 
ATOM     10  O   UNL     1       2.224  -0.039  -0.019  0.00  0.00    -0.268 OA
ATOM     11  N   UNL     1       0.002  -0.004   0.002  0.00  0.00    -0.230 N 
ATOM     12  H   UNL     1      -0.831  -0.500   0.007  0.00  0.00    +0.173 HD
BRANCH   9  15
ATOM     13  C   UNL     1       2.019  -4.333  -0.041  0.00  0.00    +0.008 A 
ATOM     14  C   UNL     1       2.286  -2.987  -0.042  0.00  0.00    +0.021 A 
ATOM     15  C   UNL     1       1.198  -2.128  -0.021  0.00  0.00    +0.075 A 
ATOM     16  S   UNL     1      -0.172  -3.271  -0.015  0.00  0.00    -0.092 S 
ATOM     17  C   UNL     1       0.727  -4.753  -0.031  0.00  0.00    +0.046 A 
ENDBRANCH   9  15
ENDBRANCH   5  11
ENDBRANCH   4   6
ENDBRANCH   3   4
ENDBRANCH   1   3
BRANCH   1  18
ATOM     18  C   UNL     1      -4.183   5.912   0.054  0.00  0.00    +0.144 C 
BRANCH  18  19
ATOM     19  C   UNL     1      -4.124   7.441   0.062  0.00  0.00    +0.148 C 
ATOM     20  C   UNL     1      -5.518   8.001   0.170  0.00  0.00    +0.231 C 
ATOM     21  O   UNL     1      -5.917   8.351   1.260  0.00  0.00    -0.274 OA
ATOM     22  N   UNL     1      -6.333   8.131  -0.872  0.00  0.00    -0.284 N 
ATOM     23  C   UNL     1      -6.018   7.896  -2.207  0.00  0.00    +0.047 A 
ATOM     24  C   UNL     1      -7.048   7.728  -3.128  0.00  0.00    +0.036 A 
ATOM     25  C   UNL     1      -6.761   7.473  -4.454  0.00  0.00    +0.057 A 
ATOM     26  C   UNL     1      -5.449   7.382  -4.883  0.00  0.00    +0.013 A 
ATOM     27  C   UNL     1      -4.416   7.551  -3.980  0.00  0.00    +0.017 A 
ATOM     28  C   UNL     1      -4.698   7.809  -2.649  0.00  0.00    +0.030 A 
ATOM     29  S   UNL     1      -3.384   8.032  -1.491  0.00  0.00    -0.110 S 
ATOM     30  H   UNL     1      -7.240   8.419  -0.683  0.00  0.00    +0.155 HD
BRANCH  25  31
ATOM     31  C   UNL     1      -7.885   7.291  -5.441  0.00  0.00    +0.417 C 
ATOM     32  F   UNL     1      -8.225   8.531  -5.995  0.00  0.00    -0.166 F 
ATOM     33  F   UNL     1      -7.477   6.423  -6.459  0.00  0.00    -0.166 F 
ATOM     34  F   UNL     1      -8.998   6.753  -4.787  0.00  0.00    -0.166 F 
ENDBRANCH  25  31
ENDBRANCH  18  19
ENDBRANCH   1  18
TORSDOF 8
