REMARK  Name = ZINC12570060
REMARK  8 active torsions:
REMARK  status: ('A' for Active; 'I' for Inactive)
REMARK    1  A    between atoms: C_1  and  C_2
REMARK    2  A    between atoms: C_2  and  C_4
REMARK    3  A    between atoms: C_2  and  O_23
REMARK    4  A    between atoms: N_6  and  C_7
REMARK    5  A    between atoms: C_7  and  N_9
REMARK    6  A    between atoms: N_9  and  N_10
REMARK    7  A    between atoms: C_11  and  C_13
REMARK    8  A    between atoms: O_23  and  C_24
REMARK                            x       y       z     vdW  Elec       q    Type
REMARK                         _______ _______ _______ _____ _____    ______ ____
ROOT
ATOM      1  C   UNL     1       2.483  -0.245  -2.759  0.00  0.00    +0.153 C 
ATOM      2  S   UNL     1       1.537  -0.912  -4.020  0.00  0.00    -0.017 S 
ENDROOT
BRANCH   1   5
ATOM      3  C   UNL     1       0.627  -0.284  -1.345  0.00  0.00    +0.259 C 
ATOM      4  O   UNL     1      -0.044  -0.756  -2.238  0.00  0.00    -0.271 OA
ATOM      5  N   UNL     1       1.928  -0.002  -1.556  0.00  0.00    -0.264 N 
ATOM      6  H   UNL     1       2.464   0.375  -0.841  0.00  0.00    +0.157 HD
BRANCH   3   8
ATOM      7  C   UNL     1       0.005   1.494   0.268  0.00  0.00    +0.062 C 
ATOM      8  C   UNL     1       0.005  -0.013   0.001  0.00  0.00    +0.256 C 
BRANCH   8   9
ATOM      9  O   UNL     1      -1.339  -0.499   0.012  0.00  0.00    -0.478 OA
BRANCH   9  10
ATOM     10  C   UNL     1      -1.869  -0.818   1.222  0.00  0.00    +0.140 A 
ATOM     11  C   UNL     1      -1.155  -0.562   2.383  0.00  0.00    +0.048 A 
ATOM     12  C   UNL     1      -1.696  -0.887   3.612  0.00  0.00    +0.023 A 
ATOM     13  C   UNL     1      -2.950  -1.468   3.686  0.00  0.00    +0.043 A 
ATOM     14  C   UNL     1      -3.665  -1.724   2.529  0.00  0.00    +0.043 A 
ATOM     15  C   UNL     1      -3.129  -1.395   1.298  0.00  0.00    +0.084 A 
ATOM     16 CL   UNL     1      -4.029  -1.711  -0.153  0.00  0.00    -0.080 Cl
ATOM     17 CL   UNL     1      -3.627  -1.875   5.232  0.00  0.00    -0.083 Cl
ENDBRANCH   9  10
ENDBRANCH   8   9
ENDBRANCH   3   8
ENDBRANCH   1   5
BRANCH   1  18
ATOM     18  N   UNL     1       3.784   0.037  -2.970  0.00  0.00    -0.245 N 
ATOM     19  H   UNL     1       4.184  -0.138  -3.836  0.00  0.00    +0.172 HD
BRANCH  18  20
ATOM     20  N   UNL     1       4.559   0.582  -1.938  0.00  0.00    -0.231 N 
ATOM     21  C   UNL     1       5.860   0.864  -2.149  0.00  0.00    +0.268 C 
ATOM     22  O   UNL     1       6.362   0.645  -3.235  0.00  0.00    -0.268 OA
ATOM     23  H   UNL     1       4.159   0.757  -1.072  0.00  0.00    +0.173 HD
BRANCH  21  24
ATOM     24  C   UNL     1       6.672   1.435  -1.067  0.00  0.00    +0.095 A 
ATOM     25  C   UNL     1       7.986   1.789  -1.089  0.00  0.00    +0.068 A 
ATOM     26  C   UNL     1       8.587   2.326   0.065  0.00  0.00    +0.008 A 
ATOM     27  C   UNL     1       9.929   2.750   0.239  0.00  0.00    +0.010 A 
ATOM     28  C   UNL     1      10.351   3.250   1.429  0.00  0.00    +0.001 A 
ATOM     29  C   UNL     1       9.492   3.366   2.516  0.00  0.00    +0.001 A 
ATOM     30  C   UNL     1       8.178   2.966   2.390  0.00  0.00    +0.016 A 
ATOM     31  C   UNL     1       7.736   2.456   1.187  0.00  0.00    +0.021 A 
ATOM     32  S   UNL     1       6.177   1.846   0.597  0.00  0.00    -0.082 S 
ATOM     33 CL   UNL     1       8.920   1.575  -2.537  0.00  0.00    -0.082 Cl
ENDBRANCH  21  24
ENDBRANCH  18  20
ENDBRANCH   1  18
TORSDOF 7
