REMARK  Name = ZINC09669643
REMARK  8 active torsions:
REMARK  status: ('A' for Active; 'I' for Inactive)
REMARK    1  A    between atoms: C_1  and  C_2
REMARK    2  A    between atoms: C_5  and  C_8
REMARK    3  A    between atoms: C_10  and  S_14
REMARK    4  A    between atoms: S_14  and  C_15
REMARK    5  A    between atoms: C_15  and  C_16
REMARK    6  A    between atoms: N_18  and  C_19
REMARK    7  A    between atoms: C_20  and  C_30
REMARK    8  A    between atoms: C_25  and  C_29
REMARK                            x       y       z     vdW  Elec       q    Type
REMARK                         _______ _______ _______ _____ _____    ______ ____
ROOT
ATOM      1  C   UNL     1       0.110  -8.062   4.470  0.00  0.00    +0.228 C 
ATOM      2  O   UNL     1       0.125  -9.223   4.121  0.00  0.00    -0.275 OA
ATOM      3  N   UNL     1       0.106  -7.753   5.782  0.00  0.00    -0.279 N 
ATOM      4  H   UNL     1       0.094  -6.824   6.061  0.00  0.00    +0.155 HD
ENDROOT
BRANCH   3   5
ATOM      5  C   UNL     1       0.120  -8.762   6.732  0.00  0.00    +0.084 A 
ATOM      6  C   UNL     1       0.113  -8.634   8.112  0.00  0.00    +0.068 A 
ATOM      7  C   UNL     1       0.130  -9.858   8.893  0.00  0.00    -0.023 A 
ATOM      8  C   UNL     1       0.151 -10.987   8.152  0.00  0.00    -0.004 A 
ATOM      9  S   UNL     1       0.141 -10.422   6.475  0.00  0.00    -0.077 S 
ATOM     10  C   UNL     1       0.171 -12.396   8.658  0.00  0.00    +0.046 C 
ATOM     11  C   UNL     1      -0.216 -12.380  10.144  0.00  0.00    -0.009 C 
ATOM     12  C   UNL     1       0.600 -11.298  10.857  0.00  0.00    +0.008 C 
ATOM     13  C   UNL     1       0.127  -9.912  10.414  0.00  0.00    +0.037 C 
ATOM     14  C   UNL     1       0.084 -13.745  10.766  0.00  0.00    +0.008 C 
BRANCH   6  15
ATOM     15  C   UNL     1       0.089  -7.317   8.757  0.00  0.00    +0.244 C 
ATOM     16  O   UNL     1      -0.975  -6.788   9.021  0.00  0.00    -0.270 OA
ATOM     17  N   UNL     1       1.245  -6.693   9.056  0.00  0.00    -0.325 N 
ATOM     18  H   UNL     1       2.093  -7.114   8.846  0.00  0.00    +0.145 HD
ATOM     19  H   UNL     1       1.229  -5.822   9.483  0.00  0.00    +0.145 HD
ENDBRANCH   6  15
ENDBRANCH   3   5
BRANCH   1  20
ATOM     20  C   UNL     1       0.095  -6.965   3.437  0.00  0.00    +0.173 C 
BRANCH  20  21
ATOM     21  S   UNL     1       0.105  -7.696   1.778  0.00  0.00    -0.077 S 
BRANCH  21  24
ATOM     22  C   UNL     1       0.059  -4.256  -0.021  0.00  0.00    +0.182 A 
ATOM     23  N   UNL     1       0.070  -5.042   1.065  0.00  0.00    -0.201 NA
ATOM     24  C   UNL     1       0.086  -6.304   0.698  0.00  0.00    +0.185 A 
ATOM     25  N   UNL     1       0.086  -6.347  -0.653  0.00  0.00    -0.253 N 
ATOM     26  H   UNL     1       0.096  -7.142  -1.209  0.00  0.00    +0.191 HD
ATOM     27  N   UNL     1       0.064  -5.014  -1.094  0.00  0.00    -0.152 NA
BRANCH  22  32
ATOM     28  C   UNL     1      -0.018   1.503   0.010  0.00  0.00    +0.044 C 
ATOM     29  C   UNL     1       0.002  -0.004   0.002  0.00  0.00    -0.050 A 
ATOM     30  C   UNL     1       0.006  -0.686  -1.201  0.00  0.00    +0.004 A 
ATOM     31  C   UNL     1       0.024  -2.067  -1.215  0.00  0.00    +0.012 A 
ATOM     32  C   UNL     1       0.040  -2.772  -0.013  0.00  0.00    +0.021 A 
ATOM     33  C   UNL     1       0.036  -2.080   1.196  0.00  0.00    +0.012 A 
ATOM     34  C   UNL     1       0.023  -0.700   1.198  0.00  0.00    +0.004 A 
ENDBRANCH  22  32
ENDBRANCH  21  24
ENDBRANCH  20  21
ENDBRANCH   1  20
TORSDOF 6
