REMARK  Name = ZINC60362433
REMARK  14 active torsions:
REMARK  status: ('A' for Active; 'I' for Inactive)
REMARK    1  A    between atoms: C_1  and  C_2
REMARK    2  A    between atoms: C_4  and  C_31
REMARK    3  A    between atoms: C_5  and  S_14
REMARK    4  A    between atoms: C_6  and  C_13
REMARK    5  A    between atoms: C_7  and  N_8
REMARK    6  A    between atoms: N_8  and  S_9
REMARK    7  A    between atoms: S_9  and  C_12
REMARK    8  A    between atoms: S_14  and  N_17
REMARK    9  A    between atoms: N_17  and  C_18
REMARK   10  A    between atoms: C_19  and  C_28
REMARK   11  A    between atoms: C_21  and  O_26
REMARK   12  A    between atoms: C_23  and  O_24
REMARK   13  A    between atoms: O_24  and  C_25
REMARK   14  A    between atoms: O_26  and  C_27
REMARK                            x       y       z     vdW  Elec       q    Type
REMARK                         _______ _______ _______ _____ _____    ______ ____
ROOT
ATOM      1  S   UNL     1       0.489  -4.651   0.792  0.00  0.00    +0.073 S 
ATOM      2  O   UNL     1       1.467  -4.939  -0.198  0.00  0.00    -0.150 OA
ATOM      3  O   UNL     1       0.805  -4.573   2.175  0.00  0.00    -0.150 OA
ENDROOT
BRANCH   1   8
ATOM      4  C   UNL     1      -1.978   0.647  -0.729  0.00  0.00    +0.046 C 
ATOM      5  C   UNL     1      -1.362  -0.674  -0.348  0.00  0.00    -0.025 A 
ATOM      6  C   UNL     1      -0.858  -1.510  -1.325  0.00  0.00    +0.010 A 
ATOM      7  C   UNL     1      -0.294  -2.723  -0.976  0.00  0.00    -0.023 A 
ATOM      8  C   UNL     1      -0.231  -3.103   0.352  0.00  0.00    +0.116 A 
ATOM      9  C   UNL     1      -0.733  -2.273   1.335  0.00  0.00    +0.001 A 
ATOM     10  C   UNL     1      -1.296  -1.051   0.988  0.00  0.00    +0.082 A 
ATOM     11  C   UNL     1      -0.665  -2.688   2.781  0.00  0.00    +0.048 C 
ATOM     12  C   UNL     1       0.254  -3.633  -2.045  0.00  0.00    +0.046 C 
BRANCH  10  13
ATOM     13  N   UNL     1      -1.800  -0.206   1.979  0.00  0.00    -0.102 NA
BRANCH  13  14
ATOM     14  S   UNL     1      -1.114   1.281   2.226  0.00  0.00    +0.059 S 
ATOM     15  O   UNL     1       0.266   1.014   2.437  0.00  0.00    -0.154 OA
ATOM     16  O   UNL     1      -1.539   2.065   1.120  0.00  0.00    -0.154 OA
ATOM     17  C   UNL     1      -1.872   1.896   3.755  0.00  0.00    +0.220 C 
ENDBRANCH  13  14
ENDBRANCH  10  13
ENDBRANCH   1   8
BRANCH   1  18
ATOM     18  N   UNL     1      -0.692  -5.801   0.639  0.00  0.00    -0.212 N 
ATOM     19  H   UNL     1      -0.596  -6.512  -0.013  0.00  0.00    +0.174 HD
BRANCH  18  20
ATOM     20  C   UNL     1      -1.824  -5.748   1.448  0.00  0.00    +0.104 A 
ATOM     21  C   UNL     1      -3.095  -5.601   0.872  0.00  0.00    +0.092 A 
ATOM     22  C   UNL     1      -4.227  -5.549   1.695  0.00  0.00    +0.063 A 
ATOM     23  C   UNL     1      -4.087  -5.643   3.066  0.00  0.00    +0.124 A 
ATOM     24  C   UNL     1      -2.826  -5.787   3.634  0.00  0.00    +0.093 A 
ATOM     25  C   UNL     1      -1.700  -5.846   2.833  0.00  0.00    +0.147 A 
BRANCH  21  26
ATOM     26  C   UNL     1      -3.238  -5.502  -0.588  0.00  0.00    +0.389 C 
ATOM     27  O   UNL     1      -4.335  -5.278  -1.082  0.00  0.00    -0.241 OA
ATOM     28  O   UNL     1      -2.260  -5.644  -1.310  0.00  0.00    -0.241 OA
ENDBRANCH  21  26
BRANCH  25  29
ATOM     29  O   UNL     1      -0.472  -5.993   3.396  0.00  0.00    -0.493 OA
ATOM     30  C   UNL     1      -0.419  -6.087   4.821  0.00  0.00    +0.277 C 
ENDBRANCH  25  29
BRANCH  23  31
ATOM     31  O   UNL     1      -5.187  -5.592   3.864  0.00  0.00    -0.495 OA
ATOM     32  C   UNL     1      -6.452  -5.442   3.216  0.00  0.00    +0.277 C 
ENDBRANCH  23  31
ENDBRANCH  18  20
ENDBRANCH   1  18
TORSDOF 8
