REMARK  Name = ZINC10278618
REMARK  5 active torsions:
REMARK  status: ('A' for Active; 'I' for Inactive)
REMARK    1  A    between atoms: C_4  and  C_7
REMARK    2  A    between atoms: C_7  and  C_8
REMARK    3  A    between atoms: C_8  and  C_30
REMARK    4  A    between atoms: N_11  and  C_15
REMARK    5  A    between atoms: C_15  and  C_16
REMARK                            x       y       z     vdW  Elec       q    Type
REMARK                         _______ _______ _______ _____ _____    ______ ____
ROOT
ATOM      1  C   UNL     1      -1.919   6.523  -4.364  0.00  0.00    +0.142 C 
ATOM      2  C   UNL     1      -2.892   5.915  -3.373  0.00  0.00    +0.252 C 
ATOM      3  O   UNL     1      -4.053   5.628  -3.569  0.00  0.00    -0.272 OA
ATOM      4  N   UNL     1      -2.197   5.761  -2.229  0.00  0.00    -0.215 N 
ATOM      5  C   UNL     1      -0.935   6.186  -2.356  0.00  0.00    +0.310 C 
ATOM      6  O   UNL     1      -0.116   6.152  -1.459  0.00  0.00    -0.252 OA
ATOM      7  N   UNL     1      -0.672   6.652  -3.591  0.00  0.00    -0.281 N 
ATOM      8  H   UNL     1       0.173   7.006  -3.909  0.00  0.00    +0.152 HD
ENDROOT
BRANCH   1   9
ATOM      9  C   UNL     1      -1.720   5.604  -5.542  0.00  0.00    -0.015 A 
ATOM     10  C   UNL     1      -2.533   5.720  -6.654  0.00  0.00    +0.006 A 
ATOM     11  C   UNL     1      -2.347   4.881  -7.737  0.00  0.00    +0.000 A 
ATOM     12  C   UNL     1      -1.354   3.919  -7.703  0.00  0.00    +0.000 A 
ATOM     13  C   UNL     1      -0.544   3.800  -6.589  0.00  0.00    +0.000 A 
ATOM     14  C   UNL     1      -0.727   4.643  -5.509  0.00  0.00    +0.006 A 
ENDBRANCH   1   9
BRANCH   1  15
ATOM     15  C   UNL     1      -2.411   7.894  -4.830  0.00  0.00    +0.075 C 
BRANCH  15  19
ATOM     16  C   UNL     1      -2.479  10.586  -1.514  0.00  0.00    +0.000 A 
ATOM     17  C   UNL     1      -1.341  10.474  -2.290  0.00  0.00    +0.000 A 
ATOM     18  C   UNL     1      -1.318   9.603  -3.363  0.00  0.00    +0.004 A 
ATOM     19  C   UNL     1      -2.435   8.844  -3.660  0.00  0.00    -0.045 A 
ATOM     20  C   UNL     1      -3.575   8.960  -2.888  0.00  0.00    +0.004 A 
ATOM     21  C   UNL     1      -3.596   9.827  -1.811  0.00  0.00    +0.000 A 
ENDBRANCH  15  19
ENDBRANCH   1  15
BRANCH   4  22
ATOM     22  C   UNL     1      -2.756   5.201  -0.996  0.00  0.00    +0.213 C 
BRANCH  22  23
ATOM     23  C   UNL     1      -2.558   3.708  -0.986  0.00  0.00    +0.234 C 
ATOM     24  O   UNL     1      -2.003   3.164  -1.918  0.00  0.00    -0.274 OA
ATOM     25  N   UNL     1      -2.996   2.976   0.058  0.00  0.00    -0.297 N 
ATOM     26  C   UNL     1      -3.766   3.601   1.143  0.00  0.00    +0.108 C 
ATOM     27  C   UNL     1      -3.099   3.266   2.480  0.00  0.00    +0.019 C 
ATOM     28  C   UNL     1      -2.941   1.749   2.607  0.00  0.00    +0.007 C 
ATOM     29  C   UNL     1      -2.040   1.238   1.477  0.00  0.00    +0.010 C 
ATOM     30  C   UNL     1      -2.715   1.538   0.137  0.00  0.00    +0.079 C 
ATOM     31  C   UNL     1      -1.813   1.114  -1.018  0.00  0.00    +0.023 C 
ATOM     32  C   UNL     1      -0.476   1.852  -0.932  0.00  0.00    +0.002 C 
ATOM     33  C   UNL     1       0.201   1.514   0.398  0.00  0.00    +0.000 C 
ATOM     34  C   UNL     1      -0.695   1.967   1.551  0.00  0.00    +0.005 C 
ENDBRANCH  22  23
ENDBRANCH   4  22
TORSDOF 5
