REMARK  Name = ZINC08711546
REMARK  7 active torsions:
REMARK  status: ('A' for Active; 'I' for Inactive)
REMARK    1  A    between atoms: C_1  and  O_2
REMARK    2  A    between atoms: O_2  and  C_3
REMARK    3  A    between atoms: C_6  and  C_9
REMARK    4  A    between atoms: C_12  and  C_14
REMARK    5  A    between atoms: C_12  and  O_18
REMARK    6  A    between atoms: C_21  and  C_24
REMARK    7  A    between atoms: C_28  and  N_30
REMARK                            x       y       z     vdW  Elec       q    Type
REMARK                         _______ _______ _______ _____ _____    ______ ____
ROOT
ATOM      1  C   UNL     1      -2.927  -5.724  -0.006  0.00  0.00    +0.071 C 
ATOM      2  N   UNL     1      -2.067  -4.730  -0.008  0.00  0.00    -0.179 NA
ATOM      3  N   UNL     1      -0.832  -5.058  -0.020  0.00  0.00    -0.160 N 
ATOM      4  C   UNL     1      -0.683  -6.521  -0.035  0.00  0.00    +0.256 C 
ATOM      5  C   UNL     1      -2.143  -7.023  -0.019  0.00  0.00    +0.124 C 
ATOM      6  C   UNL     1       0.189  -4.186  -0.024  0.00  0.00    +0.184 A 
ATOM      7  N   UNL     1       0.151  -2.849  -0.011  0.00  0.00    -0.223 NA
ATOM      8  C   UNL     1       1.254  -2.159  -0.022  0.00  0.00    +0.080 A 
ATOM      9  C   UNL     1       2.492  -2.867  -0.037  0.00  0.00    +0.077 A 
ATOM     10  S   UNL     1       1.944  -4.515  -0.042  0.00  0.00    -0.058 S 
ENDROOT
BRANCH   1  14
ATOM     11  C   UNL     1      -7.090  -5.369   0.031  0.00  0.00    +0.120 A 
ATOM     12  C   UNL     1      -6.295  -4.221   0.030  0.00  0.00    +0.046 A 
ATOM     13  C   UNL     1      -4.937  -4.329   0.018  0.00  0.00    +0.013 A 
ATOM     14  C   UNL     1      -4.335  -5.604   0.007  0.00  0.00    -0.002 A 
ATOM     15  C   UNL     1      -5.144  -6.759   0.003  0.00  0.00    +0.013 A 
ATOM     16  C   UNL     1      -6.501  -6.635   0.019  0.00  0.00    +0.046 A 
BRANCH  11  18
ATOM     17  C   UNL     1      -9.194  -6.467   0.043  0.00  0.00    +0.277 C 
ATOM     18  O   UNL     1      -8.440  -5.254   0.043  0.00  0.00    -0.495 OA
ENDBRANCH  11  18
ENDBRANCH   1  14
BRANCH   8  19
ATOM     19  C   UNL     1       1.226  -0.684  -0.013  0.00  0.00    +0.003 A 
ATOM     20  C   UNL     1       0.002  -0.004   0.002  0.00  0.00    +0.010 A 
ATOM     21  C   UNL     1      -0.017   1.374   0.010  0.00  0.00    +0.003 A 
ATOM     22  C   UNL     1       1.171   2.086   0.002  0.00  0.00    +0.033 A 
ATOM     23  C   UNL     1       2.386   1.421  -0.013  0.00  0.00    +0.127 A 
ATOM     24  C   UNL     1       2.421   0.043  -0.021  0.00  0.00    +0.042 A 
BRANCH  23  25
ATOM     25  N   UNL     1       3.650   2.192  -0.021  0.00  0.00    +0.056 N 
ATOM     26  O   UNL     1       4.806   1.561  -0.036  0.00  0.00    -0.126 OA
ATOM     27  O   UNL     1       3.618   3.509  -0.014  0.00  0.00    -0.126 OA
ENDBRANCH  23  25
ENDBRANCH   8  19
BRANCH   4  28
ATOM     28  C   UNL     1       0.065  -7.001   1.211  0.00  0.00    +0.438 C 
ATOM     29  F   UNL     1      -0.634  -6.602   2.356  0.00  0.00    -0.166 F 
ATOM     30  F   UNL     1       0.163  -8.396   1.187  0.00  0.00    -0.166 F 
ATOM     31  F   UNL     1       1.347  -6.443   1.229  0.00  0.00    -0.166 F 
ENDBRANCH   4  28
BRANCH   4  32
ATOM     32  O   UNL     1      -0.013  -6.948  -1.223  0.00  0.00    -0.363 OA
ATOM     33  H   UNL     1       0.884  -6.598  -1.316  0.00  0.00    +0.212 HD
ENDBRANCH   4  32
TORSDOF 6
