REMARK  Name = ZINC12203586
REMARK  10 active torsions:
REMARK  status: ('A' for Active; 'I' for Inactive)
REMARK    1  A    between atoms: C_1  and  C_2
REMARK    2  A    between atoms: C_4  and  C_7
REMARK    3  A    between atoms: C_7  and  C_8
REMARK    4  A    between atoms: C_13  and  O_16
REMARK    5  A    between atoms: O_16  and  C_17
REMARK    6  A    between atoms: C_20  and  C_23
REMARK    7  A    between atoms: C_23  and  N_66
REMARK    8  A    between atoms: C_24  and  N_66
REMARK    9  A    between atoms: C_25  and  C_26
REMARK   10  A    between atoms: C_25  and  N_66
REMARK                            x       y       z     vdW  Elec       q    Type
REMARK                         _______ _______ _______ _____ _____    ______ ____
ROOT
ATOM      1  C   UNL     1      -8.463   3.067  -5.376  0.00  0.00    +0.121 A 
ATOM      2  C   UNL     1      -8.115   1.933  -4.656  0.00  0.00    +0.046 A 
ATOM      3  C   UNL     1      -7.674   2.052  -3.353  0.00  0.00    +0.005 A 
ATOM      4  C   UNL     1      -7.579   3.300  -2.765  0.00  0.00    -0.064 A 
ATOM      5  C   UNL     1      -7.930   4.431  -3.478  0.00  0.00    +0.005 A 
ATOM      6  C   UNL     1      -8.367   4.318  -4.784  0.00  0.00    +0.046 A 
ENDROOT
BRANCH   1   7
ATOM      7  O   UNL     1      -8.897   2.952  -6.659  0.00  0.00    -0.489 OA
BRANCH   7  13
ATOM      8  C   UNL     1      -8.846  -0.867 -10.418  0.00  0.00    +0.221 C 
ATOM      9  O   UNL     1      -9.751  -0.864 -11.225  0.00  0.00    -0.275 OA
ATOM     10  N   UNL     1      -9.037  -0.344  -9.190  0.00  0.00    -0.301 N 
ATOM     11  C   UNL     1     -10.335   0.233  -8.815  0.00  0.00    +0.111 C 
ATOM     12  C   UNL     1     -10.111   1.657  -8.299  0.00  0.00    +0.063 C 
ATOM     13  C   UNL     1      -9.085   1.629  -7.164  0.00  0.00    +0.176 C 
ATOM     14  C   UNL     1      -7.753   1.091  -7.692  0.00  0.00    +0.063 C 
ATOM     15  C   UNL     1      -7.950  -0.340  -8.202  0.00  0.00    +0.111 C 
BRANCH   8  16
ATOM     16  C   UNL     1      -7.509  -1.455 -10.787  0.00  0.00    +0.151 C 
BRANCH  16  20
ATOM     17  C   UNL     1      -9.503  -4.272 -14.409  0.00  0.00    +0.073 C 
ATOM     18  C   UNL     1      -8.534  -3.288 -13.806  0.00  0.00    +0.076 A 
ATOM     19  N   UNL     1      -8.475  -2.838 -12.574  0.00  0.00    -0.249 NA
ATOM     20  C   UNL     1      -7.559  -1.967 -12.204  0.00  0.00    +0.057 A 
ATOM     21  C   UNL     1      -6.658  -1.547 -13.128  0.00  0.00    +0.070 A 
ATOM     22  S   UNL     1      -7.204  -2.465 -14.560  0.00  0.00    -0.081 S 
ENDBRANCH  16  20
ENDBRANCH   8  16
ENDBRANCH   7  13
ENDBRANCH   1   7
BRANCH   4  23
ATOM     23  C   UNL     1      -7.097   3.427  -1.343  0.00  0.00    -0.043 C 
BRANCH  23  25
ATOM     24  C   UNL     1      -5.237   4.853  -1.952  0.00  0.00    -0.095 C 
ATOM     25  N   UNL     1      -5.625   3.560  -1.348  0.00  0.00    +0.384 N 
ATOM     26  H   UNL     1      -5.223   2.798  -1.906  0.00  0.00    -0.081 HD
BRANCH  25  27
ATOM     27  C   UNL     1      -5.104   3.471   0.032  0.00  0.00    -0.036 C 
BRANCH  27  28
ATOM     28  C   UNL     1      -3.600   3.388  -0.019  0.00  0.00    -0.026 A 
ATOM     29  C   UNL     1      -2.712   4.392   0.014  0.00  0.00    +0.017 A 
ATOM     30  C   UNL     1      -1.290   4.088  -0.049  0.00  0.00    -0.011 A 
ATOM     31  C   UNL     1      -0.192   4.980  -0.028  0.00  0.00    +0.009 A 
ATOM     32  C   UNL     1       1.083   4.513  -0.096  0.00  0.00    +0.001 A 
ATOM     33  C   UNL     1       1.356   3.155  -0.186  0.00  0.00    +0.001 A 
ATOM     34  C   UNL     1       0.311   2.252  -0.208  0.00  0.00    +0.015 A 
ATOM     35  C   UNL     1      -0.986   2.712  -0.146  0.00  0.00    +0.020 A 
ATOM     36  S   UNL     1      -2.579   1.932  -0.139  0.00  0.00    -0.095 S 
ENDBRANCH  27  28
ENDBRANCH  25  27
ENDBRANCH  23  25
ENDBRANCH   4  23
TORSDOF 8
