REMARK  Name = ZINC39771886
REMARK  14 active torsions:
REMARK  status: ('A' for Active; 'I' for Inactive)
REMARK    1  A    between atoms: C_1  and  C_2
REMARK    2  A    between atoms: C_4  and  C_12
REMARK    3  A    between atoms: C_12  and  C_14
REMARK    4  A    between atoms: C_14  and  C_16
REMARK    5  A    between atoms: C_14  and  S_17
REMARK    6  A    between atoms: S_17  and  C_18
REMARK    7  A    between atoms: C_22  and  C_34
REMARK    8  A    between atoms: N_28  and  C_29
REMARK    9  A    between atoms: C_29  and  C_30
REMARK   10  A    between atoms: C_30  and  C_31
REMARK   11  A    between atoms: C_31  and  O_32
REMARK   12  A    between atoms: O_32  and  C_33
REMARK   13  A    between atoms: C_34  and  O_36
REMARK   14  A    between atoms: O_36  and  C_37
REMARK                            x       y       z     vdW  Elec       q    Type
REMARK                         _______ _______ _______ _____ _____    ______ ____
ROOT
ATOM      1  C   UNL     1      -6.506  -1.020  -1.369  0.00  0.00    +0.173 A 
ATOM      2  N   UNL     1      -6.456  -2.031  -0.537  0.00  0.00    -0.223 NA
ATOM      3  C   UNL     1      -7.566  -2.729  -0.203  0.00  0.00    +0.080 A 
ATOM      4  C   UNL     1      -7.510  -3.807   0.685  0.00  0.00    +0.043 A 
ATOM      5  C   UNL     1      -8.675  -4.495   0.999  0.00  0.00    +0.061 A 
ATOM      6  C   UNL     1      -9.899  -4.114   0.433  0.00  0.00    +0.016 A 
ATOM      7  C   UNL     1      -9.966  -3.063  -0.436  0.00  0.00    +0.016 A 
ATOM      8  C   UNL     1      -8.808  -2.359  -0.765  0.00  0.00    +0.065 A 
ATOM      9  C   UNL     1      -8.835  -1.220  -1.696  0.00  0.00    +0.262 A 
ATOM     10  O   UNL     1      -9.874  -0.853  -2.213  0.00  0.00    -0.267 OA
ATOM     11  N   UNL     1      -7.664  -0.593  -1.953  0.00  0.00    -0.287 N 
ENDROOT
BRANCH   5  12
ATOM     12  C   UNL     1      -8.624  -5.637   1.938  0.00  0.00    +0.339 C 
ATOM     13  O   UNL     1      -7.566  -5.971   2.432  0.00  0.00    -0.245 OA
BRANCH  12  14
ATOM     14  O   UNL     1      -9.751  -6.307   2.246  0.00  0.00    -0.464 OA
ATOM     15  C   UNL     1      -9.628  -7.399   3.160  0.00  0.00    +0.280 C 
ENDBRANCH  12  14
ENDBRANCH   5  12
BRANCH   1  16
ATOM     16  S   UNL     1      -5.011  -0.167  -1.747  0.00  0.00    -0.076 S 
BRANCH  16  17
ATOM     17  C   UNL     1      -3.750  -1.043  -0.781  0.00  0.00    +0.122 C 
ATOM     18  C   UNL     1      -3.615  -2.477  -1.298  0.00  0.00    +0.028 C 
BRANCH  17  19
ATOM     19  C   UNL     1      -2.428  -0.333  -0.919  0.00  0.00    +0.175 C 
ATOM     20  O   UNL     1      -2.205   0.350  -1.898  0.00  0.00    -0.291 OA
BRANCH  19  23
ATOM     21  C   UNL     1      -0.363   1.777   0.267  0.00  0.00    +0.035 C 
ATOM     22  C   UNL     1      -0.127   0.268   0.180  0.00  0.00    +0.111 C 
ATOM     23  C   UNL     1      -1.450  -0.461   0.090  0.00  0.00    +0.027 C 
ATOM     24  C   UNL     1      -1.499  -1.280   1.204  0.00  0.00    +0.006 A 
ATOM     25  C   UNL     1      -2.464  -2.197   1.682  0.00  0.00    +0.010 A 
ATOM     26  C   UNL     1      -2.246  -2.879   2.829  0.00  0.00    +0.001 A 
ATOM     27  C   UNL     1      -1.078  -2.719   3.591  0.00  0.00    +0.002 A 
ATOM     28  C   UNL     1      -0.095  -1.869   3.222  0.00  0.00    +0.026 A 
ATOM     29  C   UNL     1      -0.252  -1.087   1.985  0.00  0.00    +0.043 A 
ATOM     30  N   UNL     1       0.521  -0.213   1.404  0.00  0.00    -0.377 N 
ATOM     31  H   UNL     1       1.388   0.075   1.730  0.00  0.00    +0.160 HD
ENDBRANCH  19  23
ENDBRANCH  17  19
ENDBRANCH  16  17
ENDBRANCH   1  16
BRANCH  11  32
ATOM     32  C   UNL     1      -7.638   0.550  -2.869  0.00  0.00    +0.129 C 
BRANCH  32  33
ATOM     33  C   UNL     1      -7.399   0.054  -4.297  0.00  0.00    +0.050 C 
BRANCH  33  34
ATOM     34  C   UNL     1      -7.372   1.248  -5.254  0.00  0.00    +0.161 C 
BRANCH  34  35
ATOM     35  O   UNL     1      -7.149   0.784  -6.587  0.00  0.00    -0.383 OA
ATOM     36  C   UNL     1      -7.106   1.826  -7.564  0.00  0.00    +0.193 C 
ENDBRANCH  34  35
ENDBRANCH  33  34
ENDBRANCH  32  33
ENDBRANCH  11  32
TORSDOF 10
