REMARK  Name = ZINC34697824
REMARK  7 active torsions:
REMARK  status: ('A' for Active; 'I' for Inactive)
REMARK    1  A    between atoms: C_1  and  C_2
REMARK    2  A    between atoms: C_5  and  C_8
REMARK    3  A    between atoms: C_13  and  C_15
REMARK    4  A    between atoms: C_15  and  N_16
REMARK    5  A    between atoms: N_16  and  C_17
REMARK    6  A    between atoms: N_16  and  C_18
REMARK    7  A    between atoms: C_24  and  C_26
REMARK                            x       y       z     vdW  Elec       q    Type
REMARK                         _______ _______ _______ _____ _____    ______ ____
ROOT
ATOM      1  C   UNL     1       0.097  -4.276   0.161  0.00  0.00    +0.039 C 
ATOM      2  C   UNL     1      -1.020  -4.814   1.080  0.00  0.00    +0.116 C 
ATOM      3  N   UNL     1      -0.423  -5.998   1.741  0.00  0.00    -0.300 N 
ATOM      4  C   UNL     1       0.972  -5.590   2.031  0.00  0.00    +0.110 C 
ATOM      5  C   UNL     1       1.411  -4.787   0.785  0.00  0.00    -0.001 C 
ATOM      6  C   UNL     1      -1.014  -7.178   2.015  0.00  0.00    +0.219 C 
ATOM      7  O   UNL     1      -0.385  -8.057   2.566  0.00  0.00    -0.275 OA
ENDROOT
BRANCH   1  12
ATOM      8  C   UNL     1       0.022   1.502   0.084  0.00  0.00    +0.044 C 
ATOM      9  C   UNL     1       0.042  -0.004   0.104  0.00  0.00    -0.050 A 
ATOM     10  C   UNL     1      -0.077  -0.713  -1.077  0.00  0.00    +0.003 A 
ATOM     11  C   UNL     1      -0.059  -2.095  -1.059  0.00  0.00    +0.004 A 
ATOM     12  C   UNL     1       0.078  -2.769   0.141  0.00  0.00    -0.043 A 
ATOM     13  C   UNL     1       0.199  -2.060   1.321  0.00  0.00    +0.004 A 
ATOM     14  C   UNL     1       0.185  -0.678   1.303  0.00  0.00    +0.003 A 
ENDBRANCH   1  12
BRANCH   6  15
ATOM     15  C   UNL     1      -2.455  -7.404   1.637  0.00  0.00    +0.075 C 
ATOM     16  C   UNL     1      -3.363  -6.419   2.402  0.00  0.00    +0.013 C 
ATOM     17  C   UNL     1      -4.631  -7.246   2.729  0.00  0.00    +0.001 C 
ATOM     18  C   UNL     1      -4.051  -8.645   3.058  0.00  0.00    +0.001 C 
ATOM     19  C   UNL     1      -2.892  -8.819   2.054  0.00  0.00    +0.013 C 
ENDBRANCH   6  15
BRANCH   5  20
ATOM     20  C   UNL     1       2.151  -5.694  -0.201  0.00  0.00    -0.073 C 
BRANCH  20  21
ATOM     21  N   UNL     1       2.576  -4.907  -1.366  0.00  0.00    +0.380 N 
ATOM     22  C   UNL     1       3.572  -3.912  -0.947  0.00  0.00    -0.096 C 
ATOM     23  H   UNL     1       1.777  -4.437  -1.764  0.00  0.00    -0.082 HD
BRANCH  21  24
ATOM     24  C   UNL     1       3.168  -5.801  -2.370  0.00  0.00    -0.069 C 
ATOM     25  C   UNL     1       3.611  -4.981  -3.584  0.00  0.00    -0.015 C 
ATOM     26  C   UNL     1       4.228  -5.911  -4.630  0.00  0.00    -0.002 C 
ATOM     27  C   UNL     1       3.190  -6.948  -5.066  0.00  0.00    -0.000 C 
ATOM     28  C   UNL     1       2.747  -7.768  -3.853  0.00  0.00    -0.002 C 
ATOM     29  C   UNL     1       2.131  -6.837  -2.806  0.00  0.00    -0.015 C 
ENDBRANCH  21  24
ENDBRANCH  20  21
ENDBRANCH   5  20
TORSDOF 5
