REMARK  Name = ZINC40085732
REMARK  13 active torsions:
REMARK  status: ('A' for Active; 'I' for Inactive)
REMARK    1  A    between atoms: C_1  and  C_2
REMARK    2  A    between atoms: C_2  and  O_3
REMARK    3  A    between atoms: O_3  and  C_4
REMARK    4  A    between atoms: C_7  and  C_11
REMARK    5  A    between atoms: C_9  and  C_10
REMARK    6  A    between atoms: C_11  and  C_13
REMARK    7  A    between atoms: N_17  and  C_30
REMARK    8  A    between atoms: C_18  and  C_20
REMARK    9  A    between atoms: C_22  and  O_28
REMARK   10  A    between atoms: C_23  and  O_27
REMARK   11  A    between atoms: O_28  and  C_29
REMARK   12  A    between atoms: C_30  and  C_31
REMARK   13  A    between atoms: C_31  and  O_32
REMARK                            x       y       z     vdW  Elec       q    Type
REMARK                         _______ _______ _______ _____ _____    ______ ____
ROOT
ATOM      1  C   UNL     1       0.333  -6.579  -0.719  0.00  0.00    +0.076 C 
ATOM      2  C   UNL     1       0.765  -7.861  -0.714  0.00  0.00    +0.249 C 
ATOM      3  C   UNL     1       0.302  -8.524   0.523  0.00  0.00    +0.288 C 
ATOM      4  O   UNL     1       0.528  -9.681   0.821  0.00  0.00    -0.266 OA
ATOM      5  N   UNL     1      -0.408  -7.659   1.270  0.00  0.00    -0.281 N 
ATOM      6  C   UNL     1      -0.442  -6.374   0.562  0.00  0.00    +0.145 C 
ATOM      7  O   UNL     1       1.504  -8.443  -1.686  0.00  0.00    -0.282 OA
ENDROOT
BRANCH   6   8
ATOM      8  C   UNL     1       0.210  -5.302   1.396  0.00  0.00    -0.018 A 
ATOM      9  C   UNL     1      -0.488  -4.149   1.705  0.00  0.00    +0.055 A 
ATOM     10  C   UNL     1       0.110  -3.162   2.472  0.00  0.00    +0.163 A 
ATOM     11  C   UNL     1       1.412  -3.334   2.931  0.00  0.00    +0.173 A 
ATOM     12  C   UNL     1       2.106  -4.492   2.618  0.00  0.00    +0.063 A 
ATOM     13  C   UNL     1       1.502  -5.476   1.856  0.00  0.00    +0.025 A 
ATOM     14 BR   UNL     1       3.877  -4.731   3.239  0.00  0.00    -0.046 Br
BRANCH  11  15
ATOM     15  O   UNL     1       2.003  -2.367   3.683  0.00  0.00    -0.503 OA
ATOM     16  H   UNL     1       1.865  -2.471   4.635  0.00  0.00    +0.292 HD
ENDBRANCH  11  15
BRANCH  10  17
ATOM     17  O   UNL     1      -0.575  -2.027   2.776  0.00  0.00    -0.491 OA
ATOM     18  C   UNL     1      -1.942  -1.965   2.365  0.00  0.00    +0.277 C 
ENDBRANCH  10  17
ENDBRANCH   6   8
BRANCH   1  19
ATOM     19  C   UNL     1       0.575  -5.578  -1.764  0.00  0.00    +0.195 C 
ATOM     20  O   UNL     1       1.701  -5.154  -1.951  0.00  0.00    -0.287 OA
BRANCH  19  24
ATOM     21  C   UNL     1      -2.650  -4.160  -4.135  0.00  0.00    +0.123 A 
ATOM     22  C   UNL     1      -2.892  -5.059  -3.102  0.00  0.00    +0.046 A 
ATOM     23  C   UNL     1      -1.849  -5.521  -2.331  0.00  0.00    +0.015 A 
ATOM     24  C   UNL     1      -0.546  -5.086  -2.588  0.00  0.00    +0.023 A 
ATOM     25  C   UNL     1      -0.307  -4.182  -3.628  0.00  0.00    +0.018 A 
ATOM     26  C   UNL     1      -1.355  -3.729  -4.397  0.00  0.00    -0.008 A 
ATOM     27  C   UNL     1      -1.098  -2.760  -5.522  0.00  0.00    +0.047 C 
BRANCH  21  28
ATOM     28  O   UNL     1      -3.681  -3.707  -4.893  0.00  0.00    -0.492 OA
BRANCH  28  30
ATOM     29  C   UNL     1      -6.026  -3.403  -5.391  0.00  0.00    +0.048 C 
ATOM     30  C   UNL     1      -4.997  -4.103  -4.501  0.00  0.00    +0.225 C 
ENDBRANCH  28  30
ENDBRANCH  21  28
ENDBRANCH  19  24
ENDBRANCH   1  19
BRANCH   5  31
ATOM     31  C   UNL     1      -1.031  -7.947   2.564  0.00  0.00    +0.137 C 
BRANCH  31  32
ATOM     32  C   UNL     1       0.011  -7.801   3.675  0.00  0.00    +0.175 C 
BRANCH  32  33
ATOM     33  O   UNL     1       0.391  -6.428   3.794  0.00  0.00    -0.393 OA
ATOM     34  H   UNL     1       1.050  -6.261   4.481  0.00  0.00    +0.209 HD
ENDBRANCH  32  33
ENDBRANCH  31  32
ENDBRANCH   5  31
TORSDOF 10
