REMARK  Name = ZINC23867636
REMARK  7 active torsions:
REMARK  status: ('A' for Active; 'I' for Inactive)
REMARK    1  A    between atoms: C_1  and  C_2
REMARK    2  A    between atoms: C_2  and  C_4
REMARK    3  A    between atoms: C_2  and  S_20
REMARK    4  A    between atoms: N_6  and  C_7
REMARK    5  A    between atoms: C_7  and  C_8
REMARK    6  A    between atoms: N_10  and  C_11
REMARK    7  A    between atoms: S_20  and  C_21
REMARK                            x       y       z     vdW  Elec       q    Type
REMARK                         _______ _______ _______ _____ _____    ______ ____
ROOT
ATOM      1  C   UNL     1       3.895   7.507   0.427  0.00  0.00    +0.227 C 
ATOM      2  O   UNL     1       2.962   8.281   0.459  0.00  0.00    -0.275 OA
ATOM      3  N   UNL     1       3.669   6.183   0.312  0.00  0.00    -0.306 N 
ATOM      4  H   UNL     1       4.516   5.481   0.283  0.00  0.00    +0.149 HD
ENDROOT
BRANCH   1   6
ATOM      5  C   UNL     1       5.825   7.851   1.945  0.00  0.00    +0.029 C 
ATOM      6  C   UNL     1       5.308   8.025   0.516  0.00  0.00    +0.137 C 
BRANCH   6   7
ATOM      7  S   UNL     1       5.335   9.784   0.073  0.00  0.00    -0.073 S 
BRANCH   7   8
ATOM      8  C   UNL     1       7.048  10.198   0.080  0.00  0.00    +0.197 A 
ATOM      9  N   UNL     1       8.044   9.387   0.357  0.00  0.00    -0.122 NA
ATOM     10  N   UNL     1       9.166  10.011   0.266  0.00  0.00    -0.127 NA
ATOM     11  C   UNL     1       8.948  11.270  -0.067  0.00  0.00    +0.180 A 
ATOM     12  N   UNL     1       7.584  11.421  -0.194  0.00  0.00    -0.275 N 
ATOM     13  C   UNL     1       7.051  12.634  -0.536  0.00  0.00    +0.115 A 
ATOM     14  C   UNL     1       7.852  13.697  -0.753  0.00  0.00    +0.059 A 
ATOM     15  C   UNL     1       9.249  13.574  -0.630  0.00  0.00    +0.045 A 
ATOM     16  C   UNL     1       9.796  12.375  -0.291  0.00  0.00    +0.087 A 
ATOM     17 CL   UNL     1      11.517  12.208  -0.136  0.00  0.00    -0.080 Cl
ATOM     18 CL   UNL     1       7.156  15.228  -1.186  0.00  0.00    -0.082 Cl
ENDBRANCH   7   8
ENDBRANCH   6   7
ENDBRANCH   1   6
BRANCH   3  19
ATOM     19  C   UNL     1       2.296   5.679   0.225  0.00  0.00    +0.200 C 
BRANCH  19  20
ATOM     20  C   UNL     1       2.319   4.177   0.104  0.00  0.00    +0.234 C 
ATOM     21  O   UNL     1       3.378   3.586   0.091  0.00  0.00    -0.274 OA
ATOM     22  N   UNL     1       1.163   3.491   0.009  0.00  0.00    -0.282 N 
ATOM     23  H   UNL     1       0.208   4.031  -0.071  0.00  0.00    +0.155 HD
BRANCH  22  24
ATOM     24  C   UNL     1       1.178   2.090   0.013  0.00  0.00    +0.072 A 
ATOM     25  C   UNL     1       2.230   1.407   0.608  0.00  0.00    +0.029 A 
ATOM     26  C   UNL     1       2.244   0.026   0.611  0.00  0.00    +0.043 A 
ATOM     27  C   UNL     1       1.210  -0.680   0.022  0.00  0.00    +0.161 A 
ATOM     28  C   UNL     1       0.156  -0.003  -0.574  0.00  0.00    +0.195 A 
ATOM     29  C   UNL     1       0.139   1.381  -0.579  0.00  0.00    +0.182 A 
ATOM     30  F   UNL     1      -0.884   2.043  -1.163  0.00  0.00    -0.200 F 
ATOM     31  F   UNL     1      -0.852  -0.694  -1.149  0.00  0.00    -0.199 F 
ATOM     32  F   UNL     1       1.226  -2.031   0.026  0.00  0.00    -0.202 F 
ENDBRANCH  22  24
ENDBRANCH  19  20
ENDBRANCH   3  19
TORSDOF 6
