REMARK  Name = ZINC42952412
REMARK  5 active torsions:
REMARK  status: ('A' for Active; 'I' for Inactive)
REMARK    1  A    between atoms: C_1  and  C_2
REMARK    2  A    between atoms: C_2  and  C_4
REMARK    3  A    between atoms: C_2  and  N_23
REMARK    4  A    between atoms: C_4  and  C_6
REMARK    5  A    between atoms: C_4  and  N_13
REMARK                            x       y       z     vdW  Elec       q    Type
REMARK                         _______ _______ _______ _____ _____    ______ ____
ROOT
ATOM      1  C   UNL     1      -1.470  -0.148   0.129  0.00  0.00    +0.072 C 
ENDROOT
BRANCH   1   2
ATOM      2  N   UNL     1      -2.351   0.492  -0.858  0.00  0.00    -0.293 NA
ATOM      3  C   UNL     1      -2.409   1.947  -0.646  0.00  0.00    +0.090 C 
ATOM      4  C   UNL     1      -3.022   2.594  -1.889  0.00  0.00    +0.051 C 
ATOM      5  C   UNL     1      -4.307   1.895  -2.252  0.00  0.00    -0.042 A 
ATOM      6  C   UNL     1      -5.188   2.535  -3.110  0.00  0.00    +0.004 A 
ATOM      7  C   UNL     1      -6.374   1.928  -3.471  0.00  0.00    +0.000 A 
ATOM      8  C   UNL     1      -6.685   0.675  -2.975  0.00  0.00    +0.000 A 
ATOM      9  C   UNL     1      -5.809   0.038  -2.120  0.00  0.00    +0.005 A 
ATOM     10  C   UNL     1      -4.617   0.648  -1.754  0.00  0.00    -0.030 A 
ATOM     11  C   UNL     1      -3.699  -0.083  -0.810  0.00  0.00    +0.120 C 
ENDBRANCH   1   2
BRANCH   1  12
ATOM     12  C   UNL     1      -1.819  -1.610   0.239  0.00  0.00    -0.032 A 
ATOM     13  C   UNL     1      -1.974  -2.372  -0.904  0.00  0.00    +0.006 A 
ATOM     14  C   UNL     1      -2.294  -3.713  -0.803  0.00  0.00    +0.015 A 
ATOM     15  C   UNL     1      -2.459  -4.293   0.442  0.00  0.00    +0.018 A 
ATOM     16  C   UNL     1      -2.303  -3.530   1.585  0.00  0.00    +0.015 A 
ATOM     17  C   UNL     1      -1.979  -2.191   1.484  0.00  0.00    +0.006 A 
ATOM     18 BR   UNL     1      -2.896  -6.127   0.581  0.00  0.00    -0.050 Br
ENDBRANCH   1  12
BRANCH   1  20
ATOM     19  C   UNL     1       0.386   1.472  -0.282  0.00  0.00    -0.012 C 
ATOM     20  C   UNL     1      -0.014  -0.004  -0.318  0.00  0.00    -0.056 C 
BRANCH  20  21
ATOM     21  N   UNL     1       0.131  -0.518  -1.687  0.00  0.00    +0.381 N 
ATOM     22  H   UNL     1       1.058  -0.309  -2.027  0.00  0.00    -0.090 HD
ATOM     23  H   UNL     1      -0.011  -1.517  -1.688  0.00  0.00    -0.090 HD
ATOM     24  H   UNL     1      -0.553  -0.080  -2.285  0.00  0.00    -0.090 HD
ENDBRANCH  20  21
ENDBRANCH   1  20
TORSDOF 4
