REMARK  Name = ZINC39467372
REMARK  5 active torsions:
REMARK  status: ('A' for Active; 'I' for Inactive)
REMARK    1  A    between atoms: C_4  and  O_7
REMARK    2  A    between atoms: O_7  and  S_8
REMARK    3  A    between atoms: S_8  and  C_11
REMARK    4  A    between atoms: P_27  and  C_30
REMARK    5  A    between atoms: C_35  and  O_36
REMARK                            x       y       z     vdW  Elec       q    Type
REMARK                         _______ _______ _______ _____ _____    ______ ____
ROOT
ATOM      1  C   UNL     1       3.071  -2.384   1.880  0.00  0.00    +0.159 C 
ATOM      2  C   UNL     1       3.652  -3.562   2.105  0.00  0.00    +0.009 C 
ATOM      3  C   UNL     1       2.799  -4.716   2.553  0.00  0.00    +0.006 C 
ATOM      4  C   UNL     1       3.619  -5.775   3.281  0.00  0.00    -0.046 C 
ATOM      5  N   UNL     1       2.751  -6.903   3.661  0.00  0.00    +0.398 N 
ATOM      6  C   UNL     1       1.671  -6.472   4.547  0.00  0.00    -0.020 C 
ATOM      7  C   UNL     1       0.827  -5.367   3.896  0.00  0.00    -0.002 C 
ATOM      8  C   UNL     1       1.731  -4.196   3.524  0.00  0.00    +0.018 C 
ATOM      9  C   UNL     1       0.958  -3.096   2.850  0.00  0.00    +0.017 C 
ATOM     10  C   UNL     1       1.615  -2.239   2.067  0.00  0.00    +0.148 C 
ATOM     11  F   UNL     1       0.946  -1.245   1.443  0.00  0.00    -0.204 F 
ATOM     12  C   UNL     1       0.709  -7.626   4.862  0.00  0.00    +0.157 C 
ATOM     13  O   UNL     1       1.426  -8.669   5.548  0.00  0.00    -0.316 OA
ATOM     14  P   UNL     1       2.821  -9.188   4.890  0.00  0.00    +0.291 P 
ATOM     15  O   UNL     1       2.547 -10.147   3.797  0.00  0.00    -0.269 OA
ATOM     16  N   UNL     1       3.562  -7.817   4.300  0.00  0.00    -0.288 NA
ATOM     17  H   UNL     1       4.517  -7.668   4.384  0.00  0.00    +0.111 HD
ATOM     18  H   UNL     1       2.360  -7.323   2.830  0.00  0.00    -0.055 HD
ENDROOT
BRANCH  14  19
ATOM     19  C   UNL     1       3.864  -9.961   6.157  0.00  0.00    +0.091 A 
ATOM     20  C   UNL     1       4.761  -9.195   6.876  0.00  0.00    +0.018 A 
ATOM     21  C   UNL     1       5.556  -9.784   7.841  0.00  0.00    +0.001 A 
ATOM     22  C   UNL     1       5.456 -11.140   8.090  0.00  0.00    +0.004 A 
ATOM     23  C   UNL     1       4.561 -11.911   7.374  0.00  0.00    +0.046 A 
ATOM     24  C   UNL     1       3.757 -11.321   6.409  0.00  0.00    +0.131 A 
BRANCH  24  25
ATOM     25  O   UNL     1       2.871 -12.076   5.707  0.00  0.00    -0.506 OA
ATOM     26  H   UNL     1       3.235 -12.455   4.895  0.00  0.00    +0.292 HD
ENDBRANCH  24  25
ENDBRANCH  14  19
BRANCH   1  27
ATOM     27  S   UNL     1       4.038  -1.003   1.368  0.00  0.00    +0.153 S 
ATOM     28  O   UNL     1       5.394  -1.429   1.385  0.00  0.00    -0.131 OA
ATOM     29  O   UNL     1       3.581   0.114   2.119  0.00  0.00    -0.131 OA
BRANCH  27  30
ATOM     30  O   UNL     1       3.688  -0.722  -0.086  0.00  0.00    -0.342 OA
BRANCH  30  34
ATOM     31  C   UNL     1       5.319  -3.413  -2.755  0.00  0.00    +0.000 A 
ATOM     32  C   UNL     1       4.079  -3.661  -2.196  0.00  0.00    +0.004 A 
ATOM     33  C   UNL     1       3.530  -2.761  -1.302  0.00  0.00    +0.048 A 
ATOM     34  C   UNL     1       4.226  -1.609  -0.965  0.00  0.00    +0.157 A 
ATOM     35  C   UNL     1       5.470  -1.363  -1.527  0.00  0.00    +0.048 A 
ATOM     36  C   UNL     1       6.013  -2.265  -2.421  0.00  0.00    +0.004 A 
ENDBRANCH  30  34
ENDBRANCH  27  30
ENDBRANCH   1  27
TORSDOF 5
