REMARK  Name = ZINC64986078
REMARK  9 active torsions:
REMARK  status: ('A' for Active; 'I' for Inactive)
REMARK    1  A    between atoms: C_1  and  C_2
REMARK    2  A    between atoms: C_5  and  S_8
REMARK    3  A    between atoms: S_8  and  N_11
REMARK    4  A    between atoms: C_13  and  C_23
REMARK    5  A    between atoms: C_20  and  C_22
REMARK    6  A    between atoms: N_25  and  C_26
REMARK    7  A    between atoms: C_30  and  O_32
REMARK    8  A    between atoms: O_32  and  C_33
REMARK    9  A    between atoms: C_33  and  C_34
REMARK                            x       y       z     vdW  Elec       q    Type
REMARK                         _______ _______ _______ _____ _____    ______ ____
ROOT
ATOM      1  N   UNL     1       1.603  -5.003  -0.068  0.00  0.00    -0.195 N 
ATOM      2  C   UNL     1       2.304  -5.307  -1.327  0.00  0.00    +0.186 C 
ATOM      3  C   UNL     1       3.719  -4.721  -1.223  0.00  0.00    +0.278 C 
ATOM      4  O   UNL     1       4.373  -5.295  -0.088  0.00  0.00    -0.476 OA
ATOM      5  C   UNL     1       3.704  -5.297   1.095  0.00  0.00    +0.144 A 
ATOM      6  C   UNL     1       2.321  -5.150   1.130  0.00  0.00    +0.093 A 
ATOM      7  C   UNL     1       1.653  -5.152   2.344  0.00  0.00    +0.029 A 
ATOM      8  C   UNL     1       2.364  -5.294   3.521  0.00  0.00    +0.005 A 
ATOM      9  C   UNL     1       3.739  -5.433   3.487  0.00  0.00    -0.047 A 
ATOM     10  C   UNL     1       4.407  -5.443   2.280  0.00  0.00    +0.051 A 
ATOM     11  C   UNL     1       4.510  -5.585   4.773  0.00  0.00    +0.044 C 
ENDROOT
BRANCH   3  12
ATOM     12  C   UNL     1       4.494  -5.046  -2.474  0.00  0.00    +0.260 C 
ATOM     13  O   UNL     1       5.464  -5.771  -2.415  0.00  0.00    -0.271 OA
ATOM     14  N   UNL     1       4.109  -4.530  -3.658  0.00  0.00    -0.282 N 
ATOM     15  H   UNL     1       3.381  -3.890  -3.694  0.00  0.00    +0.155 HD
BRANCH  14  16
ATOM     16  C   UNL     1       4.759  -4.918  -4.835  0.00  0.00    +0.037 A 
ATOM     17  C   UNL     1       4.915  -4.010  -5.875  0.00  0.00    +0.023 A 
ATOM     18  C   UNL     1       5.557  -4.393  -7.036  0.00  0.00    +0.005 A 
ATOM     19  C   UNL     1       6.044  -5.680  -7.168  0.00  0.00    +0.046 A 
ATOM     20  C   UNL     1       5.890  -6.591  -6.132  0.00  0.00    +0.123 A 
ATOM     21  C   UNL     1       5.253  -6.208  -4.962  0.00  0.00    +0.069 A 
BRANCH  20  22
ATOM     22  O   UNL     1       6.369  -7.856  -6.263  0.00  0.00    -0.488 OA
BRANCH  22  23
ATOM     23  C   UNL     1       7.021  -8.179  -7.493  0.00  0.00    +0.256 C 
BRANCH  23  24
ATOM     24  C   UNL     1       7.482  -9.613  -7.456  0.00  0.00    +0.006 C 
ATOM     25  C   UNL     1       7.282 -10.393  -8.489  0.00  0.00    +0.007 C 
ENDBRANCH  23  24
ENDBRANCH  22  23
ENDBRANCH  20  22
ENDBRANCH  14  16
ENDBRANCH   3  12
BRANCH   1  26
ATOM     26  S   UNL     1       0.025  -4.500  -0.065  0.00  0.00    +0.075 S 
ATOM     27  O   UNL     1      -0.254  -4.031  -1.377  0.00  0.00    -0.150 OA
ATOM     28  O   UNL     1      -0.139  -3.684   1.087  0.00  0.00    -0.150 OA
BRANCH  26  33
ATOM     29  C   UNL     1      -3.408  -9.389   0.782  0.00  0.00    +0.044 C 
ATOM     30  C   UNL     1      -2.550  -8.168   0.570  0.00  0.00    -0.050 A 
ATOM     31  C   UNL     1      -2.101  -7.442   1.657  0.00  0.00    +0.005 A 
ATOM     32  C   UNL     1      -1.315  -6.322   1.464  0.00  0.00    +0.029 A 
ATOM     33  C   UNL     1      -0.977  -5.928   0.182  0.00  0.00    +0.109 A 
ATOM     34  C   UNL     1      -1.425  -6.655  -0.905  0.00  0.00    +0.029 A 
ATOM     35  C   UNL     1      -2.208  -7.777  -0.711  0.00  0.00    +0.005 A 
ENDBRANCH  26  33
ENDBRANCH   1  26
TORSDOF 7
