REMARK  Name = ZINC08927754
REMARK  12 active torsions:
REMARK  status: ('A' for Active; 'I' for Inactive)
REMARK    1  A    between atoms: C_1  and  C_2
REMARK    2  A    between atoms: C_5  and  C_34
REMARK    3  A    between atoms: C_6  and  C_8
REMARK    4  A    between atoms: C_8  and  N_9
REMARK    5  A    between atoms: C_16  and  C_19
REMARK    6  A    between atoms: C_16  and  O_32
REMARK    7  A    between atoms: C_19  and  C_20
REMARK    8  A    between atoms: C_20  and  C_22
REMARK    9  A    between atoms: C_24  and  C_29
REMARK   10  A    between atoms: C_27  and  C_28
REMARK   11  A    between atoms: C_29  and  C_30
REMARK   12  A    between atoms: C_29  and  C_31
REMARK                            x       y       z     vdW  Elec       q    Type
REMARK                         _______ _______ _______ _____ _____    ______ ____
ROOT
ATOM      1  N   UNL     1      -5.165   6.477  -1.538  0.00  0.00    -0.264 N 
ATOM      2  C   UNL     1      -4.684   7.614  -0.887  0.00  0.00    +0.043 A 
ATOM      3  C   UNL     1      -4.747   8.961  -1.240  0.00  0.00    +0.025 A 
ATOM      4  C   UNL     1      -4.189   9.921  -0.410  0.00  0.00    +0.017 A 
ATOM      5  C   UNL     1      -3.566   9.552   0.769  0.00  0.00    +0.018 A 
ATOM      6  C   UNL     1      -3.500   8.215   1.124  0.00  0.00    +0.024 A 
ATOM      7  C   UNL     1      -4.054   7.259   0.303  0.00  0.00    +0.016 A 
ATOM      8  C   UNL     1      -4.152   5.754   0.398  0.00  0.00    +0.175 C 
ATOM      9  C   UNL     1      -4.897   5.350  -0.857  0.00  0.00    +0.257 C 
ATOM     10  O   UNL     1      -5.196   4.221  -1.185  0.00  0.00    -0.272 OA
ATOM     11 BR   UNL     1      -2.806  10.869   1.893  0.00  0.00    -0.050 Br
ENDROOT
BRANCH   8  12
ATOM     12  O   UNL     1      -4.888   5.372   1.562  0.00  0.00    -0.374 OA
ATOM     13  H   UNL     1      -5.005   4.417   1.657  0.00  0.00    +0.211 HD
ENDBRANCH   8  12
BRANCH   1  14
ATOM     14  C   UNL     1      -5.880   6.508  -2.816  0.00  0.00    +0.149 C 
BRANCH  14  20
ATOM     15  C   UNL     1      -9.703   6.979   0.379  0.00  0.00    +0.044 C 
ATOM     16  C   UNL     1      -9.190   6.845  -1.032  0.00  0.00    -0.050 A 
ATOM     17  C   UNL     1     -10.078   6.823  -2.092  0.00  0.00    +0.003 A 
ATOM     18  C   UNL     1      -9.607   6.700  -3.385  0.00  0.00    +0.004 A 
ATOM     19  C   UNL     1      -8.248   6.603  -3.620  0.00  0.00    -0.046 A 
ATOM     20  C   UNL     1      -7.361   6.619  -2.560  0.00  0.00    -0.027 A 
ATOM     21  C   UNL     1      -7.832   6.743  -1.266  0.00  0.00    +0.008 A 
ATOM     22  C   UNL     1      -7.734   6.474  -5.031  0.00  0.00    +0.044 C 
ENDBRANCH  14  20
ENDBRANCH   1  14
BRANCH   8  23
ATOM     23  C   UNL     1      -2.756   5.127   0.418  0.00  0.00    +0.129 C 
BRANCH  23  24
ATOM     24  C   UNL     1      -2.879   3.626   0.342  0.00  0.00    +0.167 C 
ATOM     25  O   UNL     1      -3.974   3.110   0.278  0.00  0.00    -0.292 OA
BRANCH  24  26
ATOM     26  C   UNL     1      -1.669   2.788   0.345  0.00  0.00    +0.021 A 
ATOM     27  C   UNL     1      -0.412   3.369   0.545  0.00  0.00    +0.015 A 
ATOM     28  C   UNL     1       0.717   2.577   0.547  0.00  0.00    -0.044 A 
ATOM     29  C   UNL     1       0.608   1.211   0.351  0.00  0.00    +0.004 A 
ATOM     30  C   UNL     1      -0.632   0.629   0.153  0.00  0.00    +0.004 A 
ATOM     31  C   UNL     1      -1.769   1.408   0.143  0.00  0.00    -0.040 A 
ATOM     32  C   UNL     1      -3.118   0.773  -0.079  0.00  0.00    +0.044 C 
BRANCH  28  33
ATOM     33  C   UNL     1       2.071   3.200   0.762  0.00  0.00    +0.013 C 
ATOM     34  C   UNL     1       2.719   2.595   2.009  0.00  0.00    +0.012 C 
ATOM     35  C   UNL     1       2.957   2.929  -0.455  0.00  0.00    +0.012 C 
ENDBRANCH  28  33
ENDBRANCH  24  26
ENDBRANCH  23  24
ENDBRANCH   8  23
TORSDOF 7
