REMARK  Name = ZINC11767274
REMARK  3 active torsions:
REMARK  status: ('A' for Active; 'I' for Inactive)
REMARK    1  A    between atoms: C_11  and  C_30
REMARK    2  A    between atoms: N_19  and  C_22
REMARK    3  A    between atoms: C_27  and  C_28
REMARK                            x       y       z     vdW  Elec       q    Type
REMARK                         _______ _______ _______ _____ _____    ______ ____
ROOT
ATOM      1  C   UNL     1       2.877   3.868  -0.006  0.00  0.00    +0.001 A 
ATOM      2  C   UNL     1       3.325   2.557  -0.016  0.00  0.00    +0.002 A 
ATOM      3  C   UNL     1       2.458   1.479  -0.013  0.00  0.00    +0.026 A 
ATOM      4  C   UNL     1       1.094   1.767   0.001  0.00  0.00    +0.047 A 
ATOM      5  C   UNL     1       0.641   3.110   0.013  0.00  0.00    +0.003 A 
ATOM      6  C   UNL     1       1.540   4.181   0.008  0.00  0.00    +0.010 A 
ATOM      7  C   UNL     1      -0.809   3.047   0.030  0.00  0.00    -0.015 A 
ATOM      8  C   UNL     1      -1.141   1.739   0.016  0.00  0.00    +0.046 A 
ATOM      9  N   UNL     1      -0.011   0.966   0.007  0.00  0.00    -0.356 N 
ATOM     10  H   UNL     1       0.002  -0.004   0.002  0.00  0.00    +0.166 HD
ATOM     11  C   UNL     1      -2.571   1.236   0.020  0.00  0.00    +0.156 C 
ATOM     12  N   UNL     1      -3.422   2.414   0.229  0.00  0.00    -0.260 N 
ATOM     13  C   UNL     1      -3.157   3.726  -0.402  0.00  0.00    +0.170 C 
ATOM     14  C   UNL     1      -1.776   4.204   0.061  0.00  0.00    +0.069 C 
ATOM     15  C   UNL     1      -4.230   4.612   0.199  0.00  0.00    +0.248 C 
ATOM     16  O   UNL     1      -4.388   5.799   0.009  0.00  0.00    -0.273 OA
ATOM     17  N   UNL     1      -4.973   3.809   0.988  0.00  0.00    -0.192 N 
ATOM     18  C   UNL     1      -4.512   2.550   0.986  0.00  0.00    +0.317 C 
ATOM     19  O   UNL     1      -5.027   1.639   1.603  0.00  0.00    -0.252 OA
ENDROOT
BRANCH  11  20
ATOM     20  C   UNL     1      -2.776   0.245   1.137  0.00  0.00    -0.020 A 
ATOM     21  C   UNL     1      -2.911   0.690   2.439  0.00  0.00    +0.006 A 
ATOM     22  C   UNL     1      -3.104  -0.218   3.463  0.00  0.00    +0.002 A 
ATOM     23  C   UNL     1      -3.151  -1.572   3.187  0.00  0.00    +0.020 A 
ATOM     24  C   UNL     1      -3.010  -2.018   1.885  0.00  0.00    +0.041 A 
ATOM     25  C   UNL     1      -2.822  -1.108   0.860  0.00  0.00    +0.025 A 
ATOM     26 CL   UNL     1      -3.068  -3.718   1.538  0.00  0.00    -0.084 Cl
ENDBRANCH  11  20
BRANCH  17  27
ATOM     27  C   UNL     1      -6.084   4.237   1.717  0.00  0.00    +0.060 A 
ATOM     28  C   UNL     1      -7.349   4.197   1.147  0.00  0.00    +0.025 A 
ATOM     29  C   UNL     1      -8.448   4.615   1.871  0.00  0.00    +0.002 A 
ATOM     30  C   UNL     1      -8.297   5.087   3.164  0.00  0.00    +0.001 A 
ATOM     31  C   UNL     1      -7.048   5.139   3.745  0.00  0.00    +0.017 A 
ATOM     32  C   UNL     1      -5.928   4.713   3.026  0.00  0.00    +0.085 A 
BRANCH  32  33
ATOM     33  C   UNL     1      -4.588   4.766   3.641  0.00  0.00    +0.388 C 
ATOM     34  O   UNL     1      -3.616   4.396   3.013  0.00  0.00    -0.241 OA
ATOM     35  O   UNL     1      -4.442   5.225   4.900  0.00  0.00    -0.241 OA
ENDBRANCH  32  33
ENDBRANCH  17  27
TORSDOF 3
