REMARK  Name = ZINC39725513
REMARK  8 active torsions:
REMARK  status: ('A' for Active; 'I' for Inactive)
REMARK    1  A    between atoms: C_1  and  C_2
REMARK    2  A    between atoms: C_7  and  N_8
REMARK    3  A    between atoms: C_9  and  S_23
REMARK    4  A    between atoms: S_23  and  C_24
REMARK    5  A    between atoms: C_24  and  C_25
REMARK    6  A    between atoms: N_27  and  C_28
REMARK    7  A    between atoms: C_32  and  C_35
REMARK    8  A    between atoms: C_33  and  C_34
REMARK                            x       y       z     vdW  Elec       q    Type
REMARK                         _______ _______ _______ _____ _____    ______ ____
ROOT
ATOM      1  N   UNL     1      -0.364  -0.163   2.539  0.00  0.00    -0.234 N 
ATOM      2  C   UNL     1      -1.584   0.244   3.241  0.00  0.00    +0.259 C 
ATOM      3  N   UNL     1      -1.506   1.134   4.402  0.00  0.00    -0.248 NA
ATOM      4  C   UNL     1      -0.365   1.570   4.820  0.00  0.00    +0.101 C 
ATOM      5  C   UNL     1       0.074   2.454   5.924  0.00  0.00    +0.028 A 
ATOM      6  C   UNL     1      -0.580   3.148   6.925  0.00  0.00    +0.012 A 
ATOM      7  C   UNL     1       0.148   3.909   7.827  0.00  0.00    +0.001 A 
ATOM      8  C   UNL     1       1.526   3.977   7.727  0.00  0.00    +0.002 A 
ATOM      9  C   UNL     1       2.196   3.291   6.734  0.00  0.00    +0.028 A 
ATOM     10  C   UNL     1       1.481   2.515   5.813  0.00  0.00    +0.074 A 
ATOM     11  N   UNL     1       1.886   1.759   4.763  0.00  0.00    -0.240 NA
ATOM     12  C   UNL     1       0.898   1.181   4.137  0.00  0.00    +0.152 C 
ATOM     13  C   UNL     1       0.837   0.280   2.967  0.00  0.00    +0.274 C 
ATOM     14  O   UNL     1       1.856  -0.055   2.396  0.00  0.00    -0.268 OA
ENDROOT
BRANCH   1  21
ATOM     15  C   UNL     1      -0.426  -2.970   3.002  0.00  0.00    +0.045 C 
ATOM     16  C   UNL     1      -0.475  -2.390   1.613  0.00  0.00    -0.029 A 
ATOM     17  C   UNL     1      -0.559  -3.227   0.517  0.00  0.00    +0.005 A 
ATOM     18  C   UNL     1      -0.605  -2.695  -0.759  0.00  0.00    +0.000 A 
ATOM     19  C   UNL     1      -0.567  -1.325  -0.943  0.00  0.00    +0.002 A 
ATOM     20  C   UNL     1      -0.483  -0.483   0.148  0.00  0.00    +0.024 A 
ATOM     21  C   UNL     1      -0.443  -1.013   1.432  0.00  0.00    +0.042 A 
ENDBRANCH   1  21
BRANCH   2  22
ATOM     22  S   UNL     1      -2.665   1.044   2.023  0.00  0.00    -0.106 S 
BRANCH  22  23
ATOM     23  C   UNL     1      -1.728   2.506   1.498  0.00  0.00    +0.168 C 
BRANCH  23  24
ATOM     24  C   UNL     1      -2.494   3.235   0.424  0.00  0.00    +0.227 C 
ATOM     25  O   UNL     1      -3.567   2.809   0.050  0.00  0.00    -0.275 OA
ATOM     26  N   UNL     1      -1.988   4.359  -0.120  0.00  0.00    -0.285 N 
ATOM     27  H   UNL     1      -1.101   4.661   0.130  0.00  0.00    +0.155 HD
BRANCH  26  28
ATOM     28  C   UNL     1      -2.741   5.089  -1.045  0.00  0.00    +0.037 A 
ATOM     29  C   UNL     1      -3.674   4.444  -1.847  0.00  0.00    +0.023 A 
ATOM     30  C   UNL     1      -4.416   5.168  -2.760  0.00  0.00    +0.002 A 
ATOM     31  C   UNL     1      -4.232   6.534  -2.875  0.00  0.00    +0.004 A 
ATOM     32  C   UNL     1      -3.304   7.179  -2.078  0.00  0.00    -0.046 A 
ATOM     33  C   UNL     1      -2.563   6.462  -1.159  0.00  0.00    -0.026 A 
ATOM     34  C   UNL     1      -1.558   7.167  -0.285  0.00  0.00    +0.046 C 
ATOM     35  C   UNL     1      -3.107   8.667  -2.207  0.00  0.00    +0.044 C 
ENDBRANCH  26  28
ENDBRANCH  23  24
ENDBRANCH  22  23
ENDBRANCH   2  22
TORSDOF 5
