REMARK  Name = ZINC36631117
REMARK  10 active torsions:
REMARK  status: ('A' for Active; 'I' for Inactive)
REMARK    1  A    between atoms: C_1  and  C_2
REMARK    2  A    between atoms: C_5  and  S_8
REMARK    3  A    between atoms: S_8  and  N_11
REMARK    4  A    between atoms: N_11  and  C_12
REMARK    5  A    between atoms: C_17  and  C_18
REMARK    6  A    between atoms: C_18  and  N_20
REMARK    7  A    between atoms: N_22  and  C_32
REMARK    8  A    between atoms: C_24  and  C_31
REMARK    9  A    between atoms: C_26  and  C_30
REMARK   10  A    between atoms: C_32  and  C_33
REMARK                            x       y       z     vdW  Elec       q    Type
REMARK                         _______ _______ _______ _____ _____    ______ ____
ROOT
ATOM      1  C   UNL     1       3.040  -5.742   0.973  0.00  0.00    +0.060 A 
ATOM      2  C   UNL     1       2.676  -5.980   2.293  0.00  0.00    +0.025 A 
ATOM      3  C   UNL     1       3.538  -5.648   3.318  0.00  0.00    +0.002 A 
ATOM      4  C   UNL     1       4.770  -5.078   3.041  0.00  0.00    +0.001 A 
ATOM      5  C   UNL     1       5.148  -4.835   1.738  0.00  0.00    +0.015 A 
ATOM      6  C   UNL     1       4.289  -5.170   0.690  0.00  0.00    +0.061 A 
ENDROOT
BRANCH   1   7
ATOM      7  N   UNL     1       2.174  -6.075  -0.061  0.00  0.00    -0.216 N 
ATOM      8  H   UNL     1       2.527  -6.399  -0.905  0.00  0.00    +0.174 HD
BRANCH   7   9
ATOM      9  S   UNL     1       0.538  -5.920   0.147  0.00  0.00    +0.072 S 
ATOM     10  O   UNL     1       0.208  -6.641   1.326  0.00  0.00    -0.150 OA
ATOM     11  O   UNL     1      -0.060  -6.203  -1.111  0.00  0.00    -0.150 OA
BRANCH   9  16
ATOM     12  C   UNL     1      -0.571  -0.105   1.315  0.00  0.00    +0.044 C 
ATOM     13  C   UNL     1      -0.294  -1.558   1.023  0.00  0.00    -0.050 A 
ATOM     14  C   UNL     1      -0.295  -2.013  -0.282  0.00  0.00    +0.005 A 
ATOM     15  C   UNL     1      -0.040  -3.345  -0.550  0.00  0.00    +0.029 A 
ATOM     16  C   UNL     1       0.215  -4.222   0.488  0.00  0.00    +0.109 A 
ATOM     17  C   UNL     1       0.217  -3.767   1.793  0.00  0.00    +0.029 A 
ATOM     18  C   UNL     1      -0.033  -2.434   2.060  0.00  0.00    +0.005 A 
ENDBRANCH   9  16
ENDBRANCH   7   9
ENDBRANCH   1   7
BRANCH   6  19
ATOM     19  C   UNL     1       4.690  -4.918  -0.710  0.00  0.00    +0.271 C 
ATOM     20  O   UNL     1       3.935  -5.207  -1.622  0.00  0.00    -0.268 OA
BRANCH  19  21
ATOM     21  N   UNL     1       5.882  -4.372  -0.976  0.00  0.00    -0.152 NA
ATOM     22  C   UNL     1       6.243  -4.144  -2.234  0.00  0.00    +0.167 A 
ATOM     23  N   UNL     1       7.407  -3.607  -2.683  0.00  0.00    -0.317 N 
ATOM     24  C   UNL     1       7.610  -3.445  -4.040  0.00  0.00    +0.061 A 
ATOM     25  C   UNL     1       8.722  -2.919  -4.713  0.00  0.00    -0.026 A 
ATOM     26  C   UNL     1       8.737  -2.839  -6.086  0.00  0.00    +0.008 A 
ATOM     27  C   UNL     1       7.660  -3.273  -6.841  0.00  0.00    -0.049 A 
ATOM     28  C   UNL     1       6.550  -3.796  -6.202  0.00  0.00    +0.020 A 
ATOM     29  C   UNL     1       6.534  -3.877  -4.829  0.00  0.00    +0.039 A 
ATOM     30  S   UNL     1       5.365  -4.464  -3.631  0.00  0.00    -0.052 S 
ATOM     31  C   UNL     1       7.697  -3.175  -8.345  0.00  0.00    +0.044 C 
ATOM     32  C   UNL     1       9.912  -2.437  -3.924  0.00  0.00    +0.046 C 
BRANCH  23  33
ATOM     33  C   UNL     1       8.444  -3.201  -1.731  0.00  0.00    +0.151 C 
BRANCH  33  34
ATOM     34  C   UNL     1       8.272  -1.742  -1.393  0.00  0.00    -0.013 C 
ATOM     35  C   UNL     1       8.153  -1.369  -0.143  0.00  0.00    +0.005 C 
ENDBRANCH  33  34
ENDBRANCH  23  33
ENDBRANCH  19  21
ENDBRANCH   6  19
TORSDOF 7
