REMARK  Name = ZINC14014031
REMARK  6 active torsions:
REMARK  status: ('A' for Active; 'I' for Inactive)
REMARK    1  A    between atoms: C_1  and  C_2
REMARK    2  A    between atoms: N_5  and  S_11
REMARK    3  A    between atoms: C_7  and  C_10
REMARK    4  A    between atoms: S_11  and  C_14
REMARK    5  A    between atoms: C_16  and  C_21
REMARK    6  A    between atoms: N_29  and  C_30
REMARK                            x       y       z     vdW  Elec       q    Type
REMARK                         _______ _______ _______ _____ _____    ______ ____
ROOT
ATOM      1  C   UNL     1      -5.533   5.166  -7.211  0.00  0.00    +0.124 A 
ATOM      2  C   UNL     1      -4.977   4.797  -6.004  0.00  0.00    +0.043 A 
ATOM      3  C   UNL     1      -3.690   5.226  -5.672  0.00  0.00    +0.042 A 
ATOM      4  C   UNL     1      -2.976   6.032  -6.563  0.00  0.00    +0.015 A 
ATOM      5  C   UNL     1      -3.541   6.389  -7.768  0.00  0.00    +0.023 A 
ATOM      6  C   UNL     1      -4.818   5.960  -8.092  0.00  0.00    +0.067 A 
ATOM      7 CL   UNL     1      -5.525   6.419  -9.610  0.00  0.00    -0.082 Cl
ENDROOT
BRANCH   3   8
ATOM      8  C   UNL     1      -3.088   4.835  -4.381  0.00  0.00    +0.264 C 
ATOM      9  O   UNL     1      -3.749   4.227  -3.562  0.00  0.00    -0.267 OA
ATOM     10  N   UNL     1      -1.806   5.151  -4.112  0.00  0.00    -0.270 N 
ATOM     11  C   UNL     1      -0.816   4.795  -4.988  0.00  0.00    +0.096 A 
ATOM     12  C   UNL     1       0.471   5.099  -4.731  0.00  0.00    +0.018 A 
ATOM     13  C   UNL     1       0.821   5.793  -3.559  0.00  0.00    +0.005 A 
ATOM     14  C   UNL     1      -0.144   6.161  -2.679  0.00  0.00    +0.044 A 
ATOM     15  C   UNL     1      -1.495   5.839  -2.956  0.00  0.00    +0.114 A 
ATOM     16  N   UNL     1      -2.445   6.186  -2.116  0.00  0.00    -0.368 N 
ATOM     17  H   UNL     1      -3.479   5.854  -2.288  0.00  0.00    +0.161 HD
BRANCH  16  18
ATOM     18  C   UNL     1      -2.125   7.015  -0.951  0.00  0.00    +0.081 C 
ATOM     19  C   UNL     1      -2.603   6.313   0.321  0.00  0.00    +0.024 C 
ATOM     20  C   UNL     1      -2.270   7.178   1.538  0.00  0.00    +0.002 C 
ATOM     21  C   UNL     1      -2.971   8.532   1.408  0.00  0.00    +0.000 C 
ATOM     22  C   UNL     1      -2.493   9.235   0.136  0.00  0.00    +0.002 C 
ATOM     23  C   UNL     1      -2.826   8.369  -1.081  0.00  0.00    +0.024 C 
ENDBRANCH  16  18
ENDBRANCH   3   8
BRANCH   1  24
ATOM     24  S   UNL     1      -7.156   4.625  -7.633  0.00  0.00    +0.062 S 
ATOM     25  O   UNL     1      -7.090   4.146  -8.969  0.00  0.00    -0.153 OA
ATOM     26  O   UNL     1      -7.607   3.816  -6.555  0.00  0.00    -0.153 OA
BRANCH  24  30
ATOM     27  C   UNL     1      -8.662   8.905  -9.978  0.00  0.00    +0.039 C 
ATOM     28  C   UNL     1      -8.161   8.144  -8.749  0.00  0.00    +0.131 C 
ATOM     29  C   UNL     1      -8.445   6.648  -8.922  0.00  0.00    +0.140 C 
ATOM     30  N   UNL     1      -8.128   5.966  -7.657  0.00  0.00    -0.172 NA
ATOM     31  C   UNL     1      -8.704   6.506  -6.416  0.00  0.00    +0.140 C 
ATOM     32  C   UNL     1      -8.403   8.013  -6.364  0.00  0.00    +0.131 C 
ATOM     33  O   UNL     1      -8.838   8.620  -7.583  0.00  0.00    -0.371 OA
ATOM     34  C   UNL     1      -9.147   8.642  -5.185  0.00  0.00    +0.039 C 
ENDBRANCH  24  30
ENDBRANCH   1  24
TORSDOF 4
