REMARK  Name = ZINC21539489
REMARK  7 active torsions:
REMARK  status: ('A' for Active; 'I' for Inactive)
REMARK    1  A    between atoms: C_1  and  C_2
REMARK    2  A    between atoms: C_2  and  O_3
REMARK    3  A    between atoms: O_3  and  C_4
REMARK    4  A    between atoms: C_9  and  N_10
REMARK    5  A    between atoms: C_25  and  C_27
REMARK    6  A    between atoms: C_30  and  O_33
REMARK    7  A    between atoms: O_33  and  C_34
REMARK                            x       y       z     vdW  Elec       q    Type
REMARK                         _______ _______ _______ _____ _____    ______ ____
ROOT
ATOM      1  N   UNL     1       2.367   1.090  -0.017  0.00  0.00    -0.266 N 
ATOM      2  C   UNL     1       2.405  -0.254   0.081  0.00  0.00    +0.308 C 
ATOM      3  O   UNL     1       1.370  -0.891   0.093  0.00  0.00    -0.252 OA
ATOM      4  N   UNL     1       3.590  -0.890   0.164  0.00  0.00    -0.268 N 
ATOM      5  C   UNL     1       4.866  -0.152   0.152  0.00  0.00    +0.148 C 
ATOM      6  C   UNL     1       5.938  -0.850  -0.655  0.00  0.00    +0.005 A 
ATOM      7  C   UNL     1       6.428  -0.348  -1.878  0.00  0.00    -0.030 A 
ATOM      8  C   UNL     1       7.407  -1.052  -2.503  0.00  0.00    -0.005 A 
ATOM      9  S   UNL     1       7.683  -2.439  -1.430  0.00  0.00    -0.075 S 
ATOM     10  C   UNL     1       6.479  -2.015  -0.209  0.00  0.00    +0.090 A 
ATOM     11  N   UNL     1       6.082  -2.663   0.954  0.00  0.00    -0.312 N 
ATOM     12  C   UNL     1       6.798  -3.213   1.962  0.00  0.00    +0.092 A 
ATOM     13  C   UNL     1       5.929  -3.654   2.900  0.00  0.00    +0.020 A 
ATOM     14  C   UNL     1       4.625  -3.378   2.435  0.00  0.00    +0.025 A 
ATOM     15  C   UNL     1       4.742  -2.796   1.233  0.00  0.00    +0.049 A 
ATOM     16  C   UNL     1       3.672  -2.366   0.279  0.00  0.00    +0.155 C 
ATOM     17  C   UNL     1       8.086  -0.725  -3.793  0.00  0.00    +0.043 C 
ATOM     18  C   UNL     1       7.261   0.351  -4.514  0.00  0.00    +0.005 C 
ATOM     19  C   UNL     1       6.913   1.457  -3.514  0.00  0.00    +0.005 C 
ATOM     20  C   UNL     1       5.894   0.942  -2.496  0.00  0.00    +0.036 C 
ATOM     21  H   UNL     1       3.304   1.662  -0.098  0.00  0.00    +0.156 HD
ENDROOT
BRANCH   1  27
ATOM     22  C   UNL     1       1.022   3.012   0.583  0.00  0.00    +0.142 A 
ATOM     23  C   UNL     1      -0.198   3.668   0.583  0.00  0.00    +0.047 A 
ATOM     24  C   UNL     1      -1.300   3.079  -0.010  0.00  0.00    +0.004 A 
ATOM     25  C   UNL     1      -1.186   1.838  -0.609  0.00  0.00    +0.002 A 
ATOM     26  C   UNL     1       0.026   1.174  -0.608  0.00  0.00    +0.027 A 
ATOM     27  C   UNL     1       1.135   1.759  -0.015  0.00  0.00    +0.077 A 
BRANCH  22  28
ATOM     28  O   UNL     1       2.106   3.589   1.167  0.00  0.00    -0.490 OA
BRANCH  28  30
ATOM     29  C   UNL     1       3.236   5.360   2.361  0.00  0.00    +0.048 C 
ATOM     30  C   UNL     1       1.916   4.875   1.760  0.00  0.00    +0.226 C 
ENDBRANCH  28  30
ENDBRANCH  22  28
ENDBRANCH   1  27
BRANCH  16  31
ATOM     31  C   UNL     1       3.969  -2.949  -1.079  0.00  0.00    -0.021 A 
ATOM     32  C   UNL     1       3.533  -2.298  -2.219  0.00  0.00    +0.009 A 
ATOM     33  C   UNL     1       3.808  -2.827  -3.465  0.00  0.00    +0.046 A 
ATOM     34  C   UNL     1       4.513  -4.017  -3.572  0.00  0.00    +0.120 A 
ATOM     35  C   UNL     1       4.944  -4.671  -2.427  0.00  0.00    +0.046 A 
ATOM     36  C   UNL     1       4.671  -4.135  -1.183  0.00  0.00    +0.009 A 
BRANCH  34  37
ATOM     37  O   UNL     1       4.779  -4.543  -4.797  0.00  0.00    -0.495 OA
ATOM     38  C   UNL     1       4.305  -3.816  -5.932  0.00  0.00    +0.277 C 
ENDBRANCH  34  37
ENDBRANCH  16  31
TORSDOF 5
