REMARK  Name = ZINC04211012
REMARK  8 active torsions:
REMARK  status: ('A' for Active; 'I' for Inactive)
REMARK    1  A    between atoms: C_1  and  O_2
REMARK    2  A    between atoms: O_2  and  C_3
REMARK    3  A    between atoms: C_5  and  C_13
REMARK    4  A    between atoms: C_7  and  O_11
REMARK    5  A    between atoms: C_8  and  O_9
REMARK    6  A    between atoms: O_9  and  C_10
REMARK    7  A    between atoms: O_11  and  C_12
REMARK    8  A    between atoms: C_18  and  C_28
REMARK                            x       y       z     vdW  Elec       q    Type
REMARK                         _______ _______ _______ _____ _____    ______ ____
ROOT
ATOM      1  C   UNL     1       1.139  -2.743  -4.282  0.00  0.00    +0.032 C 
ATOM      2  C   UNL     1       2.099  -3.678  -3.547  0.00  0.00    +0.059 C 
ATOM      3  C   UNL     1       2.246  -3.239  -2.100  0.00  0.00    +0.017 C 
ATOM      4  C   UNL     1       1.220  -2.656  -1.455  0.00  0.00    +0.036 C 
ATOM      5  C   UNL     1       1.227  -2.186  -0.021  0.00  0.00    +0.136 C 
ATOM      6  N   UNL     1       2.365  -2.635   0.754  0.00  0.00    -0.331 N 
ATOM      7  C   UNL     1       3.657  -2.217   0.437  0.00  0.00    +0.049 A 
ATOM      8  C   UNL     1       4.396  -1.429   1.304  0.00  0.00    +0.025 A 
ATOM      9  C   UNL     1       5.657  -1.000   0.925  0.00  0.00    +0.002 A 
ATOM     10  C   UNL     1       6.174  -1.350  -0.309  0.00  0.00    +0.002 A 
ATOM     11  C   UNL     1       5.444  -2.152  -1.170  0.00  0.00    +0.025 A 
ATOM     12  C   UNL     1       4.194  -2.600  -0.782  0.00  0.00    +0.052 A 
ATOM     13  N   UNL     1       3.458  -3.499  -1.546  0.00  0.00    -0.316 N 
ATOM     14  C   UNL     1      -0.006  -2.432  -2.125  0.00  0.00    +0.163 C 
ATOM     15  O   UNL     1      -0.924  -1.921  -1.513  0.00  0.00    -0.292 OA
ATOM     16  C   UNL     1      -0.214  -2.804  -3.563  0.00  0.00    +0.088 C 
ATOM     17  H   UNL     1       2.217  -3.314   1.606  0.00  0.00    +0.147 HD
ATOM     18  H   UNL     1       3.928  -4.483  -1.688  0.00  0.00    +0.152 HD
ENDROOT
BRANCH   5  19
ATOM     19  C   UNL     1       1.208  -0.679  -0.013  0.00  0.00    -0.023 A 
ATOM     20  C   UNL     1       2.281   0.028  -0.523  0.00  0.00    +0.008 A 
ATOM     21  C   UNL     1       2.264   1.409  -0.516  0.00  0.00    +0.038 A 
ATOM     22  C   UNL     1       1.173   2.086   0.003  0.00  0.00    +0.123 A 
ATOM     23  C   UNL     1       0.100   1.377   0.514  0.00  0.00    +0.038 A 
ATOM     24  C   UNL     1       0.118  -0.005   0.506  0.00  0.00    +0.008 A 
ATOM     25  F   UNL     1       1.157   3.437   0.011  0.00  0.00    -0.205 F 
ENDBRANCH   5  19
BRANCH   1  28
ATOM     26  C   UNL     1       1.149  -2.747  -8.061  0.00  0.00    +0.165 A 
ATOM     27  C   UNL     1       1.294  -2.335  -6.745  0.00  0.00    +0.053 A 
ATOM     28  C   UNL     1       0.979  -3.195  -5.710  0.00  0.00    -0.036 A 
ATOM     29  C   UNL     1       0.523  -4.471  -5.982  0.00  0.00    +0.053 A 
ATOM     30  C   UNL     1       0.369  -4.889  -7.296  0.00  0.00    +0.165 A 
ATOM     31  C   UNL     1       0.685  -4.027  -8.339  0.00  0.00    +0.204 A 
BRANCH  26  33
ATOM     32  C   UNL     1       1.929  -0.599  -8.719  0.00  0.00    +0.277 C 
ATOM     33  O   UNL     1       1.459  -1.899  -9.078  0.00  0.00    -0.491 OA
ENDBRANCH  26  33
BRANCH  31  34
ATOM     34  O   UNL     1       0.541  -4.436  -9.629  0.00  0.00    -0.488 OA
ATOM     35  C   UNL     1       1.669  -5.064 -10.241  0.00  0.00    +0.277 C 
ENDBRANCH  31  34
BRANCH  30  36
ATOM     36  O   UNL     1      -0.084  -6.144  -7.562  0.00  0.00    -0.491 OA
ATOM     37  C   UNL     1      -0.390  -6.975  -6.441  0.00  0.00    +0.277 C 
ENDBRANCH  30  36
ENDBRANCH   1  28
TORSDOF 5
