REMARK  Name = ZINC40360641
REMARK  20 active torsions:
REMARK  status: ('A' for Active; 'I' for Inactive)
REMARK    1  A    between atoms: C_1  and  C_2
REMARK    2  A    between atoms: C_2  and  C_3
REMARK    3  A    between atoms: C_3  and  C_5
REMARK    4  A    between atoms: C_3  and  N_24
REMARK    5  A    between atoms: N_15  and  C_16
REMARK    6  A    between atoms: C_19  and  C_23
REMARK    7  A    between atoms: C_20  and  C_22
REMARK    8  A    between atoms: N_24  and  C_25
REMARK    9  A    between atoms: C_25  and  C_26
REMARK   10  A    between atoms: C_26  and  N_27
REMARK   11  A    between atoms: N_27  and  C_28
REMARK   12  A    between atoms: N_27  and  C_29
REMARK   13  A    between atoms: C_30  and  C_32
REMARK   14  A    between atoms: C_32  and  C_33
REMARK   15  A    between atoms: C_33  and  C_35
REMARK   16  A    between atoms: C_33  and  C_36
REMARK   17  A    between atoms: C_36  and  C_37
REMARK   18  A    between atoms: C_37  and  C_38
REMARK   19  A    between atoms: C_37  and  C_39
REMARK   20  A    between atoms: C_37  and  C_40
REMARK                            x       y       z     vdW  Elec       q    Type
REMARK                         _______ _______ _______ _____ _____    ______ ____
ROOT
ATOM      1  C   UNL     1      -1.274   0.305  -0.516  0.00  0.00    +0.142 C 
ENDROOT
BRANCH   1   2
ATOM      2  C   UNL     1      -1.030  -1.177  -0.628  0.00  0.00    +0.138 A 
ATOM      3  N   UNL     1      -0.228  -1.601  -1.557  0.00  0.00    -0.231 NA
ATOM      4  C   UNL     1       0.040  -2.921  -1.718  0.00  0.00    +0.078 A 
ATOM      5  C   UNL     1       0.903  -3.378  -2.716  0.00  0.00    +0.028 A 
ATOM      6  C   UNL     1       1.146  -4.727  -2.843  0.00  0.00    +0.002 A 
ATOM      7  C   UNL     1       0.543  -5.642  -1.990  0.00  0.00    +0.001 A 
ATOM      8  C   UNL     1      -0.312  -5.217  -0.998  0.00  0.00    +0.015 A 
ATOM      9  C   UNL     1      -0.571  -3.855  -0.852  0.00  0.00    +0.065 A 
ATOM     10  C   UNL     1      -1.474  -3.343   0.190  0.00  0.00    +0.266 A 
ATOM     11  O   UNL     1      -2.032  -4.094   0.968  0.00  0.00    -0.267 OA
ATOM     12  N   UNL     1      -1.656  -2.003   0.253  0.00  0.00    -0.263 N 
BRANCH  12  13
ATOM     13  C   UNL     1      -2.502  -1.463   1.229  0.00  0.00    +0.051 A 
ATOM     14  C   UNL     1      -3.869  -1.707   1.179  0.00  0.00    +0.026 A 
ATOM     15  C   UNL     1      -4.700  -1.173   2.143  0.00  0.00    +0.005 A 
ATOM     16  C   UNL     1      -4.174  -0.397   3.159  0.00  0.00    -0.047 A 
ATOM     17  C   UNL     1      -2.814  -0.152   3.213  0.00  0.00    -0.046 A 
ATOM     18  C   UNL     1      -1.976  -0.688   2.254  0.00  0.00    +0.030 A 
ATOM     19  C   UNL     1      -2.244   0.696   4.321  0.00  0.00    +0.044 C 
ATOM     20  C   UNL     1      -5.084   0.184   4.211  0.00  0.00    +0.044 C 
ENDBRANCH  12  13
ENDBRANCH   1   2
BRANCH   1  21
ATOM     21  N   UNL     1      -1.980   0.776  -1.710  0.00  0.00    -0.293 N 
ATOM     22  C   UNL     1      -3.139   1.453  -1.585  0.00  0.00    +0.216 C 
ATOM     23  O   UNL     1      -3.597   1.673  -0.484  0.00  0.00    -0.276 OA
BRANCH  21  24
ATOM     24  C   UNL     1      -1.427   0.510  -3.041  0.00  0.00    +0.090 C 
BRANCH  24  25
ATOM     25  C   UNL     1      -2.095  -0.733  -3.632  0.00  0.00    -0.060 C 
BRANCH  25  26
ATOM     26  N   UNL     1      -1.450  -1.076  -4.906  0.00  0.00    +0.377 N 
ATOM     27  C   UNL     1      -2.009  -2.336  -5.415  0.00  0.00    -0.097 C 
ATOM     28  C   UNL     1      -1.692  -0.004  -5.881  0.00  0.00    -0.097 C 
ATOM     29  H   UNL     1      -0.457  -1.183  -4.763  0.00  0.00    -0.083 HD
ENDBRANCH  25  26
ENDBRANCH  24  25
ENDBRANCH  21  24
BRANCH  22  30
ATOM     30  C   UNL     1      -3.865   1.936  -2.814  0.00  0.00    +0.099 C 
BRANCH  30  31
ATOM     31  C   UNL     1      -5.142   2.669  -2.396  0.00  0.00    -0.005 C 
ATOM     32  C   UNL     1      -6.098   1.684  -1.722  0.00  0.00    +0.008 C 
BRANCH  31  33
ATOM     33  C   UNL     1      -5.814   3.268  -3.633  0.00  0.00    +0.010 C 
BRANCH  33  34
ATOM     34  C   UNL     1      -6.704   4.440  -3.213  0.00  0.00    -0.037 C 
ATOM     35  C   UNL     1      -5.840   5.534  -2.582  0.00  0.00    +0.010 C 
ATOM     36  C   UNL     1      -7.420   5.002  -4.442  0.00  0.00    +0.010 C 
ATOM     37  C   UNL     1      -7.739   3.956  -2.196  0.00  0.00    +0.010 C 
ENDBRANCH  33  34
ENDBRANCH  31  33
ENDBRANCH  30  31
ENDBRANCH  22  30
ENDBRANCH   1  21
BRANCH   1  39
ATOM     38  C   UNL     1      -0.184   2.535  -0.224  0.00  0.00    +0.006 C 
ATOM     39  C   UNL     1       0.066   1.035  -0.395  0.00  0.00    +0.027 C 
ENDBRANCH   1  39
TORSDOF 11
