REMARK  Name = ZINC45631377
REMARK  6 active torsions:
REMARK  status: ('A' for Active; 'I' for Inactive)
REMARK    1  A    between atoms: C_1  and  C_2
REMARK    2  A    between atoms: C_3  and  C_7
REMARK    3  A    between atoms: C_10  and  S_12
REMARK    4  A    between atoms: S_12  and  C_13
REMARK    5  A    between atoms: C_13  and  C_14
REMARK    6  A    between atoms: C_24  and  C_28
REMARK                            x       y       z     vdW  Elec       q    Type
REMARK                         _______ _______ _______ _____ _____    ______ ____
ROOT
ATOM      1  C   UNL     1      -8.907   0.651   0.083  0.00  0.00    +0.143 A 
ATOM      2  N   UNL     1      -9.541   0.500  -1.067  0.00  0.00    -0.216 NA
ATOM      3  C   UNL     1     -10.701  -0.129  -1.155  0.00  0.00    +0.128 A 
ATOM      4  C   UNL     1     -11.290  -0.663   0.025  0.00  0.00    +0.051 A 
ATOM      5  C   UNL     1     -12.552  -1.391   0.172  0.00  0.00    -0.025 A 
ATOM      6  C   UNL     1     -12.886  -1.792   1.415  0.00  0.00    -0.004 A 
ATOM      7  S   UNL     1     -11.561  -1.234   2.453  0.00  0.00    -0.073 S 
ATOM      8  C   UNL     1     -10.557  -0.461   1.212  0.00  0.00    +0.114 A 
ATOM      9  N   UNL     1      -9.402   0.175   1.209  0.00  0.00    -0.224 NA
ATOM     10  C   UNL     1     -14.113  -2.548   1.825  0.00  0.00    +0.046 C 
ATOM     11  C   UNL     1     -14.768  -3.131   0.565  0.00  0.00    -0.009 C 
ATOM     12  C   UNL     1     -14.860  -2.029  -0.494  0.00  0.00    +0.008 C 
ATOM     13  C   UNL     1     -13.462  -1.692  -1.016  0.00  0.00    +0.037 C 
ATOM     14  C   UNL     1     -16.170  -3.640   0.904  0.00  0.00    +0.008 C 
ATOM     15  N   UNL     1     -11.333  -0.266  -2.377  0.00  0.00    -0.343 N 
ATOM     16  H   UNL     1     -12.050  -0.911  -2.483  0.00  0.00    +0.144 HD
ATOM     17  H   UNL     1     -11.060   0.283  -3.129  0.00  0.00    +0.144 HD
ENDROOT
BRANCH   1  18
ATOM     18  C   UNL     1      -7.588   1.379   0.107  0.00  0.00    +0.155 C 
BRANCH  18  19
ATOM     19  S   UNL     1      -6.239   0.193  -0.149  0.00  0.00    -0.058 S 
BRANCH  19  23
ATOM     20  C   UNL     1      -2.726   1.840  -0.127  0.00  0.00    +0.253 A 
ATOM     21  N   UNL     1      -3.509   2.872   0.072  0.00  0.00    -0.106 NA
ATOM     22  N   UNL     1      -4.735   2.482   0.091  0.00  0.00    -0.101 NA
ATOM     23  C   UNL     1      -4.783   1.185  -0.095  0.00  0.00    +0.278 A 
ATOM     24  O   UNL     1      -3.516   0.750  -0.242  0.00  0.00    -0.411 OA
BRANCH  20  27
ATOM     25  C   UNL     1      -0.891   4.368   0.141  0.00  0.00    +0.087 C 
ATOM     26  C   UNL     1      -0.439   2.950  -0.101  0.00  0.00    +0.114 A 
ATOM     27  C   UNL     1      -1.251   1.864  -0.215  0.00  0.00    +0.079 A 
ATOM     28  C   UNL     1      -0.357   0.722  -0.443  0.00  0.00    +0.054 A 
ATOM     29  C   UNL     1       0.890   1.221  -0.444  0.00  0.00    +0.196 A 
ATOM     30  O   UNL     1       0.831   2.547  -0.246  0.00  0.00    -0.467 OA
ENDBRANCH  20  27
ENDBRANCH  19  23
ENDBRANCH  18  19
ENDBRANCH   1  18
TORSDOF 4
