REMARK  Name = ZINC38605293
REMARK  9 active torsions:
REMARK  status: ('A' for Active; 'I' for Inactive)
REMARK    1  A    between atoms: C_1  and  C_2
REMARK    2  A    between atoms: C_2  and  C_4
REMARK    3  A    between atoms: C_2  and  N_22
REMARK    4  A    between atoms: N_6  and  C_7
REMARK    5  A    between atoms: C_15  and  C_17
REMARK    6  A    between atoms: C_17  and  O_19
REMARK    7  A    between atoms: O_19  and  C_20
REMARK    8  A    between atoms: C_26  and  C_28
REMARK    9  A    between atoms: C_26  and  C_29
REMARK                            x       y       z     vdW  Elec       q    Type
REMARK                         _______ _______ _______ _____ _____    ______ ____
ROOT
ATOM      1  C   UNL     1       1.251   0.299  -1.452  0.00  0.00    +0.203 C 
ATOM      2  O   UNL     1       0.559  -0.687  -1.584  0.00  0.00    -0.277 OA
ATOM      3  N   UNL     1       2.339   0.468  -2.230  0.00  0.00    -0.288 N 
ATOM      4  H   UNL     1       2.932   1.220  -2.077  0.00  0.00    +0.155 HD
ENDROOT
BRANCH   3   5
ATOM      5  C   UNL     1       2.605  -0.418  -3.230  0.00  0.00    +0.053 C 
ATOM      6  C   UNL     1       3.723  -0.445  -4.047  0.00  0.00    +0.019 A 
ATOM      7  C   UNL     1       4.875   0.374  -4.115  0.00  0.00    +0.026 A 
ATOM      8  C   UNL     1       5.834   0.110  -5.038  0.00  0.00    +0.019 A 
ATOM      9  C   UNL     1       5.715  -0.959  -5.932  0.00  0.00    +0.017 A 
ATOM     10  C   UNL     1       4.640  -1.783  -5.924  0.00  0.00    +0.027 A 
ATOM     11  C   UNL     1       3.595  -1.571  -4.988  0.00  0.00    +0.045 A 
ATOM     12  N   UNL     1       2.465  -2.218  -4.780  0.00  0.00    -0.367 N 
ATOM     13  C   UNL     1       1.744  -1.579  -3.674  0.00  0.00    +0.234 C 
ATOM     14 BR   UNL     1       7.368   1.213  -5.117  0.00  0.00    -0.050 Br
ATOM     15  H   UNL     1       2.162  -2.994  -5.276  0.00  0.00    +0.161 HD
BRANCH  13  16
ATOM     16  C   UNL     1       0.405  -1.080  -4.152  0.00  0.00    +0.335 C 
ATOM     17  O   UNL     1       0.288  -0.641  -5.271  0.00  0.00    -0.248 OA
BRANCH  16  18
ATOM     18  O   UNL     1      -0.658  -1.124  -3.333  0.00  0.00    -0.466 OA
ATOM     19  C   UNL     1      -1.897  -0.634  -3.852  0.00  0.00    +0.280 C 
ENDBRANCH  16  18
ENDBRANCH  13  16
ENDBRANCH   3   5
BRANCH   1  21
ATOM     20  C   UNL     1       0.027   2.421  -1.062  0.00  0.00    -0.004 C 
ATOM     21  C   UNL     1       0.895   1.337  -0.419  0.00  0.00    +0.016 C 
BRANCH  21  22
ATOM     22  N   UNL     1       0.152   0.702   0.677  0.00  0.00    +0.387 N 
ATOM     23  C   UNL     1       1.013  -0.283   1.343  0.00  0.00    -0.078 C 
ATOM     24  C   UNL     1       0.219  -1.006   2.434  0.00  0.00    -0.018 C 
ATOM     25  C   UNL     1      -0.277   0.018   3.459  0.00  0.00    +0.003 C 
ATOM     26  C   UNL     1      -1.113   1.082   2.741  0.00  0.00    -0.050 C 
ATOM     27  C   UNL     1      -0.269   1.727   1.640  0.00  0.00    -0.071 C 
ATOM     28  C   UNL     1      -2.349   0.428   2.122  0.00  0.00    +0.009 C 
ATOM     29  C   UNL     1      -1.548   2.152   3.744  0.00  0.00    +0.009 C 
ATOM     30  H   UNL     1      -0.662   0.236   0.305  0.00  0.00    -0.081 HD
ENDBRANCH  21  22
ENDBRANCH   1  21
TORSDOF 5
