REMARK  Name = ZINC39301876
REMARK  9 active torsions:
REMARK  status: ('A' for Active; 'I' for Inactive)
REMARK    1  A    between atoms: C_1  and  C_2
REMARK    2  A    between atoms: C_5  and  C_8
REMARK    3  A    between atoms: C_9  and  C_35
REMARK    4  A    between atoms: N_10  and  C_18
REMARK    5  A    between atoms: C_18  and  C_19
REMARK    6  A    between atoms: N_21  and  C_22
REMARK    7  A    between atoms: C_22  and  C_23
REMARK    8  A    between atoms: N_26  and  C_29
REMARK    9  A    between atoms: C_29  and  C_30
REMARK                            x       y       z     vdW  Elec       q    Type
REMARK                         _______ _______ _______ _____ _____    ______ ____
ROOT
ATOM      1  C   UNL     1      -1.335  -7.551  -0.706  0.00  0.00    +0.217 C 
ENDROOT
BRANCH   1   4
ATOM      2  C   UNL     1       0.058  -4.256  -0.021  0.00  0.00    +0.006 A 
ATOM      3  C   UNL     1      -0.939  -5.087  -0.496  0.00  0.00    +0.025 A 
ATOM      4  N   UNL     1      -0.551  -6.371  -0.332  0.00  0.00    -0.332 N 
ATOM      5  C   UNL     1       0.690  -6.390   0.242  0.00  0.00    +0.089 A 
ATOM      6  C   UNL     1       1.088  -5.073   0.443  0.00  0.00    -0.011 A 
ATOM      7  C   UNL     1       2.409  -4.707   1.068  0.00  0.00    +0.038 C 
ATOM      8  C   UNL     1       2.848  -5.874   1.962  0.00  0.00    +0.013 C 
ATOM      9  C   UNL     1       2.886  -7.176   1.161  0.00  0.00    +0.081 C 
ATOM     10  C   UNL     1       1.513  -7.483   0.604  0.00  0.00    +0.180 C 
ATOM     11  O   UNL     1       1.136  -8.629   0.461  0.00  0.00    -0.290 OA
ATOM     12  C   UNL     1      -2.244  -4.635  -1.098  0.00  0.00    +0.064 C 
BRANCH   2  17
ATOM     13  C   UNL     1      -0.018   1.503   0.010  0.00  0.00    +0.044 C 
ATOM     14  C   UNL     1       0.002  -0.004   0.002  0.00  0.00    -0.050 A 
ATOM     15  C   UNL     1       0.006  -0.687  -1.201  0.00  0.00    +0.004 A 
ATOM     16  C   UNL     1       0.024  -2.067  -1.214  0.00  0.00    +0.009 A 
ATOM     17  C   UNL     1       0.039  -2.772  -0.013  0.00  0.00    -0.016 A 
ATOM     18  C   UNL     1       0.036  -2.080   1.196  0.00  0.00    +0.009 A 
ATOM     19  C   UNL     1       0.023  -0.700   1.198  0.00  0.00    +0.004 A 
ENDBRANCH   2  17
ENDBRANCH   1   4
BRANCH   1  20
ATOM     20  C   UNL     1      -1.007  -7.942  -2.124  0.00  0.00    +0.233 C 
ATOM     21  O   UNL     1      -0.199  -7.298  -2.760  0.00  0.00    -0.274 OA
ATOM     22  N   UNL     1      -1.612  -9.007  -2.687  0.00  0.00    -0.314 N 
ATOM     23  H   UNL     1      -2.258  -9.522  -2.178  0.00  0.00    +0.149 HD
BRANCH  22  24
ATOM     24  C   UNL     1      -1.294  -9.387  -4.065  0.00  0.00    +0.107 C 
BRANCH  24  25
ATOM     25  C   UNL     1      -2.112 -10.620  -4.456  0.00  0.00    +0.003 C 
ATOM     26  C   UNL     1      -1.674 -11.815  -3.605  0.00  0.00    -0.014 C 
ATOM     27  C   UNL     1      -2.439 -13.062  -4.056  0.00  0.00    -0.078 C 
ATOM     28  N   UNL     1      -2.151 -13.334  -5.469  0.00  0.00    +0.382 N 
ATOM     29  C   UNL     1      -2.632 -12.222  -6.298  0.00  0.00    -0.078 C 
ATOM     30  C   UNL     1      -1.875 -10.944  -5.934  0.00  0.00    -0.014 C 
ATOM     31  H   UNL     1      -1.155 -13.438  -5.593  0.00  0.00    -0.081 HD
BRANCH  28  32
ATOM     32  C   UNL     1      -2.825 -14.574  -5.875  0.00  0.00    -0.042 C 
BRANCH  32  33
ATOM     33  C   UNL     1      -2.431 -14.920  -7.288  0.00  0.00    -0.057 A 
ATOM     34  C   UNL     1      -3.165 -14.442  -8.358  0.00  0.00    +0.009 A 
ATOM     35  C   UNL     1      -2.784 -14.772  -9.616  0.00  0.00    +0.045 A 
ATOM     36  S   UNL     1      -1.348 -15.788  -9.312  0.00  0.00    -0.105 S 
ATOM     37  C   UNL     1      -1.349 -15.700  -7.529  0.00  0.00    +0.047 A 
ENDBRANCH  32  33
ENDBRANCH  28  32
ENDBRANCH  24  25
ENDBRANCH  22  24
ENDBRANCH   1  20
TORSDOF 7
