REMARK  Name = ZINC15276271
REMARK  8 active torsions:
REMARK  status: ('A' for Active; 'I' for Inactive)
REMARK    1  A    between atoms: C_1  and  C_2
REMARK    2  A    between atoms: C_2  and  C_3
REMARK    3  A    between atoms: C_2  and  C_4
REMARK    4  A    between atoms: C_4  and  C_5
REMARK    5  A    between atoms: N_13  and  C_16
REMARK    6  A    between atoms: C_16  and  C_17
REMARK    7  A    between atoms: N_31  and  C_34
REMARK    8  A    between atoms: C_34  and  C_35
REMARK                            x       y       z     vdW  Elec       q    Type
REMARK                         _______ _______ _______ _____ _____    ______ ____
ROOT
ATOM      1  C   UNL     1      -1.406  -2.075   0.003  0.00  0.00    +0.068 C 
ATOM      2  C   UNL     1      -2.827  -2.641  -0.201  0.00  0.00    +0.107 C 
ATOM      3  C   UNL     1      -2.883  -3.908   0.699  0.00  0.00    +0.122 C 
ATOM      4  C   UNL     1      -3.011  -5.037  -0.298  0.00  0.00    +0.229 C 
ATOM      5  O   UNL     1      -3.081  -6.214  -0.017  0.00  0.00    -0.275 OA
ATOM      6  N   UNL     1      -3.036  -4.535  -1.538  0.00  0.00    -0.237 N 
ATOM      7  C   UNL     1      -2.946  -3.187  -1.606  0.00  0.00    +0.227 C 
ATOM      8  O   UNL     1      -2.956  -2.519  -2.618  0.00  0.00    -0.275 OA
ATOM      9  C   UNL     1      -1.514  -3.956   1.386  0.00  0.00    +0.136 C 
ATOM     10  N   UNL     1      -0.975  -2.589   1.330  0.00  0.00    -0.295 NA
ATOM     11  C   UNL     1      -1.624  -4.463   2.796  0.00  0.00    +0.004 A 
ATOM     12  C   UNL     1      -2.313  -4.031   3.908  0.00  0.00    +0.008 A 
ATOM     13  C   UNL     1      -2.211  -4.727   5.099  0.00  0.00    +0.000 A 
ATOM     14  C   UNL     1      -1.415  -5.856   5.171  0.00  0.00    +0.002 A 
ATOM     15  C   UNL     1      -0.723  -6.292   4.060  0.00  0.00    +0.024 A 
ATOM     16  C   UNL     1      -0.820  -5.597   2.857  0.00  0.00    +0.042 A 
ATOM     17  N   UNL     1      -0.227  -5.835   1.615  0.00  0.00    -0.265 N 
ATOM     18  C   UNL     1      -0.584  -4.916   0.697  0.00  0.00    +0.246 C 
ATOM     19  O   UNL     1      -0.226  -4.872  -0.461  0.00  0.00    -0.273 OA
ATOM     20  H   UNL     1       0.031  -2.587   1.410  0.00  0.00    +0.123 HD
ENDROOT
BRANCH   1  21
ATOM     21  C   UNL     1      -1.438  -0.545   0.011  0.00  0.00    +0.022 C 
BRANCH  21  23
ATOM     22  C   UNL     1       0.831  -0.370  -1.020  0.00  0.00    +0.007 C 
ATOM     23  C   UNL     1      -0.019  -0.005   0.199  0.00  0.00    -0.016 C 
ATOM     24  C   UNL     1      -0.067   1.516   0.350  0.00  0.00    +0.007 C 
ENDBRANCH  21  23
ENDBRANCH   1  21
BRANCH   6  25
ATOM     25  C   UNL     1      -3.157  -5.377  -2.731  0.00  0.00    +0.151 C 
BRANCH  25  26
ATOM     26  C   UNL     1      -4.614  -5.562  -3.070  0.00  0.00    -0.030 A 
ATOM     27  C   UNL     1      -5.321  -6.619  -2.529  0.00  0.00    +0.005 A 
ATOM     28  C   UNL     1      -6.657  -6.788  -2.839  0.00  0.00    +0.000 A 
ATOM     29  C   UNL     1      -7.286  -5.900  -3.691  0.00  0.00    +0.000 A 
ATOM     30  C   UNL     1      -6.580  -4.842  -4.232  0.00  0.00    +0.000 A 
ATOM     31  C   UNL     1      -5.244  -4.670  -3.918  0.00  0.00    +0.005 A 
ENDBRANCH  25  26
ENDBRANCH   6  25
BRANCH  17  32
ATOM     32  C   UNL     1       0.678  -6.954   1.342  0.00  0.00    +0.151 C 
BRANCH  32  33
ATOM     33  C   UNL     1      -0.120  -8.144   0.873  0.00  0.00    +0.005 A 
ATOM     34  C   UNL     1      -0.430  -9.160   1.757  0.00  0.00    +0.008 A 
ATOM     35  C   UNL     1      -1.162 -10.251   1.327  0.00  0.00    +0.000 A 
ATOM     36  C   UNL     1      -1.586 -10.327   0.013  0.00  0.00    +0.003 A 
ATOM     37  C   UNL     1      -1.278  -9.311  -0.872  0.00  0.00    +0.038 A 
ATOM     38  C   UNL     1      -0.549  -8.215  -0.441  0.00  0.00    +0.128 A 
ATOM     39  F   UNL     1      -0.252  -7.220  -1.305  0.00  0.00    -0.205 F 
ENDBRANCH  32  33
ENDBRANCH  17  32
TORSDOF 6
