REMARK  Name = ZINC40041444
REMARK  12 active torsions:
REMARK  status: ('A' for Active; 'I' for Inactive)
REMARK    1  A    between atoms: C_1  and  C_2
REMARK    2  A    between atoms: C_2  and  C_3
REMARK    3  A    between atoms: C_9  and  C_26
REMARK    4  A    between atoms: C_16  and  C_25
REMARK    5  A    between atoms: C_18  and  C_24
REMARK    6  A    between atoms: C_29  and  O_34
REMARK    7  A    between atoms: C_30  and  O_32
REMARK    8  A    between atoms: O_32  and  C_33
REMARK    9  A    between atoms: O_34  and  C_35
REMARK   10  A    between atoms: C_35  and  C_36
REMARK   11  A    between atoms: C_36  and  C_37
REMARK   12  A    between atoms: C_36  and  C_38
REMARK                            x       y       z     vdW  Elec       q    Type
REMARK                         _______ _______ _______ _____ _____    ______ ____
ROOT
ATOM      1  C   UNL     1       0.707  -0.490  -1.238  0.00  0.00    +0.103 A 
ATOM      2  N   UNL     1       1.983  -0.760  -1.437  0.00  0.00    -0.145 NA
ATOM      3  N   UNL     1       2.418  -1.164  -2.549  0.00  0.00    -0.125 NA
ATOM      4  C   UNL     1       1.617  -1.343  -3.591  0.00  0.00    +0.191 A 
ATOM      5  S   UNL     1       0.051  -0.874  -2.859  0.00  0.00    -0.035 S 
ATOM      6  N   UNL     1       1.908  -1.775  -4.878  0.00  0.00    -0.230 N 
ATOM      7  C   UNL     1       3.238  -2.152  -5.384  0.00  0.00    +0.152 C 
ATOM      8  C   UNL     1       3.036  -2.539  -6.812  0.00  0.00    +0.072 A 
ATOM      9  C   UNL     1       3.984  -2.993  -7.834  0.00  0.00    +0.199 A 
ATOM     10  O   UNL     1       5.139  -3.294  -7.586  0.00  0.00    -0.287 OA
ATOM     11  C   UNL     1       3.404  -3.053  -9.199  0.00  0.00    +0.065 A 
ATOM     12  C   UNL     1       4.223  -3.272 -10.306  0.00  0.00    +0.018 A 
ATOM     13  C   UNL     1       3.675  -3.319 -11.557  0.00  0.00    -0.049 A 
ATOM     14  C   UNL     1       2.308  -3.148 -11.727  0.00  0.00    +0.010 A 
ATOM     15  C   UNL     1       1.484  -2.932 -10.646  0.00  0.00    -0.007 A 
ATOM     16  C   UNL     1       2.019  -2.883  -9.358  0.00  0.00    +0.142 A 
ATOM     17  O   UNL     1       1.190  -2.679  -8.309  0.00  0.00    -0.449 OA
ATOM     18  C   UNL     1       1.706  -2.401  -7.096  0.00  0.00    +0.199 A 
ATOM     19  C   UNL     1       1.021  -1.928  -5.882  0.00  0.00    +0.289 C 
ATOM     20  O   UNL     1      -0.171  -1.706  -5.797  0.00  0.00    -0.266 OA
ATOM     21  C   UNL     1       0.002  -2.749 -10.852  0.00  0.00    +0.047 C 
ATOM     22  C   UNL     1       4.557  -3.556 -12.756  0.00  0.00    +0.044 C 
ENDROOT
BRANCH   7  23
ATOM     23  C   UNL     1       3.781  -3.318  -4.599  0.00  0.00    -0.018 A 
ATOM     24  C   UNL     1       2.935  -4.338  -4.206  0.00  0.00    +0.009 A 
ATOM     25  C   UNL     1       3.429  -5.411  -3.486  0.00  0.00    +0.050 A 
ATOM     26  C   UNL     1       4.774  -5.465  -3.158  0.00  0.00    +0.162 A 
ATOM     27  C   UNL     1       5.625  -4.438  -3.554  0.00  0.00    +0.162 A 
ATOM     28  C   UNL     1       5.125  -3.369  -4.280  0.00  0.00    +0.055 A 
BRANCH  27  29
ATOM     29  O   UNL     1       6.946  -4.487  -3.234  0.00  0.00    -0.491 OA
ATOM     30  C   UNL     1       7.761  -3.398  -3.675  0.00  0.00    +0.277 C 
ENDBRANCH  27  29
BRANCH  26  31
ATOM     31  O   UNL     1       5.261  -6.519  -2.449  0.00  0.00    -0.488 OA
BRANCH  31  32
ATOM     32  C   UNL     1       4.329  -7.535  -2.076  0.00  0.00    +0.232 C 
BRANCH  32  33
ATOM     33  C   UNL     1       5.055  -8.630  -1.291  0.00  0.00    +0.020 C 
ATOM     34  C   UNL     1       5.574  -8.053   0.027  0.00  0.00    +0.010 C 
ATOM     35  C   UNL     1       4.085  -9.777  -0.999  0.00  0.00    +0.010 C 
ENDBRANCH  32  33
ENDBRANCH  31  32
ENDBRANCH  26  31
ENDBRANCH   7  23
BRANCH   1  37
ATOM     36  C   UNL     1      -0.019   1.526   0.010  0.00  0.00    +0.011 C 
ATOM     37  C   UNL     1       0.002  -0.004   0.002  0.00  0.00    +0.061 C 
ENDBRANCH   1  37
TORSDOF 6
