REMARK  Name = ZINC39884110
REMARK  4 active torsions:
REMARK  status: ('A' for Active; 'I' for Inactive)
REMARK    1  A    between atoms: C_4  and  C_7
REMARK    2  A    between atoms: N_11  and  C_15
REMARK    3  A    between atoms: C_15  and  C_16
REMARK    4  A    between atoms: N_18  and  C_19
REMARK                            x       y       z     vdW  Elec       q    Type
REMARK                         _______ _______ _______ _____ _____    ______ ____
ROOT
ATOM      1  C   UNL     1       3.728  -0.707  -0.037  0.00  0.00    +0.072 C 
ATOM      2  C   UNL     1       3.799  -1.472  -1.300  0.00  0.00    +0.033 A 
ATOM      3  C   UNL     1       4.271  -2.713  -1.526  0.00  0.00    +0.091 A 
ATOM      4  N   UNL     1       4.243  -3.125  -2.836  0.00  0.00    -0.288 N 
ATOM      5  C   UNL     1       3.728  -2.318  -3.781  0.00  0.00    +0.292 A 
ATOM      6  O   UNL     1       3.617  -2.528  -4.976  0.00  0.00    -0.259 OA
ATOM      7  S   UNL     1       3.273  -0.950  -2.916  0.00  0.00    -0.030 S 
ATOM      8  S   UNL     1       4.840  -3.713  -0.173  0.00  0.00    -0.093 S 
ATOM      9  C   UNL     1       4.943  -2.582   1.203  0.00  0.00    +0.153 C 
ATOM     10  C   UNL     1       3.848  -1.510   1.255  0.00  0.00    +0.112 C 
ATOM     11  C   UNL     1       4.565  -0.529   2.211  0.00  0.00    +0.245 C 
ATOM     12  O   UNL     1       3.972   0.363   3.019  0.00  0.00    -0.273 OA
ATOM     13  N   UNL     1       5.853  -0.724   2.091  0.00  0.00    -0.145 NA
ATOM     14  C   UNL     1       6.192  -1.761   1.309  0.00  0.00    +0.253 C 
ATOM     15  O   UNL     1       7.275  -1.987   0.807  0.00  0.00    -0.272 OA
ENDROOT
BRANCH   1  19
ATOM     16  C   UNL     1      -0.002   1.374   0.037  0.00  0.00    +0.000 A 
ATOM     17  C   UNL     1       1.185   2.083   0.021  0.00  0.00    +0.000 A 
ATOM     18  C   UNL     1       2.392   1.409  -0.003  0.00  0.00    +0.004 A 
ATOM     19  C   UNL     1       2.412   0.027  -0.010  0.00  0.00    -0.039 A 
ATOM     20  C   UNL     1       1.226  -0.682   0.007  0.00  0.00    +0.004 A 
ATOM     21  C   UNL     1       0.019  -0.008   0.029  0.00  0.00    +0.000 A 
ENDBRANCH   1  19
BRANCH   4  22
ATOM     22  C   UNL     1       4.773  -4.441  -3.203  0.00  0.00    +0.222 C 
BRANCH  22  23
ATOM     23  C   UNL     1       3.672  -5.467  -3.120  0.00  0.00    +0.237 C 
ATOM     24  O   UNL     1       2.555  -5.132  -2.788  0.00  0.00    -0.274 OA
ATOM     25  N   UNL     1       3.929  -6.756  -3.416  0.00  0.00    -0.284 N 
ATOM     26  H   UNL     1       4.804  -7.013  -3.747  0.00  0.00    +0.155 HD
BRANCH  25  27
ATOM     27  C   UNL     1       2.934  -7.725  -3.247  0.00  0.00    +0.034 A 
ATOM     28  C   UNL     1       3.272  -9.005  -2.827  0.00  0.00    +0.025 A 
ATOM     29  C   UNL     1       2.288  -9.959  -2.661  0.00  0.00    +0.022 A 
ATOM     30  C   UNL     1       0.965  -9.641  -2.912  0.00  0.00    +0.041 A 
ATOM     31  C   UNL     1       0.625  -8.367  -3.331  0.00  0.00    +0.022 A 
ATOM     32  C   UNL     1       1.605  -7.407  -3.493  0.00  0.00    +0.025 A 
ATOM     33 CL   UNL     1      -0.270 -10.843  -2.703  0.00  0.00    -0.084 Cl
ENDBRANCH  25  27
ENDBRANCH  22  23
ENDBRANCH   4  22
TORSDOF 4
