REMARK  Name = ZINC20029014
REMARK  15 active torsions:
REMARK  status: ('A' for Active; 'I' for Inactive)
REMARK    1  A    between atoms: C_1  and  C_2
REMARK    2  A    between atoms: C_6  and  N_9
REMARK    3  A    between atoms: C_7  and  C_8
REMARK    4  A    between atoms: C_10  and  C_12
REMARK    5  A    between atoms: C_12  and  S_13
REMARK    6  A    between atoms: S_13  and  C_14
REMARK    7  A    between atoms: C_15  and  C_36
REMARK    8  A    between atoms: C_16  and  C_29
REMARK    9  A    between atoms: C_18  and  C_22
REMARK   10  A    between atoms: C_19  and  C_21
REMARK   11  A    between atoms: C_22  and  O_24
REMARK   12  A    between atoms: O_24  and  C_25
REMARK   13  A    between atoms: C_25  and  C_26
REMARK   14  A    between atoms: C_26  and  O_27
REMARK   15  A    between atoms: O_27  and  C_28
REMARK                            x       y       z     vdW  Elec       q    Type
REMARK                         _______ _______ _______ _____ _____    ______ ____
ROOT
ATOM      1  C   UNL     1      -4.349   2.614   1.242  0.00  0.00    +0.080 C 
ATOM      2  C   UNL     1      -3.291   3.467   1.291  0.00  0.00    +0.069 C 
ATOM      3  C   UNL     1      -2.525   3.830   0.051  0.00  0.00    +0.102 C 
ATOM      4  C   UNL     1      -3.301   3.467  -1.182  0.00  0.00    +0.066 C 
ATOM      5  C   UNL     1      -4.346   2.624  -1.137  0.00  0.00    +0.016 C 
ATOM      6  N   UNL     1      -4.750   2.066   0.044  0.00  0.00    -0.312 N 
ATOM      7  C   UNL     1      -5.085   2.289  -2.407  0.00  0.00    +0.061 C 
ATOM      8  H   UNL     1      -5.397   1.177   0.035  0.00  0.00    +0.152 HD
ENDROOT
BRANCH   3   9
ATOM      9  C   UNL     1      -1.212   3.090   0.045  0.00  0.00    -0.016 A 
ATOM     10  C   UNL     1      -1.198   1.708   0.040  0.00  0.00    +0.006 A 
ATOM     11  C   UNL     1       0.006   1.028   0.040  0.00  0.00    +0.000 A 
ATOM     12  C   UNL     1       1.197   1.731   0.035  0.00  0.00    +0.001 A 
ATOM     13  C   UNL     1       1.184   3.113   0.035  0.00  0.00    +0.020 A 
ATOM     14  C   UNL     1      -0.021   3.793   0.040  0.00  0.00    +0.045 A 
ATOM     15 CL   UNL     1      -0.038   5.529   0.040  0.00  0.00    -0.083 Cl
ENDBRANCH   3   9
BRANCH   4  16
ATOM     16  C   UNL     1      -2.924   4.027  -2.424  0.00  0.00    +0.338 C 
ATOM     17  O   UNL     1      -3.543   3.744  -3.432  0.00  0.00    -0.245 OA
BRANCH  16  18
ATOM     18  O   UNL     1      -1.878   4.877  -2.490  0.00  0.00    -0.459 OA
BRANCH  18  19
ATOM     19  C   UNL     1      -1.552   5.406  -3.777  0.00  0.00    +0.260 C 
BRANCH  19  20
ATOM     20  C   UNL     1      -0.348   6.342  -3.654  0.00  0.00    +0.200 C 
BRANCH  20  21
ATOM     21  O   UNL     1       0.800   5.591  -3.253  0.00  0.00    -0.380 OA
ATOM     22  C   UNL     1       1.986   6.375  -3.108  0.00  0.00    +0.194 C 
ENDBRANCH  20  21
ENDBRANCH  19  20
ENDBRANCH  18  19
ENDBRANCH  16  18
ENDBRANCH   4  16
BRANCH   2  23
ATOM     23  C   UNL     1      -2.901   4.031   2.548  0.00  0.00    +0.098 C 
ATOM     24  N   UNL     1      -2.591   4.477   3.546  0.00  0.00    -0.191 NA
ENDBRANCH   2  23
BRANCH   1  25
ATOM     25  S   UNL     1      -5.213   2.207   2.723  0.00  0.00    -0.100 S 
BRANCH  25  26
ATOM     26  C   UNL     1      -6.465   1.082   2.057  0.00  0.00    +0.171 C 
BRANCH  26  28
ATOM     27  N   UNL     1      -8.355  -0.263   2.915  0.00  0.00    -0.285 N 
ATOM     28  C   UNL     1      -7.347   0.592   3.176  0.00  0.00    +0.227 C 
ATOM     29  O   UNL     1      -7.149   0.967   4.313  0.00  0.00    -0.275 OA
ATOM     30  H   UNL     1      -8.593  -0.532   1.875  0.00  0.00    +0.155 HD
BRANCH  27  36
ATOM     31  C   UNL     1     -12.540  -2.265   4.543  0.00  0.00    +0.044 C 
ATOM     32  C   UNL     1     -11.132  -1.786   4.783  0.00  0.00    -0.046 A 
ATOM     33  C   UNL     1     -10.575  -1.885   6.045  0.00  0.00    +0.004 A 
ATOM     34  C   UNL     1      -9.283  -1.446   6.271  0.00  0.00    +0.002 A 
ATOM     35  C   UNL     1      -8.543  -0.913   5.234  0.00  0.00    +0.023 A 
ATOM     36  C   UNL     1      -9.101  -0.807   3.966  0.00  0.00    +0.037 A 
ATOM     37  C   UNL     1     -10.399  -1.249   3.744  0.00  0.00    -0.026 A 
ATOM     38  C   UNL     1     -11.006  -1.143   2.369  0.00  0.00    +0.046 C 
ENDBRANCH  27  36
ENDBRANCH  26  28
ENDBRANCH  25  26
ENDBRANCH   1  25
TORSDOF 11
