REMARK  Name = ZINC08590849
REMARK  12 active torsions:
REMARK  status: ('A' for Active; 'I' for Inactive)
REMARK    1  A    between atoms: C_1  and  C_2
REMARK    2  A    between atoms: C_2  and  O_3
REMARK    3  A    between atoms: O_3  and  C_4
REMARK    4  A    between atoms: C_7  and  O_36
REMARK    5  A    between atoms: C_8  and  N_10
REMARK    6  A    between atoms: C_11  and  C_13
REMARK    7  A    between atoms: N_16  and  S_19
REMARK    8  A    between atoms: S_19  and  C_22
REMARK    9  A    between atoms: C_29  and  C_35
REMARK   10  A    between atoms: C_32  and  C_34
REMARK   11  A    between atoms: O_36  and  C_37
REMARK   12  A    between atoms: C_37  and  C_38
REMARK                            x       y       z     vdW  Elec       q    Type
REMARK                         _______ _______ _______ _____ _____    ______ ____
ROOT
ATOM      1  C   UNL     1      -6.676  -4.132   0.236  0.00  0.00    +0.078 C 
ATOM      2  C   UNL     1      -6.968  -4.980  -1.004  0.00  0.00    +0.030 C 
ATOM      3  C   UNL     1      -8.354  -5.619  -0.865  0.00  0.00    +0.110 C 
ATOM      4  N   UNL     1      -9.340  -4.560  -0.613  0.00  0.00    -0.177 NA
ATOM      5  C   UNL     1      -9.108  -3.630   0.502  0.00  0.00    +0.110 C 
ATOM      6  C   UNL     1      -7.715  -3.013   0.348  0.00  0.00    +0.030 C 
ENDROOT
BRANCH   1   8
ATOM      7  N   UNL     1      -4.221  -4.329   0.008  0.00  0.00    -0.282 N 
ATOM      8  C   UNL     1      -5.300  -3.529   0.119  0.00  0.00    +0.220 C 
ATOM      9  O   UNL     1      -5.163  -2.323   0.124  0.00  0.00    -0.275 OA
ATOM     10  H   UNL     1      -4.335  -5.288  -0.077  0.00  0.00    +0.155 HD
BRANCH   7  15
ATOM     11  C   UNL     1      -1.435  -2.001   0.629  0.00  0.00    +0.122 A 
ATOM     12  C   UNL     1      -0.386  -2.680   0.028  0.00  0.00    +0.049 A 
ATOM     13  C   UNL     1      -0.607  -3.903  -0.578  0.00  0.00    +0.051 A 
ATOM     14  C   UNL     1      -1.878  -4.454  -0.587  0.00  0.00    +0.142 A 
ATOM     15  C   UNL     1      -2.934  -3.774   0.016  0.00  0.00    +0.079 A 
ATOM     16  C   UNL     1      -2.708  -2.550   0.628  0.00  0.00    +0.072 A 
BRANCH  11  17
ATOM     17  O   UNL     1      -1.214  -0.799   1.224  0.00  0.00    -0.492 OA
BRANCH  17  19
ATOM     18  C   UNL     1       0.174   1.059   1.903  0.00  0.00    +0.048 C 
ATOM     19  C   UNL     1       0.121  -0.293   1.188  0.00  0.00    +0.225 C 
ENDBRANCH  17  19
ENDBRANCH  11  17
BRANCH  14  20
ATOM     20  O   UNL     1      -2.095  -5.657  -1.183  0.00  0.00    -0.490 OA
BRANCH  20  21
ATOM     21  C   UNL     1      -0.966  -6.297  -1.782  0.00  0.00    +0.226 C 
ATOM     22  C   UNL     1      -1.402  -7.628  -2.398  0.00  0.00    +0.048 C 
ENDBRANCH  20  21
ENDBRANCH  14  20
ENDBRANCH   7  15
ENDBRANCH   1   8
BRANCH   4  23
ATOM     23  S   UNL     1     -10.686  -4.416  -1.566  0.00  0.00    +0.061 S 
ATOM     24  O   UNL     1     -11.113  -3.064  -1.464  0.00  0.00    -0.153 OA
ATOM     25  O   UNL     1     -10.370  -5.023  -2.811  0.00  0.00    -0.153 OA
BRANCH  23  26
ATOM     26  C   UNL     1     -11.951  -5.400  -0.833  0.00  0.00    +0.106 A 
ATOM     27  C   UNL     1     -12.087  -6.730  -1.188  0.00  0.00    +0.030 A 
ATOM     28  C   UNL     1     -13.076  -7.502  -0.616  0.00  0.00    +0.026 A 
ATOM     29  C   UNL     1     -13.947  -6.949   0.324  0.00  0.00    +0.040 A 
ATOM     30  C   UNL     1     -13.802  -5.616   0.673  0.00  0.00    -0.022 A 
ATOM     31  C   UNL     1     -12.806  -4.846   0.102  0.00  0.00    +0.034 A 
ATOM     32  C   UNL     1     -14.857  -5.269   1.699  0.00  0.00    +0.059 C 
ATOM     33  C   UNL     1     -15.641  -6.575   1.905  0.00  0.00    +0.083 C 
ATOM     34  N   UNL     1     -15.004  -7.550   1.015  0.00  0.00    -0.268 N 
ATOM     35  C   UNL     1     -15.382  -8.836   0.880  0.00  0.00    +0.217 C 
ATOM     36  O   UNL     1     -16.316  -9.264   1.526  0.00  0.00    -0.276 OA
ATOM     37  C   UNL     1     -14.646  -9.743  -0.071  0.00  0.00    +0.109 C 
ATOM     38  C   UNL     1     -15.534  -7.034   3.361  0.00  0.00    +0.029 C 
ENDBRANCH  23  26
ENDBRANCH   4  23
TORSDOF 8
