REMARK  Name = ZINC36115948
REMARK  11 active torsions:
REMARK  status: ('A' for Active; 'I' for Inactive)
REMARK    1  A    between atoms: C_1  and  C_2
REMARK    2  A    between atoms: C_2  and  C_3
REMARK    3  A    between atoms: C_3  and  C_5
REMARK    4  A    between atoms: C_3  and  C_6
REMARK    5  A    between atoms: C_6  and  N_7
REMARK    6  A    between atoms: N_7  and  C_8
REMARK    7  A    between atoms: C_8  and  C_9
REMARK    8  A    between atoms: C_19  and  C_21
REMARK    9  A    between atoms: C_21  and  O_22
REMARK   10  A    between atoms: O_22  and  C_23
REMARK   11  A    between atoms: C_30  and  C_32
REMARK                            x       y       z     vdW  Elec       q    Type
REMARK                         _______ _______ _______ _____ _____    ______ ____
ROOT
ATOM      1  C   UNL     1       2.891  -4.253  -2.295  0.00  0.00    +0.234 C 
ATOM      2  O   UNL     1       1.965  -4.977  -1.996  0.00  0.00    -0.274 OA
ATOM      3  N   UNL     1       4.149  -4.737  -2.302  0.00  0.00    -0.289 N 
ATOM      4  C   UNL     1       5.280  -3.866  -2.656  0.00  0.00    +0.114 C 
ATOM      5  C   UNL     1       5.906  -4.394  -3.957  0.00  0.00    +0.061 C 
ATOM      6  C   UNL     1       5.999  -5.883  -3.874  0.00  0.00    -0.004 A 
ATOM      7  C   UNL     1       5.354  -6.714  -3.011  0.00  0.00    -0.014 A 
ATOM      8  C   UNL     1       5.609  -8.078  -3.148  0.00  0.00    +0.013 A 
ATOM      9  C   UNL     1       6.466  -8.514  -4.099  0.00  0.00    +0.046 A 
ATOM     10  S   UNL     1       6.969  -6.983  -4.871  0.00  0.00    -0.101 S 
ATOM     11  C   UNL     1       4.410  -6.139  -1.951  0.00  0.00    +0.144 C 
ENDROOT
BRANCH   1  12
ATOM     12  C   UNL     1       2.635  -2.813  -2.657  0.00  0.00    +0.204 C 
BRANCH  12  13
ATOM     13  N   UNL     1       1.199  -2.536  -2.574  0.00  0.00    -0.288 N 
ATOM     14  C   UNL     1       0.415  -2.712  -3.656  0.00  0.00    +0.250 C 
ATOM     15  O   UNL     1      -0.759  -2.401  -3.613  0.00  0.00    -0.270 OA
BRANCH  14  16
ATOM     16  C   UNL     1       0.983  -3.284  -4.894  0.00  0.00    +0.072 A 
ATOM     17  C   UNL     1       2.067  -2.666  -5.520  0.00  0.00    +0.016 A 
ATOM     18  C   UNL     1       2.592  -3.205  -6.675  0.00  0.00    +0.001 A 
ATOM     19  C   UNL     1       2.048  -4.357  -7.216  0.00  0.00    +0.003 A 
ATOM     20  C   UNL     1       0.975  -4.977  -6.604  0.00  0.00    +0.039 A 
ATOM     21  C   UNL     1       0.441  -4.451  -5.441  0.00  0.00    +0.135 A 
ATOM     22  F   UNL     1      -0.605  -5.060  -4.840  0.00  0.00    -0.205 F 
ENDBRANCH  14  16
BRANCH  13  23
ATOM     23  C   UNL     1       0.615  -2.068  -1.315  0.00  0.00    +0.112 C 
BRANCH  23  24
ATOM     24  C   UNL     1       0.532  -0.540  -1.328  0.00  0.00    +0.003 C 
ATOM     25  C   UNL     1       1.945   0.047  -1.363  0.00  0.00    +0.009 C 
BRANCH  24  27
ATOM     26  C   UNL     1      -0.384   1.459  -0.141  0.00  0.00    +0.004 C 
ATOM     27  C   UNL     1      -0.190  -0.057  -0.069  0.00  0.00    +0.001 C 
ENDBRANCH  24  27
ENDBRANCH  23  24
ENDBRANCH  13  23
ENDBRANCH  12  13
ENDBRANCH   1  12
BRANCH  11  28
ATOM     28  C   UNL     1       5.067  -6.214  -0.571  0.00  0.00    +0.256 C 
BRANCH  28  29
ATOM     29  O   UNL     1       6.354  -5.595  -0.623  0.00  0.00    -0.490 OA
BRANCH  29  30
ATOM     30  C   UNL     1       7.077  -5.576   0.529  0.00  0.00    +0.121 A 
ATOM     31  C   UNL     1       6.559  -6.146   1.683  0.00  0.00    +0.047 A 
ATOM     32  C   UNL     1       7.294  -6.126   2.852  0.00  0.00    +0.023 A 
ATOM     33  C   UNL     1       8.546  -5.537   2.873  0.00  0.00    +0.041 A 
ATOM     34  C   UNL     1       9.064  -4.967   1.723  0.00  0.00    +0.023 A 
ATOM     35  C   UNL     1       8.334  -4.991   0.550  0.00  0.00    +0.047 A 
ATOM     36 CL   UNL     1       9.468  -5.512   4.344  0.00  0.00    -0.084 Cl
ENDBRANCH  29  30
ENDBRANCH  28  29
ENDBRANCH  11  28
TORSDOF 9
