REMARK  Name = ZINC49418215
REMARK  8 active torsions:
REMARK  status: ('A' for Active; 'I' for Inactive)
REMARK    1  A    between atoms: C_1  and  C_2
REMARK    2  A    between atoms: C_3  and  C_11
REMARK    3  A    between atoms: C_8  and  C_10
REMARK    4  A    between atoms: C_11  and  C_12
REMARK    5  A    between atoms: N_14  and  S_15
REMARK    6  A    between atoms: S_15  and  C_18
REMARK    7  A    between atoms: C_18  and  C_19
REMARK    8  A    between atoms: C_18  and  C_20
REMARK                            x       y       z     vdW  Elec       q    Type
REMARK                         _______ _______ _______ _____ _____    ______ ____
ROOT
ATOM      1  C   UNL     1      -0.018   1.503   0.010  0.00  0.00    +0.066 C 
ATOM      2  C   UNL     1       0.002  -0.004   0.002  0.00  0.00    +0.049 A 
ATOM      3  C   UNL     1      -1.167  -0.702   0.004  0.00  0.00    +0.047 A 
ATOM      4  C   UNL     1      -1.113  -2.111  -0.005  0.00  0.00    +0.255 A 
ATOM      5  O   UNL     1      -2.136  -2.774  -0.004  0.00  0.00    -0.267 OA
ATOM      6  N   UNL     1       0.097  -2.710  -0.014  0.00  0.00    -0.311 N 
ATOM      7  H   UNL     1       0.160  -3.678  -0.020  0.00  0.00    +0.170 HD
ATOM      8  C   UNL     1       1.218  -1.962  -0.015  0.00  0.00    +0.107 A 
ATOM      9  N   UNL     1       1.167  -0.657  -0.013  0.00  0.00    -0.239 NA
ATOM     10  C   UNL     1       2.560  -2.647  -0.026  0.00  0.00    +0.086 C 
ENDROOT
BRANCH   3  11
ATOM     11  C   UNL     1      -2.492   0.017   0.015  0.00  0.00    +0.144 C 
BRANCH  11  12
ATOM     12  C   UNL     1      -3.000   0.156  -1.397  0.00  0.00    +0.269 C 
ATOM     13  O   UNL     1      -4.178   0.771  -1.633  0.00  0.00    -0.269 OA
ATOM     14  N   UNL     1      -2.309  -0.313  -2.381  0.00  0.00    -0.095 NA
BRANCH  14  15
ATOM     15  S   UNL     1      -2.867  -0.160  -3.932  0.00  0.00    +0.075 S 
ATOM     16  O   UNL     1      -4.065  -0.923  -3.963  0.00  0.00    -0.151 OA
ATOM     17  O   UNL     1      -2.893   1.240  -4.171  0.00  0.00    -0.151 OA
BRANCH  15  18
ATOM     18  C   UNL     1      -1.598  -0.946  -4.963  0.00  0.00    +0.149 C 
ATOM     19  C   UNL     1      -1.449  -2.414  -4.558  0.00  0.00    +0.033 C 
ATOM     20  C   UNL     1      -2.013  -0.863  -6.434  0.00  0.00    +0.033 C 
ENDBRANCH  15  18
ENDBRANCH  14  15
ENDBRANCH  11  12
ENDBRANCH   3  11
TORSDOF 4
