REMARK  Name = ZINC20679511
REMARK  7 active torsions:
REMARK  status: ('A' for Active; 'I' for Inactive)
REMARK    1  A    between atoms: C_1  and  C_2
REMARK    2  A    between atoms: C_2  and  C_3
REMARK    3  A    between atoms: C_3  and  O_4
REMARK    4  A    between atoms: O_4  and  C_5
REMARK    5  A    between atoms: C_5  and  C_7
REMARK    6  A    between atoms: C_20  and  C_23
REMARK    7  A    between atoms: C_26  and  O_29
REMARK                            x       y       z     vdW  Elec       q    Type
REMARK                         _______ _______ _______ _____ _____    ______ ____
ROOT
ATOM      1  C   UNL     1       3.540   1.896  -3.165  0.00  0.00    +0.059 A 
ATOM      2  C   UNL     1       3.081   0.707  -3.743  0.00  0.00    +0.017 A 
ATOM      3  C   UNL     1       2.119  -0.032  -3.119  0.00  0.00    +0.024 A 
ATOM      4  C   UNL     1       1.583   0.384  -1.902  0.00  0.00    +0.031 A 
ATOM      5  C   UNL     1       2.048   1.569  -1.312  0.00  0.00    -0.019 A 
ATOM      6  C   UNL     1       3.011   2.318  -1.941  0.00  0.00    +0.021 A 
ATOM      7  C   UNL     1       1.478   1.949  -0.002  0.00  0.00    +0.049 C 
ATOM      8  C   UNL     1       1.423   3.363   0.451  0.00  0.00    -0.023 C 
ATOM      9  C   UNL     1       0.356   3.520   1.224  0.00  0.00    -0.030 C 
ATOM     10  C   UNL     1      -0.417   2.203   1.322  0.00  0.00    +0.033 C 
ATOM     11  C   UNL     1      -0.018   1.514   0.010  0.00  0.00    +0.029 C 
ATOM     12  C   UNL     1       0.002  -0.004   0.002  0.00  0.00    +0.105 C 
ATOM     13  N   UNL     1       0.590  -0.388  -1.300  0.00  0.00    -0.336 N 
ATOM     14  H   UNL     1       0.245  -1.298  -1.812  0.00  0.00    +0.147 HD
ENDROOT
BRANCH  12  15
ATOM     15  C   UNL     1      -1.400  -0.544   0.120  0.00  0.00    -0.027 A 
ATOM     16  C   UNL     1      -2.219  -0.587  -0.994  0.00  0.00    +0.009 A 
ATOM     17  C   UNL     1      -3.502  -1.087  -0.890  0.00  0.00    +0.046 A 
ATOM     18  C   UNL     1      -3.974  -1.536   0.336  0.00  0.00    +0.117 A 
ATOM     19  C   UNL     1      -3.152  -1.486   1.452  0.00  0.00    +0.046 A 
ATOM     20  C   UNL     1      -1.867  -0.991   1.342  0.00  0.00    +0.009 A 
BRANCH  18  21
ATOM     21  O   UNL     1      -5.238  -2.022   0.442  0.00  0.00    -0.507 OA
ATOM     22  H   UNL     1      -5.611  -2.377   1.414  0.00  0.00    +0.292 HD
ENDBRANCH  18  21
ENDBRANCH  12  15
BRANCH   1  23
ATOM     23  C   UNL     1       4.574   2.698  -3.842  0.00  0.00    +0.339 C 
ATOM     24  O   UNL     1       4.970   3.730  -3.337  0.00  0.00    -0.245 OA
BRANCH  23  25
ATOM     25  O   UNL     1       5.081   2.287  -5.021  0.00  0.00    -0.461 OA
BRANCH  25  26
ATOM     26  C   UNL     1       6.097   3.127  -5.630  0.00  0.00    +0.232 C 
BRANCH  26  28
ATOM     27  C   UNL     1       7.619   3.388  -7.595  0.00  0.00    +0.007 C 
ATOM     28  C   UNL     1       6.549   2.503  -6.952  0.00  0.00    +0.038 C 
ENDBRANCH  26  28
ENDBRANCH  25  26
ENDBRANCH  23  25
ENDBRANCH   1  23
TORSDOF 6
