REMARK  Name = ZINC24708654
REMARK  8 active torsions:
REMARK  status: ('A' for Active; 'I' for Inactive)
REMARK    1  A    between atoms: C_1  and  C_2
REMARK    2  A    between atoms: C_7  and  C_9
REMARK    3  A    between atoms: C_7  and  C_10
REMARK    4  A    between atoms: N_13  and  C_17
REMARK    5  A    between atoms: C_17  and  C_18
REMARK    6  A    between atoms: N_20  and  C_21
REMARK    7  A    between atoms: C_21  and  C_23
REMARK    8  A    between atoms: C_21  and  C_29
REMARK                            x       y       z     vdW  Elec       q    Type
REMARK                         _______ _______ _______ _____ _____    ______ ____
ROOT
ATOM      1  C   UNL     1      -4.972  -3.399  -2.310  0.00  0.00    +0.232 C 
ATOM      2  O   UNL     1      -4.651  -2.256  -2.558  0.00  0.00    -0.274 OA
ATOM      3  N   UNL     1      -6.127  -3.895  -2.795  0.00  0.00    -0.300 N 
ATOM      4  H   UNL     1      -6.383  -4.809  -2.596  0.00  0.00    +0.150 HD
ENDROOT
BRANCH   1   5
ATOM      5  C   UNL     1      -4.079  -4.264  -1.458  0.00  0.00    +0.213 C 
BRANCH   5  17
ATOM      6  C   UNL     1      -0.159   1.471  -0.048  0.00  0.00    +0.007 C 
ATOM      7  C   UNL     1      -0.085  -0.057  -0.027  0.00  0.00    -0.011 C 
ATOM      8  C   UNL     1      -1.501  -0.636   0.015  0.00  0.00    +0.038 C 
ATOM      9  C   UNL     1      -1.428  -2.159   0.057  0.00  0.00    +0.113 C 
ATOM     10  C   UNL     1      -0.642  -2.627   1.276  0.00  0.00    +0.041 C 
ATOM     11  C   UNL     1       0.772  -2.041   1.230  0.00  0.00    -0.032 C 
ATOM     12  C   UNL     1       0.688  -0.513   1.212  0.00  0.00    +0.009 C 
ATOM     13  C   UNL     1       1.553  -2.495   2.465  0.00  0.00    +0.011 C 
ATOM     14  C   UNL     1       1.485  -2.527  -0.033  0.00  0.00    +0.011 C 
ATOM     15  C   UNL     1      -2.817  -2.754   0.064  0.00  0.00    +0.247 C 
ATOM     16  O   UNL     1      -3.679  -2.595   0.901  0.00  0.00    -0.273 OA
ATOM     17  N   UNL     1      -2.895  -3.499  -1.058  0.00  0.00    -0.215 N 
ATOM     18  C   UNL     1      -1.756  -3.453  -1.761  0.00  0.00    +0.310 C 
ATOM     19  O   UNL     1      -1.585  -4.042  -2.810  0.00  0.00    -0.252 OA
ATOM     20  N   UNL     1      -0.823  -2.679  -1.176  0.00  0.00    -0.285 N 
ATOM     21  H   UNL     1       0.073  -2.500  -1.504  0.00  0.00    +0.151 HD
ENDBRANCH   5  17
ENDBRANCH   1   5
BRANCH   3  22
ATOM     22  C   UNL     1      -6.995  -3.054  -3.623  0.00  0.00    +0.169 C 
BRANCH  22  23
ATOM     23  C   UNL     1      -8.414  -3.553  -3.530  0.00  0.00    +0.131 A 
ATOM     24  C   UNL     1      -9.499  -2.769  -3.459  0.00  0.00    +0.055 A 
ATOM     25  C   UNL     1     -10.653  -3.674  -3.383  0.00  0.00    +0.020 A 
ATOM     26  C   UNL     1     -12.032  -3.490  -3.293  0.00  0.00    +0.011 A 
ATOM     27  C   UNL     1     -12.858  -4.578  -3.239  0.00  0.00    +0.001 A 
ATOM     28  C   UNL     1     -12.333  -5.862  -3.273  0.00  0.00    +0.004 A 
ATOM     29  C   UNL     1     -10.973  -6.063  -3.362  0.00  0.00    +0.047 A 
ATOM     30  C   UNL     1     -10.115  -4.972  -3.419  0.00  0.00    +0.135 A 
ATOM     31  O   UNL     1      -8.776  -4.848  -3.512  0.00  0.00    -0.457 OA
ENDBRANCH  22  23
BRANCH  22  32
ATOM     32  C   UNL     1      -6.535  -3.115  -5.056  0.00  0.00    -0.020 A 
ATOM     33  C   UNL     1      -6.117  -4.316  -5.598  0.00  0.00    +0.006 A 
ATOM     34  C   UNL     1      -5.695  -4.372  -6.913  0.00  0.00    +0.000 A 
ATOM     35  C   UNL     1      -5.690  -3.226  -7.687  0.00  0.00    +0.000 A 
ATOM     36  C   UNL     1      -6.108  -2.025  -7.145  0.00  0.00    +0.000 A 
ATOM     37  C   UNL     1      -6.535  -1.970  -5.831  0.00  0.00    +0.006 A 
ENDBRANCH  22  32
ENDBRANCH   3  22
TORSDOF 5
