REMARK  Name = ZINC58819219
REMARK  4 active torsions:
REMARK  status: ('A' for Active; 'I' for Inactive)
REMARK    1  A    between atoms: C_4  and  C_10
REMARK    2  A    between atoms: C_6  and  N_7
REMARK    3  A    between atoms: N_12  and  C_13
REMARK    4  A    between atoms: C_13  and  C_14
REMARK                            x       y       z     vdW  Elec       q    Type
REMARK                         _______ _______ _______ _____ _____    ______ ____
ROOT
ATOM      1  C   UNL     1       3.695  -0.686  -0.038  0.00  0.00    +0.245 C 
ATOM      2  O   UNL     1       4.738  -0.061  -0.046  0.00  0.00    -0.270 OA
ATOM      3  N   UNL     1       3.716  -2.033  -0.046  0.00  0.00    -0.307 N 
ATOM      4  H   UNL     1       2.884  -2.532  -0.040  0.00  0.00    +0.149 HD
ENDROOT
BRANCH   1   8
ATOM      5  C   UNL     1      -0.017   1.379   0.010  0.00  0.00    +0.034 A 
ATOM      6  C   UNL     1       1.168   2.094   0.002  0.00  0.00    +0.017 A 
ATOM      7  C   UNL     1       2.378   1.429  -0.013  0.00  0.00    +0.026 A 
ATOM      8  C   UNL     1       2.404   0.033  -0.021  0.00  0.00    +0.052 A 
ATOM      9  C   UNL     1       1.204  -0.681  -0.013  0.00  0.00    +0.046 A 
ATOM     10  C   UNL     1       0.002  -0.004   0.002  0.00  0.00    +0.127 A 
ATOM     11  I   UNL     1       4.171   2.513  -0.026  0.00  0.00    -0.043 I 
BRANCH  10  12
ATOM     12  N   UNL     1      -1.271  -0.760   0.011  0.00  0.00    +0.056 N 
ATOM     13  O   UNL     1      -2.325  -0.168   0.024  0.00  0.00    -0.126 OA
ATOM     14  O   UNL     1      -1.256  -1.969   0.004  0.00  0.00    -0.126 OA
ENDBRANCH  10  12
ENDBRANCH   1   8
BRANCH   3  15
ATOM     15  C   UNL     1       4.996  -2.746  -0.063  0.00  0.00    +0.141 C 
BRANCH  15  16
ATOM     16  C   UNL     1       4.744  -4.231  -0.068  0.00  0.00    -0.014 A 
ATOM     17  C   UNL     1       4.634  -4.929   1.128  0.00  0.00    +0.010 A 
ATOM     18  C   UNL     1       4.402  -6.291   1.079  0.00  0.00    +0.042 A 
ATOM     19  C   UNL     1       4.289  -6.914  -0.160  0.00  0.00    +0.099 A 
ATOM     20  N   UNL     1       4.401  -6.214  -1.279  0.00  0.00    -0.349 N 
ATOM     21  C   UNL     1       4.615  -4.912  -1.262  0.00  0.00    +0.089 A 
ATOM     22  N   UNL     1       4.057  -8.283  -0.224  0.00  0.00    -0.317 N 
ATOM     23  C   UNL     1       3.906  -9.181   0.930  0.00  0.00    +0.106 C 
ATOM     24  C   UNL     1       3.691 -10.606   0.376  0.00  0.00    +0.020 C 
ATOM     25  C   UNL     1       4.297 -10.520  -1.050  0.00  0.00    +0.020 C 
ATOM     26  C   UNL     1       3.915  -9.073  -1.461  0.00  0.00    +0.106 C 
ATOM     27  H   UNL     1       4.318  -6.669  -2.131  0.00  0.00    +0.167 HD
ENDBRANCH  15  16
ENDBRANCH   3  15
TORSDOF 4
