REMARK  Name = ZINC14660263
REMARK  12 active torsions:
REMARK  status: ('A' for Active; 'I' for Inactive)
REMARK    1  A    between atoms: C_1  and  C_2
REMARK    2  A    between atoms: C_2  and  O_3
REMARK    3  A    between atoms: O_3  and  C_4
REMARK    4  A    between atoms: C_7  and  C_12
REMARK    5  A    between atoms: C_9  and  O_10
REMARK    6  A    between atoms: O_10  and  C_11
REMARK    7  A    between atoms: N_16  and  C_20
REMARK    8  A    between atoms: C_20  and  C_21
REMARK    9  A    between atoms: C_21  and  N_22
REMARK   10  A    between atoms: C_23  and  C_25
REMARK   11  A    between atoms: C_28  and  C_32
REMARK   12  A    between atoms: C_29  and  C_31
REMARK                            x       y       z     vdW  Elec       q    Type
REMARK                         _______ _______ _______ _____ _____    ______ ____
ROOT
ATOM      1  C   UNL     1       2.443   3.214  -0.004  0.00  0.00    +0.028 C 
ATOM      2  C   UNL     1       1.809   2.061  -0.334  0.00  0.00    +0.080 C 
ATOM      3  C   UNL     1       2.350   0.693  -0.464  0.00  0.00    +0.260 C 
ATOM      4  O   UNL     1       3.526   0.449  -0.267  0.00  0.00    -0.269 OA
ATOM      5  N   UNL     1       1.491  -0.254  -0.803  0.00  0.00    -0.227 N 
ATOM      6  C   UNL     1       0.189   0.020  -1.020  0.00  0.00    +0.286 C 
ATOM      7  O   UNL     1      -0.702  -0.745  -1.336  0.00  0.00    -0.262 OA
ATOM      8  S   UNL     1       0.089   1.780  -0.733  0.00  0.00    -0.026 S 
ENDROOT
BRANCH   1  12
ATOM      9  C   UNL     1       0.397   6.921  -0.279  0.00  0.00    +0.162 A 
ATOM     10  C   UNL     1       1.651   6.864   0.315  0.00  0.00    +0.050 A 
ATOM     11  C   UNL     1       2.319   5.663   0.406  0.00  0.00    +0.012 A 
ATOM     12  C   UNL     1       1.734   4.496  -0.100  0.00  0.00    -0.020 A 
ATOM     13  C   UNL     1       0.471   4.556  -0.703  0.00  0.00    +0.057 A 
ATOM     14  C   UNL     1      -0.193   5.764  -0.785  0.00  0.00    +0.162 A 
BRANCH  14  15
ATOM     15  O   UNL     1      -1.421   5.826  -1.366  0.00  0.00    -0.491 OA
ATOM     16  C   UNL     1      -1.966   4.602  -1.864  0.00  0.00    +0.277 C 
ENDBRANCH  14  15
BRANCH   9  17
ATOM     17  O   UNL     1      -0.257   8.109  -0.366  0.00  0.00    -0.489 OA
BRANCH  17  19
ATOM     18  C   UNL     1      -0.479  10.490  -0.016  0.00  0.00    +0.048 C 
ATOM     19  C   UNL     1       0.405   9.255   0.173  0.00  0.00    +0.226 C 
ENDBRANCH  17  19
ENDBRANCH   9  17
ENDBRANCH   1  12
BRANCH   5  20
ATOM     20  C   UNL     1       1.966  -1.633  -0.948  0.00  0.00    +0.136 C 
BRANCH  20  21
ATOM     21  C   UNL     1       2.414  -1.869  -2.391  0.00  0.00    +0.124 C 
BRANCH  21  22
ATOM     22  N   UNL     1       2.889  -3.248  -2.535  0.00  0.00    -0.310 N 
ATOM     23  C   UNL     1       3.336  -3.685  -3.729  0.00  0.00    +0.244 C 
ATOM     24  O   UNL     1       3.345  -2.936  -4.686  0.00  0.00    -0.270 OA
ATOM     25  H   UNL     1       2.881  -3.846  -1.772  0.00  0.00    +0.149 HD
BRANCH  23  26
ATOM     26  C   UNL     1       3.815  -5.076  -3.875  0.00  0.00    +0.037 A 
ATOM     27  C   UNL     1       3.806  -5.939  -2.778  0.00  0.00    +0.013 A 
ATOM     28  C   UNL     1       4.254  -7.236  -2.920  0.00  0.00    +0.004 A 
ATOM     29  C   UNL     1       4.711  -7.682  -4.148  0.00  0.00    -0.047 A 
ATOM     30  C   UNL     1       4.723  -6.832  -5.239  0.00  0.00    -0.047 A 
ATOM     31  C   UNL     1       4.273  -5.534  -5.111  0.00  0.00    +0.016 A 
ATOM     32  C   UNL     1       5.223  -7.326  -6.572  0.00  0.00    +0.044 C 
ATOM     33  C   UNL     1       5.199  -9.100  -4.296  0.00  0.00    +0.044 C 
ENDBRANCH  23  26
ENDBRANCH  21  22
ENDBRANCH  20  21
ENDBRANCH   5  20
TORSDOF 8
