REMARK  Name = ZINC43981728
REMARK  7 active torsions:
REMARK  status: ('A' for Active; 'I' for Inactive)
REMARK    1  A    between atoms: C_1  and  C_2
REMARK    2  A    between atoms: C_2  and  O_4
REMARK    3  A    between atoms: O_4  and  C_5
REMARK    4  A    between atoms: C_11  and  C_37
REMARK    5  A    between atoms: C_22  and  C_36
REMARK    6  A    between atoms: C_25  and  O_28
REMARK    7  A    between atoms: O_28  and  C_29
REMARK                            x       y       z     vdW  Elec       q    Type
REMARK                         _______ _______ _______ _____ _____    ______ ____
ROOT
ATOM      1  C   UNL     1      -1.057  -2.117   0.001  0.00  0.00    +0.183 C 
ATOM      2  C   UNL     1      -1.092  -2.641  -1.447  0.00  0.00    +0.045 C 
ATOM      3  C   UNL     1      -2.358  -3.520  -1.568  0.00  0.00    +0.008 C 
ATOM      4  C   UNL     1      -3.266  -2.999  -0.439  0.00  0.00    +0.002 C 
ATOM      5  C   UNL     1      -2.285  -2.736   0.720  0.00  0.00    +0.008 C 
ATOM      6  C   UNL     1      -1.813  -4.055   1.338  0.00  0.00    +0.011 C 
ATOM      7  C   UNL     1      -3.003  -4.911   1.760  0.00  0.00    +0.005 C 
ATOM      8  C   UNL     1      -3.821  -5.260   0.512  0.00  0.00    -0.001 C 
ATOM      9  C   UNL     1      -4.360  -3.973  -0.077  0.00  0.00    -0.004 C 
ATOM     10  C   UNL     1      -5.202  -4.314  -1.309  0.00  0.00    +0.004 C 
ATOM     11  C   UNL     1      -6.353  -5.235  -0.902  0.00  0.00    +0.004 C 
ATOM     12  C   UNL     1      -5.789  -6.522  -0.296  0.00  0.00    -0.002 C 
ATOM     13  C   UNL     1      -4.973  -6.187   0.907  0.00  0.00    -0.026 C 
ATOM     14  C   UNL     1      -4.407  -7.481   1.496  0.00  0.00    +0.010 C 
ATOM     15  C   UNL     1      -3.529  -8.175   0.453  0.00  0.00    +0.032 C 
ATOM     16  C   UNL     1      -4.368  -8.502  -0.784  0.00  0.00    +0.122 C 
ATOM     17  C   UNL     1      -4.912  -7.231  -1.330  0.00  0.00    +0.035 C 
ATOM     18  C   UNL     1      -5.851  -5.494   1.950  0.00  0.00    +0.012 C 
ATOM     19  C   UNL     1      -2.876  -1.787   1.764  0.00  0.00    +0.015 C 
ENDROOT
BRANCH   1  20
ATOM     20  O   UNL     1      -1.151  -0.691   0.009  0.00  0.00    -0.461 OA
BRANCH  20  22
ATOM     21  C   UNL     1      -0.018   1.503   0.010  0.00  0.00    +0.136 C 
ATOM     22  C   UNL     1       0.002  -0.004   0.002  0.00  0.00    +0.304 C 
ATOM     23  O   UNL     1       1.056  -0.594  -0.011  0.00  0.00    -0.251 OA
ENDBRANCH  20  22
ENDBRANCH   1  20
BRANCH  16  24
ATOM     24  O   UNL     1      -3.548  -9.150  -1.758  0.00  0.00    -0.348 OA
BRANCH  24  25
ATOM     25  C   UNL     1      -3.521 -10.574  -1.641  0.00  0.00    +0.250 C 
ATOM     26  C   UNL     1      -2.434 -11.141  -2.557  0.00  0.00    +0.061 C 
ATOM     27  C   UNL     1      -2.452 -12.670  -2.471  0.00  0.00    +0.007 C 
ATOM     28  C   UNL     1      -3.849 -13.176  -2.843  0.00  0.00    +0.028 C 
ATOM     29  C   UNL     1      -4.881 -12.530  -1.915  0.00  0.00    +0.163 C 
ATOM     30  O   UNL     1      -4.791 -11.108  -2.021  0.00  0.00    -0.351 OA
ENDBRANCH  24  25
ENDBRANCH  16  24
TORSDOF 4
