REMARK  Name = ZINC36024661
REMARK  6 active torsions:
REMARK  status: ('A' for Active; 'I' for Inactive)
REMARK    1  A    between atoms: C_1  and  C_2
REMARK    2  A    between atoms: N_6  and  C_27
REMARK    3  A    between atoms: N_11  and  S_14
REMARK    4  A    between atoms: S_14  and  C_17
REMARK    5  A    between atoms: C_21  and  C_23
REMARK    6  A    between atoms: C_27  and  C_28
REMARK                            x       y       z     vdW  Elec       q    Type
REMARK                         _______ _______ _______ _____ _____    ______ ____
ROOT
ATOM      1  C   UNL     1       0.642   1.206   0.781  0.00  0.00    -0.004 C 
ATOM      2  C   UNL     1       0.508  -0.318   0.804  0.00  0.00    +0.016 C 
ATOM      3  C   UNL     1      -0.910  -0.728   0.472  0.00  0.00    +0.200 C 
ATOM      4  O   UNL     1      -1.590  -0.269  -0.421  0.00  0.00    -0.277 OA
ATOM      5  N   UNL     1      -1.291  -1.691   1.337  0.00  0.00    -0.309 N 
ATOM      6  C   UNL     1      -0.193  -1.979   2.263  0.00  0.00    +0.006 C 
ATOM      7  N   UNL     1       0.743  -0.837   2.174  0.00  0.00    +0.401 N 
ATOM      8  C   UNL     1       0.523  -3.263   1.849  0.00  0.00    +0.023 C 
ATOM      9  C   UNL     1      -0.462  -4.435   1.906  0.00  0.00    +0.109 C 
ATOM     10  N   UNL     1      -1.071  -4.477   3.242  0.00  0.00    -0.177 NA
ATOM     11  C   UNL     1      -1.719  -3.265   3.762  0.00  0.00    +0.109 C 
ATOM     12  C   UNL     1      -0.723  -2.103   3.690  0.00  0.00    +0.023 C 
ATOM     13  H   UNL     1       1.698  -1.147   2.279  0.00  0.00    -0.082 HD
ATOM     14  H   UNL     1       0.516  -0.136   2.864  0.00  0.00    -0.082 HD
ENDROOT
BRANCH  10  15
ATOM     15  S   UNL     1      -1.027  -5.864   4.146  0.00  0.00    +0.061 S 
ATOM     16  O   UNL     1      -2.112  -5.788   5.059  0.00  0.00    -0.153 OA
ATOM     17  O   UNL     1      -0.875  -6.940   3.231  0.00  0.00    -0.153 OA
BRANCH  15  18
ATOM     18  C   UNL     1       0.447  -5.811   5.110  0.00  0.00    +0.106 A 
ATOM     19  C   UNL     1       1.622  -6.339   4.607  0.00  0.00    +0.028 A 
ATOM     20  C   UNL     1       2.778  -6.297   5.363  0.00  0.00    +0.002 A 
ATOM     21  C   UNL     1       2.760  -5.727   6.623  0.00  0.00    +0.012 A 
ATOM     22  C   UNL     1       1.586  -5.199   7.125  0.00  0.00    +0.057 A 
ATOM     23  C   UNL     1       0.430  -5.236   6.367  0.00  0.00    +0.041 A 
BRANCH  22  24
ATOM     24  C   UNL     1       1.566  -4.578   8.498  0.00  0.00    +0.417 C 
ATOM     25  F   UNL     1       2.844  -4.654   9.063  0.00  0.00    -0.166 F 
ATOM     26  F   UNL     1       1.181  -3.237   8.398  0.00  0.00    -0.166 F 
ATOM     27  F   UNL     1       0.656  -5.266   9.308  0.00  0.00    -0.166 F 
ENDBRANCH  22  24
ENDBRANCH  15  18
ENDBRANCH  10  15
BRANCH   5  28
ATOM     28  C   UNL     1      -2.601  -2.346   1.349  0.00  0.00    +0.141 C 
BRANCH  28  29
ATOM     29  C   UNL     1      -3.603  -1.455   2.038  0.00  0.00    -0.026 A 
ATOM     30  C   UNL     1      -3.494  -1.215   3.395  0.00  0.00    +0.009 A 
ATOM     31  C   UNL     1      -4.410  -0.398   4.030  0.00  0.00    +0.050 A 
ATOM     32  C   UNL     1      -5.440   0.182   3.308  0.00  0.00    +0.166 A 
ATOM     33  C   UNL     1      -5.550  -0.059   1.941  0.00  0.00    +0.167 A 
ATOM     34  C   UNL     1      -4.625  -0.875   1.309  0.00  0.00    +0.054 A 
ATOM     35  O   UNL     1      -6.634   0.618   1.463  0.00  0.00    -0.453 OA
ATOM     36  C   UNL     1      -7.423   0.946   2.622  0.00  0.00    +0.466 C 
ATOM     37  O   UNL     1      -6.456   1.012   3.687  0.00  0.00    -0.453 OA
ENDBRANCH  28  29
ENDBRANCH   5  28
TORSDOF 5
