REMARK  Name = ZINC27641504
REMARK  11 active torsions:
REMARK  status: ('A' for Active; 'I' for Inactive)
REMARK    1  A    between atoms: C_1  and  C_2
REMARK    2  A    between atoms: C_4  and  O_19
REMARK    3  A    between atoms: C_6  and  O_9
REMARK    4  A    between atoms: O_9  and  C_10
REMARK    5  A    between atoms: C_14  and  C_16
REMARK    6  A    between atoms: O_19  and  C_20
REMARK    7  A    between atoms: C_24  and  C_26
REMARK    8  A    between atoms: C_26  and  C_27
REMARK    9  A    between atoms: C_27  and  C_29
REMARK   10  A    between atoms: C_29  and  C_30
REMARK   11  A    between atoms: C_29  and  C_31
REMARK                            x       y       z     vdW  Elec       q    Type
REMARK                         _______ _______ _______ _____ _____    ______ ____
ROOT
ATOM      1  C   UNL     1       0.678   1.873   0.147  0.00  0.00    +0.050 C 
ATOM      2  C   UNL     1      -0.169   2.528   1.207  0.00  0.00    +0.030 A 
ATOM      3  C   UNL     1       0.153   3.787   1.694  0.00  0.00    +0.191 A 
ATOM      4  C   UNL     1      -0.650   4.360   2.672  0.00  0.00    +0.260 A 
ATOM      5  N   UNL     1      -1.710   3.720   3.138  0.00  0.00    -0.172 NA
ATOM      6  C   UNL     1      -2.045   2.519   2.696  0.00  0.00    +0.260 A 
ATOM      7  C   UNL     1      -1.290   1.888   1.714  0.00  0.00    +0.191 A 
ATOM      8  F   UNL     1      -1.641   0.664   1.263  0.00  0.00    -0.200 F 
ATOM      9  F   UNL     1       1.234   4.446   1.224  0.00  0.00    -0.200 F 
ENDROOT
BRANCH   6  10
ATOM     10  O   UNL     1      -3.141   1.898   3.203  0.00  0.00    -0.436 OA
BRANCH  10  11
ATOM     11  C   UNL     1      -3.767   2.474   4.263  0.00  0.00    +0.131 A 
ATOM     12  C   UNL     1      -3.051   3.281   5.137  0.00  0.00    +0.046 A 
ATOM     13  C   UNL     1      -3.683   3.868   6.217  0.00  0.00    +0.004 A 
ATOM     14  C   UNL     1      -5.030   3.656   6.432  0.00  0.00    +0.011 A 
ATOM     15  C   UNL     1      -5.757   2.847   5.559  0.00  0.00    +0.016 A 
ATOM     16  C   UNL     1      -5.120   2.259   4.468  0.00  0.00    +0.057 A 
BRANCH  15  17
ATOM     17  C   UNL     1      -7.202   2.618   5.788  0.00  0.00    +0.094 C 
ATOM     18  N   UNL     1      -7.879   1.862   4.971  0.00  0.00    -0.387 N 
ATOM     19  N   UNL     1      -7.831   3.204   6.864  0.00  0.00    -0.345 N 
ATOM     20  H   UNL     1      -8.952   1.691   5.141  0.00  0.00    +0.157 HD
ATOM     21  H   UNL     1      -8.904   3.034   7.034  0.00  0.00    +0.144 HD
ATOM     22  H   UNL     1      -7.259   3.843   7.554  0.00  0.00    +0.144 HD
ATOM     23  H   UNL     1      -7.377   1.393   4.112  0.00  0.00    +0.157 HD
ENDBRANCH  15  17
ENDBRANCH  10  11
ENDBRANCH   6  10
BRANCH   4  24
ATOM     24  O   UNL     1      -0.343   5.592   3.155  0.00  0.00    -0.436 OA
BRANCH  24  25
ATOM     25  C   UNL     1      -1.225   6.182   4.004  0.00  0.00    +0.131 A 
ATOM     26  C   UNL     1      -2.565   5.821   3.976  0.00  0.00    +0.046 A 
ATOM     27  C   UNL     1      -3.459   6.422   4.841  0.00  0.00    +0.004 A 
ATOM     28  C   UNL     1      -3.020   7.382   5.733  0.00  0.00    +0.004 A 
ATOM     29  C   UNL     1      -1.686   7.743   5.763  0.00  0.00    -0.037 A 
ATOM     30  C   UNL     1      -0.787   7.142   4.904  0.00  0.00    +0.050 A 
BRANCH  29  31
ATOM     31  C   UNL     1      -1.211   8.790   6.738  0.00  0.00    +0.109 C 
BRANCH  31  32
ATOM     32  C   UNL     1      -0.801   8.127   8.027  0.00  0.00    +0.140 C 
ATOM     33  O   UNL     1      -0.885   6.928   8.143  0.00  0.00    -0.297 OA
BRANCH  32  34
ATOM     34  C   UNL     1      -0.285   8.960   9.172  0.00  0.00    +0.049 C 
ATOM     35  C   UNL     1      -1.456   9.385  10.062  0.00  0.00    +0.015 C 
ATOM     36  C   UNL     1       0.708   8.137   9.995  0.00  0.00    +0.015 C 
ENDBRANCH  32  34
ENDBRANCH  31  32
ENDBRANCH  29  31
ENDBRANCH  24  25
ENDBRANCH   4  24
TORSDOF 8
