REMARK  Name = ZINC38826342
REMARK  7 active torsions:
REMARK  status: ('A' for Active; 'I' for Inactive)
REMARK    1  A    between atoms: C_1  and  C_2
REMARK    2  A    between atoms: C_4  and  C_15
REMARK    3  A    between atoms: C_5  and  C_14
REMARK    4  A    between atoms: N_7  and  C_8
REMARK    5  A    between atoms: N_16  and  N_17
REMARK    6  A    between atoms: C_18  and  C_20
REMARK    7  A    between atoms: C_23  and  C_25
REMARK                            x       y       z     vdW  Elec       q    Type
REMARK                         _______ _______ _______ _____ _____    ______ ____
ROOT
ATOM      1  C   UNL     1       0.444  -0.285  -2.601  0.00  0.00    +0.137 C 
ATOM      2  N   UNL     1       1.199  -0.788  -3.537  0.00  0.00    -0.188 NA
ENDROOT
BRANCH   1   5
ATOM      3  C   UNL     1      -0.019   1.526   0.010  0.00  0.00    +0.035 C 
ATOM      4  C   UNL     1       0.002  -0.004   0.002  0.00  0.00    +0.124 C 
ATOM      5  C   UNL     1       0.772  -0.515  -1.196  0.00  0.00    +0.012 C 
ATOM      6  C   UNL     1       1.812  -1.220  -0.725  0.00  0.00    +0.025 C 
ATOM      7  N   UNL     1       1.829  -1.240   0.646  0.00  0.00    -0.267 N 
ATOM      8  N   UNL     1       0.745  -0.514   1.166  0.00  0.00    -0.246 N 
ATOM      9  C   UNL     1       2.836  -1.904  -1.594  0.00  0.00    +0.062 C 
ATOM     10  H   UNL     1       2.497  -1.693   1.183  0.00  0.00    +0.170 HD
BRANCH   8  11
ATOM     11  C   UNL     1       0.434  -0.315   2.513  0.00  0.00    +0.048 A 
ATOM     12  C   UNL     1      -0.684   0.429   2.867  0.00  0.00    +0.025 A 
ATOM     13  C   UNL     1      -0.988   0.624   4.200  0.00  0.00    +0.002 A 
ATOM     14  C   UNL     1      -0.181   0.079   5.182  0.00  0.00    +0.000 A 
ATOM     15  C   UNL     1       0.932  -0.663   4.833  0.00  0.00    +0.002 A 
ATOM     16  C   UNL     1       1.240  -0.866   3.502  0.00  0.00    +0.025 A 
ENDBRANCH   8  11
ENDBRANCH   1   5
BRANCH   2  17
ATOM     17  N   UNL     1       0.884  -0.568  -4.884  0.00  0.00    -0.202 N 
ATOM     18  C   UNL     1       1.665  -1.088  -5.852  0.00  0.00    +0.280 C 
ATOM     19  O   UNL     1       2.644  -1.749  -5.555  0.00  0.00    -0.267 OA
ATOM     20  H   UNL     1       0.105  -0.041  -5.120  0.00  0.00    +0.178 HD
BRANCH  18  21
ATOM     21  C   UNL     1       1.347  -0.865  -7.216  0.00  0.00    +0.132 C 
ATOM     22  N   UNL     1       0.341  -0.177  -7.697  0.00  0.00    -0.148 NA
ATOM     23  N   UNL     1       0.292  -0.137  -8.971  0.00  0.00    -0.152 NA
ATOM     24  C   UNL     1       1.266  -0.797  -9.569  0.00  0.00    +0.083 C 
ATOM     25  C   UNL     1       2.103  -1.366  -8.435  0.00  0.00    +0.121 C 
BRANCH  24  26
ATOM     26  C   UNL     1       1.484  -0.939 -10.951  0.00  0.00    +0.037 A 
ATOM     27  C   UNL     1       0.744  -0.423 -12.017  0.00  0.00    +0.019 A 
ATOM     28  C   UNL     1       1.208  -0.736 -13.267  0.00  0.00    +0.028 A 
ATOM     29  C   UNL     1       2.325  -1.505 -13.385  0.00  0.00    +0.079 A 
ATOM     30  S   UNL     1       2.782  -1.819 -11.799  0.00  0.00    -0.076 S 
ATOM     31 CL   UNL     1       3.105  -2.033 -14.843  0.00  0.00    -0.076 Cl
ENDBRANCH  24  26
ENDBRANCH  18  21
ENDBRANCH   2  17
TORSDOF 5
