REMARK  Name = ZINC09266466
REMARK  6 active torsions:
REMARK  status: ('A' for Active; 'I' for Inactive)
REMARK    1  A    between atoms: C_1  and  C_2
REMARK    2  A    between atoms: C_5  and  N_8
REMARK    3  A    between atoms: C_11  and  C_13
REMARK    4  A    between atoms: C_14  and  C_19
REMARK    5  A    between atoms: C_16  and  C_18
REMARK    6  A    between atoms: N_21  and  C_22
REMARK                            x       y       z     vdW  Elec       q    Type
REMARK                         _______ _______ _______ _____ _____    ______ ____
ROOT
ATOM      1  N   UNL     1      -4.475  -4.599  -0.262  0.00  0.00    -0.214 N 
ATOM      2  C   UNL     1      -4.809  -3.267  -0.266  0.00  0.00    +0.164 A 
ATOM      3  C   UNL     1      -3.596  -2.554  -0.172  0.00  0.00    +0.054 A 
ATOM      4  C   UNL     1      -2.557  -3.508  -0.116  0.00  0.00    +0.070 A 
ATOM      5  N   UNL     1      -3.082  -4.699  -0.176  0.00  0.00    -0.169 NA
ATOM      6  C   UNL     1      -1.086  -3.200  -0.006  0.00  0.00    +0.068 C 
ATOM      7  C   UNL     1      -3.633  -1.143  -0.148  0.00  0.00    +0.051 A 
ATOM      8  C   UNL     1      -4.878  -0.523  -0.231  0.00  0.00    +0.037 A 
ATOM      9  C   UNL     1      -6.021  -1.303  -0.328  0.00  0.00    +0.041 A 
ATOM     10  N   UNL     1      -5.961  -2.616  -0.342  0.00  0.00    -0.232 NA
ATOM     11  C   UNL     1      -7.365  -0.628  -0.418  0.00  0.00    +0.065 C 
ENDROOT
BRANCH   1  16
ATOM     12  C   UNL     1      -8.111  -8.944  -0.592  0.00  0.00    +0.044 C 
ATOM     13  C   UNL     1      -7.145  -7.790  -0.505  0.00  0.00    -0.050 A 
ATOM     14  C   UNL     1      -5.903  -7.883  -1.105  0.00  0.00    +0.005 A 
ATOM     15  C   UNL     1      -5.016  -6.827  -1.026  0.00  0.00    +0.028 A 
ATOM     16  C   UNL     1      -5.373  -5.671  -0.343  0.00  0.00    +0.068 A 
ATOM     17  C   UNL     1      -6.619  -5.583   0.263  0.00  0.00    +0.028 A 
ATOM     18  C   UNL     1      -7.504  -6.640   0.175  0.00  0.00    +0.005 A 
ENDBRANCH   1  16
BRANCH   7  19
ATOM     19  C   UNL     1      -2.390  -0.348  -0.044  0.00  0.00    +0.249 C 
ATOM     20  O   UNL     1      -1.482  -0.731   0.667  0.00  0.00    -0.270 OA
ATOM     21  N   UNL     1      -2.265   0.800  -0.739  0.00  0.00    -0.279 N 
ATOM     22  H   UNL     1      -3.013   1.139  -1.255  0.00  0.00    +0.155 HD
BRANCH  21  23
ATOM     23  C   UNL     1      -1.054   1.503  -0.715  0.00  0.00    +0.069 A 
ATOM     24  C   UNL     1      -0.254   1.471   0.418  0.00  0.00    +0.027 A 
ATOM     25  C   UNL     1       0.943   2.162   0.437  0.00  0.00    +0.017 A 
ATOM     26  C   UNL     1       1.342   2.889  -0.670  0.00  0.00    +0.021 A 
ATOM     27  C   UNL     1       0.544   2.928  -1.800  0.00  0.00    +0.055 A 
ATOM     28  C   UNL     1      -0.654   2.239  -1.825  0.00  0.00    +0.146 A 
ATOM     29  F   UNL     1      -1.433   2.277  -2.929  0.00  0.00    -0.204 F 
ATOM     30 BR   UNL     1       2.980   3.833  -0.639  0.00  0.00    -0.050 Br
ENDBRANCH  21  23
ENDBRANCH   7  19
TORSDOF 3
