REMARK  Name = ZINC07572531
REMARK  7 active torsions:
REMARK  status: ('A' for Active; 'I' for Inactive)
REMARK    1  A    between atoms: C_1  and  C_2
REMARK    2  A    between atoms: N_10  and  C_11
REMARK    3  A    between atoms: C_11  and  C_12
REMARK    4  A    between atoms: C_12  and  C_14
REMARK    5  A    between atoms: C_12  and  O_22
REMARK    6  A    between atoms: C_14  and  N_15
REMARK    7  A    between atoms: N_15  and  C_16
REMARK                            x       y       z     vdW  Elec       q    Type
REMARK                         _______ _______ _______ _____ _____    ______ ____
ROOT
ATOM      1  C   UNL     1      -0.018   1.503   0.010  0.00  0.00    +0.044 C 
ATOM      2  C   UNL     1       0.002  -0.004   0.002  0.00  0.00    -0.050 A 
ATOM      3  C   UNL     1       0.006  -0.685  -1.209  0.00  0.00    +0.005 A 
ATOM      4  C   UNL     1       0.024  -2.062  -1.239  0.00  0.00    +0.027 A 
ATOM      5  C   UNL     1       0.040  -2.781  -0.048  0.00  0.00    +0.050 A 
ATOM      6  C   UNL     1       0.037  -2.088   1.182  0.00  0.00    +0.004 A 
ATOM      7  C   UNL     1       0.022  -0.685   1.183  0.00  0.00    +0.013 A 
ATOM      8  C   UNL     1       0.056  -3.060   2.200  0.00  0.00    -0.011 A 
ATOM      9  C   UNL     1       0.071  -4.292   1.595  0.00  0.00    +0.089 A 
ATOM     10  N   UNL     1       0.059  -4.130   0.233  0.00  0.00    -0.335 N 
ATOM     11  C   UNL     1       0.100  -5.531   2.385  0.00  0.00    +0.180 C 
ATOM     12  O   UNL     1      -0.091  -6.621   1.888  0.00  0.00    -0.290 OA
ATOM     13  C   UNL     1       0.387  -5.353   3.867  0.00  0.00    +0.081 C 
ATOM     14  C   UNL     1      -0.418  -4.151   4.374  0.00  0.00    +0.013 C 
ATOM     15  C   UNL     1       0.059  -2.865   3.693  0.00  0.00    +0.038 C 
ENDROOT
BRANCH  10  16
ATOM     16  C   UNL     1       0.065  -5.210  -0.757  0.00  0.00    +0.151 C 
BRANCH  16  17
ATOM     17  C   UNL     1       1.510  -5.568  -1.113  0.00  0.00    +0.117 C 
BRANCH  17  18
ATOM     18  O   UNL     1       2.130  -4.456  -1.762  0.00  0.00    -0.392 OA
ATOM     19  H   UNL     1       1.693  -4.185  -2.581  0.00  0.00    +0.210 HD
ENDBRANCH  17  18
BRANCH  17  20
ATOM     20  C   UNL     1       1.519  -6.777  -2.050  0.00  0.00    -0.049 C 
BRANCH  20  21
ATOM     21  N   UNL     1       2.906  -7.194  -2.296  0.00  0.00    +0.383 N 
ATOM     22  H   UNL     1       3.416  -6.434  -2.722  0.00  0.00    -0.085 HD
ATOM     23  H   UNL     1       3.342  -7.444  -1.421  0.00  0.00    -0.085 HD
BRANCH  21  24
ATOM     24  C   UNL     1       2.916  -8.355  -3.196  0.00  0.00    -0.072 C 
ATOM     25  C   UNL     1       2.252  -9.545  -2.501  0.00  0.00    -0.016 C 
ATOM     26  C   UNL     1       2.261 -10.754  -3.438  0.00  0.00    -0.002 C 
ATOM     27  C   UNL     1       3.706 -11.112  -3.794  0.00  0.00    -0.000 C 
ATOM     28  C   UNL     1       4.370  -9.922  -4.490  0.00  0.00    -0.002 C 
ATOM     29  C   UNL     1       4.360  -8.713  -3.552  0.00  0.00    -0.016 C 
ENDBRANCH  21  24
ENDBRANCH  20  21
ENDBRANCH  17  20
ENDBRANCH  16  17
ENDBRANCH  10  16
TORSDOF 6
