REMARK  Name = ZINC34997809
REMARK  10 active torsions:
REMARK  status: ('A' for Active; 'I' for Inactive)
REMARK    1  A    between atoms: C_1  and  C_2
REMARK    2  A    between atoms: N_4  and  C_5
REMARK    3  A    between atoms: N_4  and  C_23
REMARK    4  A    between atoms: C_5  and  C_6
REMARK    5  A    between atoms: C_6  and  N_7
REMARK    6  A    between atoms: N_10  and  S_13
REMARK    7  A    between atoms: S_13  and  C_16
REMARK    8  A    between atoms: C_23  and  C_24
REMARK    9  A    between atoms: C_32  and  C_33
REMARK   10  A    between atoms: C_32  and  C_34
REMARK                            x       y       z     vdW  Elec       q    Type
REMARK                         _______ _______ _______ _____ _____    ______ ____
ROOT
ATOM      1  C   UNL     1      -1.253  -2.612   1.777  0.00  0.00    +0.103 C 
ENDROOT
BRANCH   1   2
ATOM      2  N   UNL     1      -1.351  -4.069   1.936  0.00  0.00    -0.298 NA
ATOM      3  C   UNL     1      -2.668  -4.558   1.506  0.00  0.00    +0.101 C 
ATOM      4  C   UNL     1      -2.668  -6.091   1.516  0.00  0.00    +0.125 C 
ATOM      5  N   UNL     1      -2.237  -6.550   2.845  0.00  0.00    -0.174 NA
ATOM      6  C   UNL     1      -0.993  -5.998   3.402  0.00  0.00    +0.125 C 
ATOM      7  C   UNL     1      -1.059  -4.469   3.319  0.00  0.00    +0.101 C 
BRANCH   5   8
ATOM      8  S   UNL     1      -3.129  -7.660   3.691  0.00  0.00    +0.061 S 
ATOM      9  O   UNL     1      -2.808  -7.478   5.063  0.00  0.00    -0.153 OA
ATOM     10  O   UNL     1      -4.460  -7.570   3.201  0.00  0.00    -0.153 OA
BRANCH   8  11
ATOM     11  C   UNL     1      -2.534  -9.257   3.242  0.00  0.00    +0.106 A 
ATOM     12  C   UNL     1      -3.091  -9.925   2.168  0.00  0.00    +0.029 A 
ATOM     13  C   UNL     1      -2.625 -11.177   1.815  0.00  0.00    +0.017 A 
ATOM     14  C   UNL     1      -1.601 -11.762   2.538  0.00  0.00    +0.018 A 
ATOM     15  C   UNL     1      -1.043 -11.093   3.612  0.00  0.00    +0.017 A 
ATOM     16  C   UNL     1      -1.507  -9.839   3.961  0.00  0.00    +0.029 A 
ATOM     17 BR   UNL     1      -0.963 -13.476   2.056  0.00  0.00    -0.050 Br
ENDBRANCH   8  11
ENDBRANCH   5   8
ENDBRANCH   1   2
BRANCH   1  18
ATOM     18  C   UNL     1      -1.315  -2.256   0.290  0.00  0.00    +0.123 C 
BRANCH  18  22
ATOM     19  C   UNL     1       0.100   1.282  -0.060  0.00  0.00    +0.109 C 
ATOM     20  C   UNL     1      -0.010  -0.220  -0.010  0.00  0.00    +0.213 C 
ATOM     21  O   UNL     1       0.987  -0.905  -0.098  0.00  0.00    -0.276 OA
ATOM     22  N   UNL     1      -1.217  -0.803   0.132  0.00  0.00    -0.296 N 
BRANCH  22  23
ATOM     23  C   UNL     1      -2.431   0.017   0.127  0.00  0.00    +0.138 C 
BRANCH  23  24
ATOM     24  C   UNL     1      -2.737   0.469   1.532  0.00  0.00    -0.053 C 
ATOM     25  C   UNL     1      -2.346   1.643   1.971  0.00  0.00    -0.025 C 
ATOM     26  C   UNL     1      -2.680   2.061   3.383  0.00  0.00    +0.031 C 
ATOM     27  C   UNL     1      -3.403   0.914   4.104  0.00  0.00    -0.000 C 
ATOM     28  C   UNL     1      -2.738  -0.453   3.868  0.00  0.00    +0.012 C 
ATOM     29  C   UNL     1      -3.515  -0.414   2.493  0.00  0.00    +0.022 C 
ATOM     30  C   UNL     1      -4.579   0.388   3.257  0.00  0.00    -0.025 C 
ATOM     31  C   UNL     1      -5.263   1.465   2.411  0.00  0.00    +0.012 C 
ATOM     32  C   UNL     1      -5.567  -0.479   4.039  0.00  0.00    +0.012 C 
ENDBRANCH  23  24
ENDBRANCH  22  23
ENDBRANCH  18  22
ENDBRANCH   1  18
TORSDOF 7
