REMARK  Name = ZINC05522208
REMARK  3 active torsions:
REMARK  status: ('A' for Active; 'I' for Inactive)
REMARK    1  A    between atoms: C_6  and  C_7
REMARK    2  A    between atoms: C_9  and  C_26
REMARK    3  A    between atoms: C_10  and  N_25
REMARK                            x       y       z     vdW  Elec       q    Type
REMARK                         _______ _______ _______ _____ _____    ______ ____
ROOT
ATOM      1  C   UNL     1      -1.309  -0.781  -0.152  0.00  0.00    +0.097 C 
ATOM      2  C   UNL     1      -1.147  -1.520   1.144  0.00  0.00    +0.077 C 
ATOM      3  C   UNL     1      -0.900  -2.855   1.164  0.00  0.00    +0.109 C 
ATOM      4  N   UNL     1      -0.804  -3.558  -0.016  0.00  0.00    -0.228 N 
ATOM      5  C   UNL     1      -1.335  -3.049  -1.173  0.00  0.00    +0.027 C 
ATOM      6  C   UNL     1      -1.594  -1.731  -1.288  0.00  0.00    +0.025 C 
ATOM      7  C   UNL     1      -2.135  -1.201  -2.473  0.00  0.00    +0.162 C 
ATOM      8  O   UNL     1      -2.371  -0.011  -2.540  0.00  0.00    -0.292 OA
ATOM      9  C   UNL     1      -2.427  -2.080  -3.658  0.00  0.00    +0.080 C 
ATOM     10  C   UNL     1      -1.466  -3.273  -3.642  0.00  0.00    +0.014 C 
ATOM     11  C   UNL     1      -1.624  -4.001  -2.308  0.00  0.00    +0.052 C 
ATOM     12  C   UNL     1      -0.160  -4.800  -0.035  0.00  0.00    +0.246 A 
ATOM     13  N   UNL     1       0.291  -5.458   1.037  0.00  0.00    -0.202 NA
ATOM     14  C   UNL     1       0.840  -6.586   0.665  0.00  0.00    +0.217 A 
ATOM     15  N   UNL     1       0.751  -6.675  -0.673  0.00  0.00    -0.264 N 
ATOM     16  H   UNL     1       1.073  -7.402  -1.229  0.00  0.00    +0.190 HD
ATOM     17  N   UNL     1       0.095  -5.512  -1.107  0.00  0.00    -0.136 NA
ENDROOT
BRANCH   1  23
ATOM     18  C   UNL     1      -0.074   1.357  -0.560  0.00  0.00    +0.006 A 
ATOM     19  C   UNL     1       1.087   2.055  -0.832  0.00  0.00    +0.020 A 
ATOM     20  C   UNL     1       2.281   1.375  -0.994  0.00  0.00    +0.041 A 
ATOM     21  C   UNL     1       2.312  -0.004  -0.882  0.00  0.00    +0.020 A 
ATOM     22  C   UNL     1       1.150  -0.701  -0.610  0.00  0.00    +0.006 A 
ATOM     23  C   UNL     1      -0.043  -0.021  -0.449  0.00  0.00    -0.035 A 
ATOM     24 CL   UNL     1       3.740   2.251  -1.336  0.00  0.00    -0.084 Cl
ENDBRANCH   1  23
BRANCH   3  25
ATOM     25  N   UNL     1      -0.746  -3.506   2.365  0.00  0.00    -0.345 N 
ATOM     26  H   UNL     1      -0.813  -3.012   3.196  0.00  0.00    +0.144 HD
ATOM     27  H   UNL     1      -0.569  -4.460   2.380  0.00  0.00    +0.144 HD
ENDBRANCH   3  25
BRANCH   2  28
ATOM     28  C   UNL     1      -1.253  -0.805   2.380  0.00  0.00    +0.099 C 
ATOM     29  N   UNL     1      -1.337  -0.238   3.360  0.00  0.00    -0.191 NA
ENDBRANCH   2  28
TORSDOF 3
