REMARK  Name = ZINC60346482
REMARK  7 active torsions:
REMARK  status: ('A' for Active; 'I' for Inactive)
REMARK    1  A    between atoms: C_1  and  C_2
REMARK    2  A    between atoms: C_2  and  C_28
REMARK    3  A    between atoms: N_5  and  C_9
REMARK    4  A    between atoms: C_9  and  C_10
REMARK    5  A    between atoms: N_12  and  C_13
REMARK    6  A    between atoms: C_13  and  C_18
REMARK    7  A    between atoms: C_32  and  C_34
REMARK                            x       y       z     vdW  Elec       q    Type
REMARK                         _______ _______ _______ _____ _____    ______ ____
ROOT
ATOM      1  C   UNL     1       4.267  -1.495  -1.591  0.00  0.00    +0.232 C 
ATOM      2  O   UNL     1       4.029  -0.452  -1.019  0.00  0.00    -0.274 OA
ATOM      3  N   UNL     1       5.343  -1.592  -2.396  0.00  0.00    -0.304 N 
ATOM      4  H   UNL     1       5.574  -2.445  -2.796  0.00  0.00    +0.150 HD
ENDROOT
BRANCH   3   5
ATOM      5  C   UNL     1       6.164  -0.410  -2.668  0.00  0.00    +0.060 C 
ATOM      6  C   UNL     1       7.203  -0.728  -3.763  0.00  0.00    +0.030 C 
ATOM      7  C   UNL     1       6.539  -0.235  -5.072  0.00  0.00    +0.002 C 
ATOM      8  C   UNL     1       5.820   1.061  -4.623  0.00  0.00    +0.002 C 
ATOM      9  C   UNL     1       5.284   0.728  -3.215  0.00  0.00    +0.030 C 
BRANCH   5  10
ATOM     10  C   UNL     1       6.859   0.036  -1.408  0.00  0.00    -0.020 A 
ATOM     11  C   UNL     1       7.337   1.329  -1.304  0.00  0.00    +0.009 A 
ATOM     12  C   UNL     1       7.977   1.741  -0.150  0.00  0.00    +0.050 A 
ATOM     13  C   UNL     1       8.141   0.858   0.906  0.00  0.00    +0.162 A 
ATOM     14  C   UNL     1       7.659  -0.441   0.803  0.00  0.00    +0.162 A 
ATOM     15  C   UNL     1       7.014  -0.847  -0.356  0.00  0.00    +0.055 A 
ATOM     16  O   UNL     1       7.803  -1.322   1.831  0.00  0.00    -0.485 OA
ATOM     17  C   UNL     1       8.775  -0.992   2.829  0.00  0.00    +0.270 C 
ATOM     18  C   UNL     1       8.591   0.483   3.211  0.00  0.00    +0.270 C 
ATOM     19  O   UNL     1       8.777   1.277   2.035  0.00  0.00    -0.485 OA
ENDBRANCH   5  10
ENDBRANCH   3   5
BRANCH   1  20
ATOM     20  C   UNL     1       3.358  -2.682  -1.400  0.00  0.00    +0.213 C 
BRANCH  20  25
ATOM     21  C   UNL     1      -0.040  -0.116   0.583  0.00  0.00    +0.047 C 
ATOM     22  C   UNL     1       0.291  -1.597   0.391  0.00  0.00    +0.135 C 
ATOM     23  C   UNL     1       1.091  -1.804  -0.879  0.00  0.00    +0.251 C 
ATOM     24  O   UNL     1       0.743  -1.555  -2.013  0.00  0.00    -0.272 OA
ATOM     25  N   UNL     1       2.271  -2.323  -0.485  0.00  0.00    -0.215 N 
ATOM     26  C   UNL     1       2.327  -2.471   0.843  0.00  0.00    +0.310 C 
ATOM     27  O   UNL     1       3.290  -2.920   1.433  0.00  0.00    -0.252 OA
ATOM     28  N   UNL     1       1.198  -2.067   1.453  0.00  0.00    -0.281 N 
ATOM     29  H   UNL     1       1.016  -2.083   2.405  0.00  0.00    +0.152 HD
BRANCH  22  30
ATOM     30  C   UNL     1      -0.970  -2.422   0.368  0.00  0.00    -0.014 A 
ATOM     31  C   UNL     1      -1.605  -2.678  -0.835  0.00  0.00    +0.006 A 
ATOM     32  C   UNL     1      -2.764  -3.433  -0.866  0.00  0.00    +0.002 A 
ATOM     33  C   UNL     1      -3.293  -3.938   0.304  0.00  0.00    +0.019 A 
ATOM     34  C   UNL     1      -2.657  -3.684   1.521  0.00  0.00    +0.052 A 
ATOM     35  C   UNL     1      -1.486  -2.924   1.544  0.00  0.00    +0.025 A 
BRANCH  34  36
ATOM     36  C   UNL     1      -3.201  -4.205   2.739  0.00  0.00    +0.099 C 
ATOM     37  N   UNL     1      -3.633  -4.618   3.705  0.00  0.00    -0.191 NA
ENDBRANCH  34  36
ENDBRANCH  22  30
ENDBRANCH  20  25
ENDBRANCH   1  20
TORSDOF 6
