REMARK  Name = ZINC32006038
REMARK  8 active torsions:
REMARK  status: ('A' for Active; 'I' for Inactive)
REMARK    1  A    between atoms: C_1  and  C_2
REMARK    2  A    between atoms: C_2  and  N_3
REMARK    3  A    between atoms: C_4  and  C_29
REMARK    4  A    between atoms: C_7  and  S_8
REMARK    5  A    between atoms: S_8  and  C_9
REMARK    6  A    between atoms: C_9  and  C_10
REMARK    7  A    between atoms: N_12  and  C_13
REMARK    8  A    between atoms: C_16  and  N_23
REMARK                            x       y       z     vdW  Elec       q    Type
REMARK                         _______ _______ _______ _____ _____    ______ ____
ROOT
ATOM      1  C   UNL     1      -6.684  -3.960  -0.332  0.00  0.00    +0.228 C 
ATOM      2  O   UNL     1      -7.547  -3.136  -0.551  0.00  0.00    -0.275 OA
ATOM      3  N   UNL     1      -7.024  -5.207   0.050  0.00  0.00    -0.284 N 
ATOM      4  H   UNL     1      -6.249  -5.979   0.161  0.00  0.00    +0.155 HD
ENDROOT
BRANCH   3   5
ATOM      5  C   UNL     1      -8.363  -5.519   0.305  0.00  0.00    +0.043 A 
ATOM      6  C   UNL     1      -9.249  -4.528   0.672  0.00  0.00    +0.026 A 
ATOM      7  C   UNL     1     -10.585  -4.821   0.924  0.00  0.00    +0.025 A 
ATOM      8  C   UNL     1     -11.058  -6.113   0.824  0.00  0.00    +0.038 A 
ATOM      9  C   UNL     1     -10.177  -7.147   0.457  0.00  0.00    +0.008 A 
ATOM     10  C   UNL     1      -8.815  -6.849   0.194  0.00  0.00    +0.023 A 
ATOM     11  C   UNL     1      -7.956  -7.897  -0.170  0.00  0.00    +0.121 A 
ATOM     12  N   UNL     1      -8.420  -9.121  -0.261  0.00  0.00    -0.263 NA
ATOM     13  C   UNL     1      -9.688  -9.428  -0.021  0.00  0.00    +0.111 A 
ATOM     14  C   UNL     1     -10.600  -8.483   0.339  0.00  0.00    +0.030 A 
BRANCH   8  15
ATOM     15  N   UNL     1     -12.401  -6.393   1.086  0.00  0.00    -0.329 N 
ATOM     16  C   UNL     1     -13.276  -5.730   0.111  0.00  0.00    +0.105 C 
ATOM     17  C   UNL     1     -14.723  -6.174   0.338  0.00  0.00    +0.019 C 
ATOM     18  C   UNL     1     -15.146  -5.807   1.763  0.00  0.00    +0.003 C 
ATOM     19  C   UNL     1     -14.189  -6.471   2.758  0.00  0.00    +0.019 C 
ATOM     20  C   UNL     1     -12.758  -6.019   2.460  0.00  0.00    +0.105 C 
ENDBRANCH   8  15
ENDBRANCH   3   5
BRANCH   1  21
ATOM     21  C   UNL     1      -5.231  -3.589  -0.486  0.00  0.00    +0.173 C 
BRANCH  21  22
ATOM     22  S   UNL     1      -5.102  -1.860  -1.005  0.00  0.00    -0.077 S 
BRANCH  22  27
ATOM     23  N   UNL     1      -2.657  -0.578  -1.461  0.00  0.00    -0.300 N 
ATOM     24  C   UNL     1      -1.326  -0.927  -1.397  0.00  0.00    +0.200 A 
ATOM     25  N   UNL     1      -1.277  -2.189  -1.029  0.00  0.00    -0.125 NA
ATOM     26  N   UNL     1      -2.466  -2.641  -0.852  0.00  0.00    -0.122 NA
ATOM     27  C   UNL     1      -3.350  -1.701  -1.105  0.00  0.00    +0.192 A 
BRANCH  24  28
ATOM     28  C   UNL     1      -0.177  -0.056  -1.691  0.00  0.00    +0.172 A 
ATOM     29  C   UNL     1       1.121  -0.304  -1.360  0.00  0.00    +0.053 A 
ATOM     30  C   UNL     1       1.875   0.787  -1.833  0.00  0.00    +0.042 A 
ATOM     31  C   UNL     1       1.013   1.638  -2.423  0.00  0.00    +0.196 A 
ATOM     32  O   UNL     1      -0.226   1.126  -2.336  0.00  0.00    -0.460 OA
ENDBRANCH  24  28
BRANCH  23  34
ATOM     33  C   UNL     1      -3.449   0.768  -3.343  0.00  0.00    +0.027 C 
ATOM     34  C   UNL     1      -3.213   0.725  -1.832  0.00  0.00    +0.122 C 
ENDBRANCH  23  34
ENDBRANCH  22  27
ENDBRANCH  21  22
ENDBRANCH   1  21
TORSDOF 7
