REMARK  Name = ZINC05398758
REMARK  6 active torsions:
REMARK  status: ('A' for Active; 'I' for Inactive)
REMARK    1  A    between atoms: C_6  and  C_7
REMARK    2  A    between atoms: C_7  and  C_9
REMARK    3  A    between atoms: C_7  and  O_29
REMARK    4  A    between atoms: C_9  and  C_15
REMARK    5  A    between atoms: N_10  and  N_11
REMARK    6  A    between atoms: C_20  and  N_25
REMARK                            x       y       z     vdW  Elec       q    Type
REMARK                         _______ _______ _______ _____ _____    ______ ____
ROOT
ATOM      1  C   UNL     1      -4.569   1.026   0.130  0.00  0.00    +0.123 C 
ATOM      2  N   UNL     1      -5.581   1.840   0.117  0.00  0.00    -0.178 NA
ENDROOT
BRANCH   1   3
ATOM      3  C   UNL     1      -3.197   1.557   0.107  0.00  0.00    +0.156 A 
ATOM      4  C   UNL     1      -2.979   2.954   0.207  0.00  0.00    +0.298 A 
ATOM      5  N   UNL     1      -1.757   3.440   0.187  0.00  0.00    -0.206 NA
ATOM      6  C   UNL     1      -0.711   2.610   0.072  0.00  0.00    +0.095 A 
ATOM      7  C   UNL     1       0.602   3.107   0.048  0.00  0.00    +0.062 A 
ATOM      8  C   UNL     1       1.650   2.244  -0.070  0.00  0.00    +0.128 A 
ATOM      9  C   UNL     1       1.439   0.871  -0.167  0.00  0.00    +0.035 A 
ATOM     10  C   UNL     1       0.180   0.353  -0.148  0.00  0.00    +0.032 A 
ATOM     11  C   UNL     1      -0.926   1.213  -0.034  0.00  0.00    +0.090 A 
ATOM     12  N   UNL     1      -2.172   0.728  -0.007  0.00  0.00    -0.238 NA
ATOM     13  O   UNL     1      -4.036   3.793   0.324  0.00  0.00    -0.263 OA
BRANCH   8  14
ATOM     14  N   UNL     1       3.032   2.774  -0.094  0.00  0.00    +0.056 N 
ATOM     15  O   UNL     1       3.975   2.011  -0.200  0.00  0.00    -0.126 OA
ATOM     16  O   UNL     1       3.226   3.974  -0.009  0.00  0.00    -0.126 OA
ENDBRANCH   8  14
ENDBRANCH   1   3
BRANCH   2  17
ATOM     17  N   UNL     1      -6.886   1.335   0.056  0.00  0.00    -0.191 N 
ATOM     18  C   UNL     1      -7.932   2.179  -0.043  0.00  0.00    +0.317 C 
ATOM     19  O   UNL     1      -9.065   1.741  -0.096  0.00  0.00    -0.251 OA
ATOM     20  N   UNL     1      -7.722   3.510  -0.083  0.00  0.00    -0.312 N 
ATOM     21  H   UNL     1      -7.058   0.249   0.088  0.00  0.00    +0.179 HD
ATOM     22  H   UNL     1      -8.576   4.199  -0.164  0.00  0.00    +0.147 HD
ATOM     23  H   UNL     1      -6.697   3.907  -0.035  0.00  0.00    +0.147 HD
ENDBRANCH   2  17
BRANCH   1  24
ATOM     24  C   UNL     1      -4.801  -0.463   0.170  0.00  0.00    +0.197 C 
BRANCH  24  30
ATOM     25  C   UNL     1      -3.531  -1.263  -1.833  0.00  0.00    +0.008 A 
ATOM     26  C   UNL     1      -3.484  -1.775  -3.115  0.00  0.00    +0.020 A 
ATOM     27  C   UNL     1      -4.658  -2.031  -3.801  0.00  0.00    +0.041 A 
ATOM     28  C   UNL     1      -5.878  -1.779  -3.200  0.00  0.00    +0.020 A 
ATOM     29  C   UNL     1      -5.924  -1.272  -1.915  0.00  0.00    +0.008 A 
ATOM     30  C   UNL     1      -4.750  -1.016  -1.231  0.00  0.00    -0.013 A 
ATOM     31 CL   UNL     1      -4.600  -2.667  -5.415  0.00  0.00    -0.084 Cl
ENDBRANCH  24  30
BRANCH  24  32
ATOM     32  O   UNL     1      -3.786  -1.081   0.964  0.00  0.00    -0.381 OA
ATOM     33  H   UNL     1      -3.668  -0.802   2.021  0.00  0.00    +0.211 HD
ENDBRANCH  24  32
ENDBRANCH   1  24
TORSDOF 6
