REMARK  Name = ZINC09963556
REMARK  11 active torsions:
REMARK  status: ('A' for Active; 'I' for Inactive)
REMARK    1  A    between atoms: C_1  and  C_2
REMARK    2  A    between atoms: C_5  and  C_39
REMARK    3  A    between atoms: N_8  and  S_10
REMARK    4  A    between atoms: S_10  and  C_13
REMARK    5  A    between atoms: N_19  and  C_24
REMARK    6  A    between atoms: C_24  and  C_25
REMARK    7  A    between atoms: N_27  and  C_28
REMARK    8  A    between atoms: C_28  and  C_30
REMARK    9  A    between atoms: C_28  and  C_31
REMARK   10  A    between atoms: C_31  and  C_32
REMARK   11  A    between atoms: C_32  and  C_33
REMARK                            x       y       z     vdW  Elec       q    Type
REMARK                         _______ _______ _______ _____ _____    ______ ____
ROOT
ATOM      1  C   UNL     1       2.547  -3.268  -0.217  0.00  0.00    +0.107 A 
ATOM      2  C   UNL     1       2.078  -4.391  -0.873  0.00  0.00    +0.032 A 
ATOM      3  C   UNL     1       2.503  -4.676  -2.158  0.00  0.00    +0.049 A 
ATOM      4  C   UNL     1       3.401  -3.834  -2.790  0.00  0.00    +0.143 A 
ATOM      5  C   UNL     1       3.874  -2.702  -2.129  0.00  0.00    +0.081 A 
ATOM      6  C   UNL     1       3.441  -2.419  -0.844  0.00  0.00    +0.055 A 
ATOM      7  N   UNL     1       4.786  -1.858  -2.779  0.00  0.00    -0.256 N 
ATOM      8  C   UNL     1       4.944  -1.972  -4.116  0.00  0.00    +0.258 C 
ATOM      9  O   UNL     1       5.749  -1.274  -4.695  0.00  0.00    -0.271 OA
ATOM     10  C   UNL     1       4.116  -2.970  -4.884  0.00  0.00    +0.325 C 
ATOM     11  O   UNL     1       3.829  -4.098  -4.053  0.00  0.00    -0.481 OA
ENDROOT
BRANCH   1  12
ATOM     12  S   UNL     1       1.999  -2.914   1.419  0.00  0.00    +0.061 S 
ATOM     13  O   UNL     1       2.998  -2.098   2.015  0.00  0.00    -0.153 OA
ATOM     14  O   UNL     1       1.587  -4.150   1.986  0.00  0.00    -0.153 OA
BRANCH  12  20
ATOM     15  C   UNL     1      -0.019   1.526   0.010  0.00  0.00    +0.009 C 
ATOM     16  C   UNL     1       0.002  -0.004   0.002  0.00  0.00    +0.002 C 
ATOM     17  C   UNL     1      -1.433  -0.534   0.015  0.00  0.00    +0.009 C 
ATOM     18  C   UNL     1      -1.414  -2.064  -0.027  0.00  0.00    +0.002 C 
ATOM     19  C   UNL     1      -0.692  -2.596   1.215  0.00  0.00    +0.112 C 
ATOM     20  N   UNL     1       0.639  -1.977   1.288  0.00  0.00    -0.176 NA
ATOM     21  C   UNL     1       0.742  -0.512   1.244  0.00  0.00    +0.112 C 
ATOM     22  C   UNL     1      -2.850  -2.592  -0.049  0.00  0.00    +0.009 C 
ENDBRANCH  12  20
ENDBRANCH   1  12
BRANCH   7  23
ATOM     23  C   UNL     1       5.554  -0.868  -2.021  0.00  0.00    +0.209 C 
BRANCH  23  24
ATOM     24  C   UNL     1       6.848  -1.484  -1.557  0.00  0.00    +0.231 C 
ATOM     25  O   UNL     1       7.104  -2.638  -1.832  0.00  0.00    -0.274 OA
ATOM     26  N   UNL     1       7.722  -0.754  -0.836  0.00  0.00    -0.311 N 
ATOM     27  H   UNL     1       7.518   0.168  -0.615  0.00  0.00    +0.149 HD
BRANCH  26  28
ATOM     28  C   UNL     1       8.981  -1.354  -0.385  0.00  0.00    +0.070 C 
ATOM     29  C   UNL     1      10.027  -1.240  -1.495  0.00  0.00    +0.028 C 
BRANCH  28  30
ATOM     30  C   UNL     1       9.477  -0.619   0.862  0.00  0.00    +0.026 C 
BRANCH  30  31
ATOM     31  C   UNL     1       8.490  -0.838   2.010  0.00  0.00    +0.037 C 
BRANCH  31  32
ATOM     32  C   UNL     1       8.980  -0.114   3.238  0.00  0.00    -0.047 A 
ATOM     33  C   UNL     1       9.814  -0.757   4.133  0.00  0.00    +0.003 A 
ATOM     34  C   UNL     1      10.263  -0.093   5.259  0.00  0.00    +0.000 A 
ATOM     35  C   UNL     1       9.878   1.214   5.491  0.00  0.00    +0.000 A 
ATOM     36  C   UNL     1       9.044   1.858   4.595  0.00  0.00    +0.000 A 
ATOM     37  C   UNL     1       8.599   1.195   3.467  0.00  0.00    +0.003 A 
ENDBRANCH  31  32
ENDBRANCH  30  31
ENDBRANCH  28  30
ENDBRANCH  26  28
ENDBRANCH  23  24
ENDBRANCH   7  23
TORSDOF 8
