REMARK  Name = ZINC27837385
REMARK  9 active torsions:
REMARK  status: ('A' for Active; 'I' for Inactive)
REMARK    1  A    between atoms: C_1  and  C_2
REMARK    2  A    between atoms: C_2  and  O_3
REMARK    3  A    between atoms: O_3  and  C_4
REMARK    4  A    between atoms: C_4  and  C_6
REMARK    5  A    between atoms: C_7  and  C_26
REMARK    6  A    between atoms: C_10  and  N_11
REMARK    7  A    between atoms: C_12  and  C_14
REMARK    8  A    between atoms: C_17  and  C_19
REMARK    9  A    between atoms: C_22  and  C_25
REMARK                            x       y       z     vdW  Elec       q    Type
REMARK                         _______ _______ _______ _____ _____    ______ ____
ROOT
ATOM      1  C   UNL     1       2.479   1.180  -0.010  0.00  0.00    +0.094 A 
ATOM      2  C   UNL     1       3.543   2.156  -0.020  0.00  0.00    +0.019 A 
ATOM      3  C   UNL     1       3.188   3.453  -0.009  0.00  0.00    +0.055 A 
ATOM      4  S   UNL     1       1.408   3.390   0.007  0.00  0.00    -0.081 S 
ATOM      5  C   UNL     1       1.178   1.674  -0.000  0.00  0.00    +0.086 A 
ENDROOT
BRANCH   2   6
ATOM      6  C   UNL     1       4.991   1.738  -0.036  0.00  0.00    +0.242 C 
ATOM      7  C   UNL     1       5.476   1.494   1.399  0.00  0.00    +0.278 C 
ATOM      8  O   UNL     1       6.855   1.114   1.348  0.00  0.00    -0.484 OA
ATOM      9  C   UNL     1       7.667   1.862   0.552  0.00  0.00    +0.162 A 
ATOM     10  C   UNL     1       9.041   1.790   0.722  0.00  0.00    +0.049 A 
ATOM     11  C   UNL     1       9.879   2.542  -0.080  0.00  0.00    +0.004 A 
ATOM     12  C   UNL     1       9.349   3.366  -1.055  0.00  0.00    +0.004 A 
ATOM     13  C   UNL     1       7.980   3.443  -1.230  0.00  0.00    +0.049 A 
ATOM     14  C   UNL     1       7.134   2.693  -0.426  0.00  0.00    +0.163 A 
ATOM     15  O   UNL     1       5.788   2.782  -0.607  0.00  0.00    -0.477 OA
ENDBRANCH   2   6
BRANCH   5  16
ATOM     16  N   UNL     1      -0.011   0.966   0.007  0.00  0.00    -0.273 N 
ATOM     17  C   UNL     1      -1.187   1.624   0.017  0.00  0.00    +0.284 C 
ATOM     18  O   UNL     1      -1.204   2.841   0.023  0.00  0.00    -0.266 OA
ATOM     19  H   UNL     1       0.004  -0.134   0.006  0.00  0.00    +0.156 HD
BRANCH  17  20
ATOM     20  C   UNL     1      -2.446   0.874   0.018  0.00  0.00    +0.190 A 
ATOM     21  C   UNL     1      -3.712   1.419   0.033  0.00  0.00    +0.055 A 
ATOM     22  C   UNL     1      -4.611   0.348   0.026  0.00  0.00    +0.050 A 
ATOM     23  C   UNL     1      -3.870  -0.799   0.017  0.00  0.00    +0.136 A 
ATOM     24  O   UNL     1      -2.567  -0.470   0.012  0.00  0.00    -0.450 OA
BRANCH  23  25
ATOM     25  C   UNL     1      -4.411  -2.173   0.013  0.00  0.00    +0.017 A 
ATOM     26  C   UNL     1      -5.791  -2.384   0.025  0.00  0.00    +0.012 A 
ATOM     27  C   UNL     1      -6.289  -3.670   0.017  0.00  0.00    +0.004 A 
ATOM     28  C   UNL     1      -5.425  -4.750   0.007  0.00  0.00    -0.050 A 
ATOM     29  C   UNL     1      -4.056  -4.549  -0.000  0.00  0.00    +0.004 A 
ATOM     30  C   UNL     1      -3.544  -3.268   0.003  0.00  0.00    +0.012 A 
ATOM     31  C   UNL     1      -5.976  -6.153   0.004  0.00  0.00    +0.044 C 
ENDBRANCH  23  25
ENDBRANCH  17  20
ENDBRANCH   5  16
BRANCH   1  32
ATOM     32  C   UNL     1       2.755  -0.258  -0.013  0.00  0.00    +0.342 C 
ATOM     33  O   UNL     1       2.862  -0.854  -1.067  0.00  0.00    -0.245 OA
BRANCH  32  34
ATOM     34  O   UNL     1       2.889  -0.921   1.154  0.00  0.00    -0.461 OA
BRANCH  34  36
ATOM     35  C   UNL     1       3.281  -2.921   2.488  0.00  0.00    +0.048 C 
ATOM     36  C   UNL     1       3.162  -2.345   1.075  0.00  0.00    +0.229 C 
ENDBRANCH  34  36
ENDBRANCH  32  34
ENDBRANCH   1  32
TORSDOF 7
