REMARK  Name = ZINC63588450
REMARK  10 active torsions:
REMARK  status: ('A' for Active; 'I' for Inactive)
REMARK    1  A    between atoms: C_1  and  N_2
REMARK    2  A    between atoms: C_6  and  C_7
REMARK    3  A    between atoms: C_18  and  C_20
REMARK    4  A    between atoms: C_20  and  C_21
REMARK    5  A    between atoms: C_21  and  C_22
REMARK    6  A    between atoms: N_24  and  C_25
REMARK    7  A    between atoms: C_25  and  C_26
REMARK    8  A    between atoms: C_26  and  C_27
REMARK    9  A    between atoms: C_30  and  O_36
REMARK   10  A    between atoms: O_36  and  C_37
REMARK                            x       y       z     vdW  Elec       q    Type
REMARK                         _______ _______ _______ _____ _____    ______ ____
ROOT
ATOM      1  C   UNL     1       3.264   1.505   6.611  0.00  0.00    +0.105 C 
ENDROOT
BRANCH   1  11
ATOM      2  C   UNL     1      -0.225  -0.313   2.559  0.00  0.00    +0.119 C 
ATOM      3  C   UNL     1       1.189  -0.024   3.127  0.00  0.00    +0.066 C 
ATOM      4  C   UNL     1       1.165   1.484   3.398  0.00  0.00    +0.163 C 
ATOM      5  N   UNL     1       1.877   1.905   4.602  0.00  0.00    -0.284 N 
ATOM      6  C   UNL     1       1.688   3.316   5.000  0.00  0.00    +0.110 C 
ATOM      7  C   UNL     1       0.197   3.656   5.043  0.00  0.00    +0.036 C 
ATOM      8  C   UNL     1      -0.514   3.160   3.773  0.00  0.00    +0.106 C 
ATOM      9  N   UNL     1      -0.283   1.734   3.651  0.00  0.00    -0.222 NA
ATOM     10  N   UNL     1      -0.950   0.990   2.601  0.00  0.00    -0.243 NA
ATOM     11  C   UNL     1       2.657   1.060   5.306  0.00  0.00    +0.217 C 
ATOM     12  O   UNL     1       2.870  -0.059   4.888  0.00  0.00    -0.276 OA
ATOM     13  H   UNL     1      -1.926   0.853   2.817  0.00  0.00    +0.142 HD
BRANCH   2  19
ATOM     14  C   UNL     1      -0.189  -3.274   1.640  0.00  0.00    +0.148 C 
ATOM     15  N   UNL     1      -0.110  -2.115   0.748  0.00  0.00    -0.352 N 
ATOM     16  C   UNL     1      -0.016  -2.163  -0.611  0.00  0.00    +0.085 A 
ATOM     17  C   UNL     1       0.034  -0.898  -1.076  0.00  0.00    +0.019 A 
ATOM     18  C   UNL     1      -0.031  -0.037   0.038  0.00  0.00    +0.024 A 
ATOM     19  C   UNL     1      -0.125  -0.809   1.140  0.00  0.00    +0.037 A 
ENDBRANCH   2  19
ENDBRANCH   1  11
BRANCH   1  20
ATOM     20  C   UNL     1       4.098   0.366   7.201  0.00  0.00    +0.105 C 
BRANCH  20  21
ATOM     21  C   UNL     1       4.705   0.811   8.506  0.00  0.00    +0.213 C 
ATOM     22  O   UNL     1       4.492   1.930   8.924  0.00  0.00    -0.276 OA
ATOM     23  N   UNL     1       5.485  -0.034   9.209  0.00  0.00    -0.315 N 
ATOM     24  H   UNL     1       5.656  -0.928   8.875  0.00  0.00    +0.149 HD
BRANCH  23  25
ATOM     25  C   UNL     1       6.076   0.399  10.478  0.00  0.00    +0.108 C 
BRANCH  25  26
ATOM     26  C   UNL     1       6.909  -0.740  11.068  0.00  0.00    +0.052 C 
BRANCH  26  27
ATOM     27  C   UNL     1       7.517  -0.295  12.373  0.00  0.00    -0.040 C 
ATOM     28  C   UNL     1       7.021  -0.505  13.614  0.00  0.00    +0.002 A 
ATOM     29  C   UNL     1       5.816  -1.184  14.103  0.00  0.00    +0.055 A 
ATOM     30  C   UNL     1       5.575  -1.237  15.434  0.00  0.00    +0.121 A 
ATOM     31  C   UNL     1       6.443  -0.662  16.379  0.00  0.00    +0.047 A 
ATOM     32  C   UNL     1       7.575  -0.016  16.026  0.00  0.00    +0.029 A 
ATOM     33  C   UNL     1       7.936   0.101  14.610  0.00  0.00    +0.043 A 
ATOM     34  N   UNL     1       8.954   0.663  14.008  0.00  0.00    -0.380 N 
ATOM     35  C   UNL     1       8.807   0.472  12.561  0.00  0.00    +0.144 C 
ATOM     36  H   UNL     1       9.686   1.125  14.447  0.00  0.00    +0.160 HD
BRANCH  30  37
ATOM     37  O   UNL     1       4.454  -1.869  15.873  0.00  0.00    -0.495 OA
ATOM     38  C   UNL     1       4.239  -1.902  17.285  0.00  0.00    +0.277 C 
ENDBRANCH  30  37
ENDBRANCH  26  27
ENDBRANCH  25  26
ENDBRANCH  23  25
ENDBRANCH  20  21
ENDBRANCH   1  20
TORSDOF 8
