REMARK  Name = ZINC08789520
REMARK  8 active torsions:
REMARK  status: ('A' for Active; 'I' for Inactive)
REMARK    1  A    between atoms: C_1  and  C_2
REMARK    2  A    between atoms: C_2  and  C_3
REMARK    3  A    between atoms: C_2  and  C_4
REMARK    4  A    between atoms: C_4  and  C_5
REMARK    5  A    between atoms: N_13  and  C_16
REMARK    6  A    between atoms: C_16  and  C_17
REMARK    7  A    between atoms: C_22  and  O_23
REMARK    8  A    between atoms: O_23  and  C_24
REMARK                            x       y       z     vdW  Elec       q    Type
REMARK                         _______ _______ _______ _____ _____    ______ ____
ROOT
ATOM      1  C   UNL     1      -0.019   1.540   0.011  0.00  0.00    -0.057 C 
ATOM      2  C   UNL     1       0.002  -0.004   0.002  0.00  0.00    +0.073 C 
ATOM      3  C   UNL     1       1.376  -0.380  -0.621  0.00  0.00    +0.088 C 
ATOM      4  C   UNL     1       0.997  -1.048  -1.923  0.00  0.00    +0.225 C 
ATOM      5  O   UNL     1       1.779  -1.498  -2.733  0.00  0.00    -0.275 OA
ATOM      6  N   UNL     1      -0.336  -1.066  -2.042  0.00  0.00    -0.237 N 
ATOM      7  C   UNL     1      -0.993  -0.508  -1.019  0.00  0.00    +0.224 C 
ATOM      8  O   UNL     1      -2.198  -0.420  -0.926  0.00  0.00    -0.275 OA
ATOM      9  C   UNL     1       2.053   0.966  -0.905  0.00  0.00    +0.050 C 
ATOM     10  C   UNL     1       3.536   0.896  -0.679  0.00  0.00    -0.028 A 
ATOM     11  C   UNL     1       4.316   0.585   0.412  0.00  0.00    +0.004 A 
ATOM     12  C   UNL     1       5.695   0.609   0.308  0.00  0.00    +0.000 A 
ATOM     13  C   UNL     1       6.289   0.945  -0.895  0.00  0.00    +0.002 A 
ATOM     14  C   UNL     1       5.512   1.257  -1.992  0.00  0.00    +0.023 A 
ATOM     15  C   UNL     1       4.122   1.235  -1.895  0.00  0.00    +0.036 A 
ATOM     16  N   UNL     1       3.137   1.506  -2.847  0.00  0.00    -0.286 N 
ATOM     17  C   UNL     1       1.894   1.369  -2.346  0.00  0.00    +0.211 C 
ATOM     18  O   UNL     1       0.851   1.537  -2.940  0.00  0.00    -0.277 OA
ATOM     19  H   UNL     1       3.325   1.763  -3.763  0.00  0.00    +0.155 HD
ATOM     20  N   UNL     1       1.397   1.912  -0.019  0.00  0.00    +0.394 N 
ATOM     21  H   UNL     1       1.800   1.853   0.924  0.00  0.00    -0.083 HD
ATOM     22  H   UNL     1       1.505   2.868  -0.378  0.00  0.00    -0.083 HD
ENDROOT
BRANCH   1  23
ATOM     23  C   UNL     1      -0.706   2.056   1.276  0.00  0.00    -0.012 C 
BRANCH  23  25
ATOM     24  C   UNL     1      -1.758   3.964   0.054  0.00  0.00    +0.007 C 
ATOM     25  C   UNL     1      -0.827   3.579   1.206  0.00  0.00    -0.019 C 
ATOM     26  C   UNL     1      -1.399   4.107   2.523  0.00  0.00    +0.007 C 
ENDBRANCH  23  25
ENDBRANCH   1  23
BRANCH   6  27
ATOM     27  C   UNL     1      -1.019  -1.650  -3.199  0.00  0.00    +0.155 C 
BRANCH  27  28
ATOM     28  C   UNL     1      -1.213  -0.592  -4.255  0.00  0.00    +0.012 A 
ATOM     29  C   UNL     1      -2.438   0.032  -4.392  0.00  0.00    +0.009 A 
ATOM     30  C   UNL     1      -2.614   1.005  -5.358  0.00  0.00    +0.001 A 
ATOM     31  C   UNL     1      -1.569   1.350  -6.195  0.00  0.00    +0.004 A 
ATOM     32  C   UNL     1      -0.344   0.726  -6.065  0.00  0.00    +0.046 A 
ATOM     33  C   UNL     1      -0.163  -0.248  -5.093  0.00  0.00    +0.125 A 
BRANCH  33  34
ATOM     34  O   UNL     1       1.042  -0.864  -4.963  0.00  0.00    -0.495 OA
ATOM     35  C   UNL     1       2.078  -0.459  -5.861  0.00  0.00    +0.277 C 
ENDBRANCH  33  34
ENDBRANCH  27  28
ENDBRANCH   6  27
TORSDOF 5
