REMARK  Name = ZINC22580786
REMARK  8 active torsions:
REMARK  status: ('A' for Active; 'I' for Inactive)
REMARK    1  A    between atoms: C_1  and  C_2
REMARK    2  A    between atoms: C_6  and  N_8
REMARK    3  A    between atoms: C_18  and  S_19
REMARK    4  A    between atoms: S_19  and  C_20
REMARK    5  A    between atoms: C_20  and  C_22
REMARK    6  A    between atoms: C_20  and  C_25
REMARK    7  A    between atoms: C_22  and  C_23
REMARK    8  A    between atoms: C_22  and  C_24
REMARK                            x       y       z     vdW  Elec       q    Type
REMARK                         _______ _______ _______ _____ _____    ______ ____
ROOT
ATOM      1  N   UNL     1      -0.080   5.028  -0.102  0.00  0.00    -0.255 N 
ATOM      2  C   UNL     1       1.117   5.659  -0.139  0.00  0.00    +0.267 A 
ATOM      3  O   UNL     1       2.156   5.049   0.035  0.00  0.00    -0.267 OA
ATOM      4  C   UNL     1       1.116   7.104  -0.396  0.00  0.00    +0.065 A 
ATOM      5  C   UNL     1       2.298   7.841  -0.452  0.00  0.00    +0.017 A 
ATOM      6  C   UNL     1       2.247   9.186  -0.695  0.00  0.00    +0.021 A 
ATOM      7  C   UNL     1       1.028   9.827  -0.886  0.00  0.00    +0.043 A 
ATOM      8  C   UNL     1      -0.155   9.123  -0.835  0.00  0.00    +0.048 A 
ATOM      9  C   UNL     1      -0.128   7.747  -0.589  0.00  0.00    +0.080 A 
ATOM     10  N   UNL     1      -1.266   7.016  -0.531  0.00  0.00    -0.223 NA
ATOM     11  C   UNL     1      -1.239   5.725  -0.305  0.00  0.00    +0.177 A 
ATOM     12 CL   UNL     1       0.997  11.536  -1.192  0.00  0.00    -0.083 Cl
ENDROOT
BRANCH   1  18
ATOM     13  C   UNL     1      -0.320   1.295   3.090  0.00  0.00    +0.044 C 
ATOM     14  C   UNL     1      -0.248   1.813   1.677  0.00  0.00    -0.048 A 
ATOM     15  C   UNL     1      -0.233   0.925   0.616  0.00  0.00    +0.003 A 
ATOM     16  C   UNL     1      -0.161   1.396  -0.682  0.00  0.00    +0.002 A 
ATOM     17  C   UNL     1      -0.116   2.756  -0.924  0.00  0.00    +0.026 A 
ATOM     18  C   UNL     1      -0.132   3.649   0.139  0.00  0.00    +0.052 A 
ATOM     19  C   UNL     1      -0.198   3.173   1.442  0.00  0.00    +0.029 A 
ENDBRANCH   1  18
BRANCH  11  20
ATOM     20  S   UNL     1      -2.767   4.849  -0.253  0.00  0.00    -0.074 S 
BRANCH  20  21
ATOM     21  C   UNL     1      -3.926   6.231  -0.404  0.00  0.00    +0.143 C 
BRANCH  21  22
ATOM     22  C   UNL     1      -3.865   7.077   0.842  0.00  0.00    +0.234 C 
ATOM     23  O   UNL     1      -3.413   6.614   1.867  0.00  0.00    -0.274 OA
ATOM     24  N   UNL     1      -4.311   8.348   0.815  0.00  0.00    -0.239 N 
ATOM     25  C   UNL     1      -4.256   9.105   1.929  0.00  0.00    +0.303 C 
ATOM     26  O   UNL     1      -3.804   8.641   2.957  0.00  0.00    -0.253 OA
ATOM     27  N   UNL     1      -4.703  10.377   1.903  0.00  0.00    -0.313 N 
ATOM     28  H   UNL     1      -4.721   8.768  -0.115  0.00  0.00    +0.159 HD
ATOM     29  H   UNL     1      -4.658  10.994   2.812  0.00  0.00    +0.146 HD
ATOM     30  H   UNL     1      -5.112  10.796   0.972  0.00  0.00    +0.146 HD
ENDBRANCH  21  22
BRANCH  21  31
ATOM     31  C   UNL     1      -5.346   5.688  -0.582  0.00  0.00    +0.005 C 
ATOM     32  C   UNL     1      -6.328   6.856  -0.696  0.00  0.00    +0.009 C 
ATOM     33  C   UNL     1      -5.412   4.840  -1.854  0.00  0.00    +0.009 C 
ENDBRANCH  21  31
ENDBRANCH  20  21
ENDBRANCH  11  20
TORSDOF 5
