REMARK  Name = ZINC39842502
REMARK  8 active torsions:
REMARK  status: ('A' for Active; 'I' for Inactive)
REMARK    1  A    between atoms: C_1  and  C_2
REMARK    2  A    between atoms: C_2  and  C_3
REMARK    3  A    between atoms: C_3  and  O_4
REMARK    4  A    between atoms: O_4  and  C_5
REMARK    5  A    between atoms: C_8  and  C_12
REMARK    6  A    between atoms: C_10  and  C_11
REMARK    7  A    between atoms: C_13  and  C_23
REMARK    8  A    between atoms: N_15  and  C_17
REMARK                            x       y       z     vdW  Elec       q    Type
REMARK                         _______ _______ _______ _____ _____    ______ ____
ROOT
ATOM      1  C   UNL     1       3.230  -4.416  -5.632  0.00  0.00    +0.100 A 
ATOM      2  C   UNL     1       3.241  -3.937  -7.020  0.00  0.00    +0.024 A 
ATOM      3  C   UNL     1       3.971  -4.864  -7.744  0.00  0.00    +0.123 A 
ATOM      4  N   UNL     1       4.375  -5.825  -6.894  0.00  0.00    -0.239 N 
ATOM      5  N   UNL     1       3.919  -5.535  -5.605  0.00  0.00    -0.166 NA
ENDROOT
BRANCH   2   6
ATOM      6  C   UNL     1       2.607  -2.721  -7.535  0.00  0.00    +0.061 C 
ATOM      7  C   UNL     1       2.706  -2.410  -8.856  0.00  0.00    +0.176 C 
ATOM      8  C   UNL     1       2.146  -1.263  -9.484  0.00  0.00    +0.231 C 
ATOM      9  O   UNL     1       1.492  -0.377  -8.961  0.00  0.00    -0.283 OA
ATOM     10  C   UNL     1       2.527  -1.377 -10.904  0.00  0.00    +0.069 A 
ATOM     11  C   UNL     1       2.293  -0.588 -12.028  0.00  0.00    +0.030 A 
ATOM     12  C   UNL     1       2.796  -0.976 -13.252  0.00  0.00    +0.019 A 
ATOM     13  C   UNL     1       3.533  -2.147 -13.362  0.00  0.00    +0.019 A 
ATOM     14  C   UNL     1       3.771  -2.935 -12.256  0.00  0.00    +0.048 A 
ATOM     15  C   UNL     1       3.272  -2.562 -11.013  0.00  0.00    +0.140 A 
ATOM     16  O   UNL     1       3.360  -3.135  -9.793  0.00  0.00    -0.451 OA
ATOM     17 BR   UNL     1       2.482   0.089 -14.783  0.00  0.00    -0.050 Br
ENDBRANCH   2   6
BRANCH   1  21
ATOM     18  C   UNL     1       1.341  -2.529  -2.322  0.00  0.00    +0.123 A 
ATOM     19  C   UNL     1       1.908  -1.758  -3.328  0.00  0.00    +0.046 A 
ATOM     20  C   UNL     1       2.521  -2.367  -4.403  0.00  0.00    +0.014 A 
ATOM     21  C   UNL     1       2.572  -3.759  -4.478  0.00  0.00    +0.003 A 
ATOM     22  C   UNL     1       2.002  -4.530  -3.466  0.00  0.00    +0.017 A 
ATOM     23  C   UNL     1       1.395  -3.915  -2.391  0.00  0.00    -0.008 A 
ATOM     24  C   UNL     1       0.783  -4.747  -1.294  0.00  0.00    +0.047 C 
BRANCH  18  25
ATOM     25  O   UNL     1       0.738  -1.926  -1.265  0.00  0.00    -0.492 OA
BRANCH  25  26
ATOM     26  C   UNL     1       0.718  -0.497  -1.257  0.00  0.00    +0.229 C 
BRANCH  26  28
ATOM     27  C   UNL     1      -0.019   1.526   0.010  0.00  0.00    +0.007 C 
ATOM     28  C   UNL     1       0.002  -0.004   0.002  0.00  0.00    +0.038 C 
ENDBRANCH  26  28
ENDBRANCH  25  26
ENDBRANCH  18  25
ENDBRANCH   1  21
BRANCH   4  29
ATOM     29  C   UNL     1       5.140  -6.944  -7.246  0.00  0.00    +0.065 A 
ATOM     30  C   UNL     1       5.547  -7.123  -8.562  0.00  0.00    +0.028 A 
ATOM     31  C   UNL     1       6.301  -8.227  -8.905  0.00  0.00    +0.002 A 
ATOM     32  C   UNL     1       6.652  -9.154  -7.941  0.00  0.00    +0.000 A 
ATOM     33  C   UNL     1       6.248  -8.979  -6.630  0.00  0.00    +0.002 A 
ATOM     34  C   UNL     1       5.499  -7.873  -6.279  0.00  0.00    +0.028 A 
ENDBRANCH   4  29
TORSDOF 6
