REMARK  Name = ZINC01895766
REMARK  8 active torsions:
REMARK  status: ('A' for Active; 'I' for Inactive)
REMARK    1  A    between atoms: C_1  and  C_2
REMARK    2  A    between atoms: C_6  and  N_8
REMARK    3  A    between atoms: C_17  and  S_18
REMARK    4  A    between atoms: S_18  and  C_19
REMARK    5  A    between atoms: C_19  and  C_20
REMARK    6  A    between atoms: N_22  and  C_23
REMARK    7  A    between atoms: C_31  and  C_33
REMARK    8  A    between atoms: C_31  and  C_34
REMARK                            x       y       z     vdW  Elec       q    Type
REMARK                         _______ _______ _______ _____ _____    ______ ____
ROOT
ATOM      1  N   UNL     1      -0.066   5.247  -0.016  0.00  0.00    -0.255 N 
ATOM      2  C   UNL     1      -1.243   5.892  -0.114  0.00  0.00    +0.268 A 
ATOM      3  O   UNL     1      -2.286   5.268  -0.206  0.00  0.00    -0.267 OA
ATOM      4  C   UNL     1      -1.251   7.323  -0.108  0.00  0.00    +0.076 A 
ATOM      5  C   UNL     1      -2.420   8.216  -0.208  0.00  0.00    -0.021 A 
ATOM      6  C   UNL     1      -2.168   9.534  -0.174  0.00  0.00    +0.006 A 
ATOM      7  S   UNL     1      -0.400   9.670  -0.020  0.00  0.00    -0.072 S 
ATOM      8  C   UNL     1       0.000   7.943   0.004  0.00  0.00    +0.117 A 
ATOM      9  N   UNL     1       1.130   7.250   0.097  0.00  0.00    -0.215 NA
ATOM     10  C   UNL     1       1.112   5.932   0.093  0.00  0.00    +0.178 A 
ATOM     11  C   UNL     1      -3.110  10.706  -0.238  0.00  0.00    +0.112 C 
ATOM     12  S   UNL     1      -4.723  10.112  -0.837  0.00  0.00    -0.149 S 
ATOM     13  C   UNL     1      -4.907   8.551   0.081  0.00  0.00    +0.015 C 
ATOM     14  C   UNL     1      -3.804   7.596  -0.354  0.00  0.00    +0.053 C 
ATOM     15  C   UNL     1      -4.790   8.821   1.582  0.00  0.00    +0.023 C 
ATOM     16  C   UNL     1      -6.274   7.934  -0.224  0.00  0.00    +0.023 C 
ENDROOT
BRANCH   1  22
ATOM     17  C   UNL     1       1.213   1.037  -2.214  0.00  0.00    +0.044 C 
ATOM     18  C   UNL     1       0.566   1.780  -1.074  0.00  0.00    -0.048 A 
ATOM     19  C   UNL     1      -0.013   1.079  -0.032  0.00  0.00    +0.003 A 
ATOM     20  C   UNL     1      -0.613   1.757   1.012  0.00  0.00    +0.002 A 
ATOM     21  C   UNL     1      -0.627   3.139   1.023  0.00  0.00    +0.026 A 
ATOM     22  C   UNL     1      -0.048   3.845  -0.021  0.00  0.00    +0.052 A 
ATOM     23  C   UNL     1       0.550   3.161  -1.072  0.00  0.00    +0.029 A 
ENDBRANCH   1  22
BRANCH  10  24
ATOM     24  S   UNL     1       2.627   5.042   0.225  0.00  0.00    -0.078 S 
BRANCH  24  25
ATOM     25  C   UNL     1       3.793   6.422   0.337  0.00  0.00    +0.173 C 
BRANCH  25  26
ATOM     26  C   UNL     1       5.196   5.885   0.460  0.00  0.00    +0.227 C 
ATOM     27  O   UNL     1       5.388   4.687   0.471  0.00  0.00    -0.275 OA
ATOM     28  N   UNL     1       6.237   6.735   0.558  0.00  0.00    -0.285 N 
ATOM     29  H   UNL     1       6.078   7.689   0.630  0.00  0.00    +0.155 HD
BRANCH  28  30
ATOM     30  C   UNL     1       7.546   6.242   0.556  0.00  0.00    +0.033 A 
ATOM     31  C   UNL     1       8.526   6.867   1.316  0.00  0.00    +0.023 A 
ATOM     32  C   UNL     1       9.816   6.373   1.316  0.00  0.00    +0.002 A 
ATOM     33  C   UNL     1      10.135   5.265   0.553  0.00  0.00    +0.000 A 
ATOM     34  C   UNL     1       9.162   4.644  -0.209  0.00  0.00    +0.002 A 
ATOM     35  C   UNL     1       7.869   5.129  -0.209  0.00  0.00    +0.023 A 
ENDBRANCH  28  30
ENDBRANCH  25  26
ENDBRANCH  24  25
ENDBRANCH  10  24
TORSDOF 5
