REMARK  Name = ZINC39513660
REMARK  7 active torsions:
REMARK  status: ('A' for Active; 'I' for Inactive)
REMARK    1  A    between atoms: C_1  and  S_2
REMARK    2  A    between atoms: S_2  and  C_3
REMARK    3  A    between atoms: N_8  and  S_24
REMARK    4  A    between atoms: C_12  and  S_15
REMARK    5  A    between atoms: S_15  and  C_18
REMARK    6  A    between atoms: S_24  and  O_27
REMARK    7  A    between atoms: O_27  and  C_28
REMARK                            x       y       z     vdW  Elec       q    Type
REMARK                         _______ _______ _______ _____ _____    ______ ____
ROOT
ATOM      1  C   UNL     1      -1.279  -1.005  -1.672  0.00  0.00    +0.068 C 
ATOM      2  C   UNL     1      -0.147  -0.105  -1.167  0.00  0.00    +0.017 C 
ATOM      3  C   UNL     1       0.770   0.266  -2.335  0.00  0.00    +0.018 C 
ATOM      4  C   UNL     1       1.399  -1.005  -2.914  0.00  0.00    +0.113 C 
ATOM      5  N   UNL     1       0.323  -1.940  -3.277  0.00  0.00    -0.140 NA
ATOM      6  C   UNL     1      -0.686  -2.274  -2.273  0.00  0.00    +0.059 C 
ATOM      7  C   UNL     1      -0.062  -3.147  -1.165  0.00  0.00    +0.027 C 
ATOM      8  C   UNL     1      -0.088  -4.564  -1.791  0.00  0.00    +0.028 C 
ATOM      9  C   UNL     1      -1.416  -4.608  -2.577  0.00  0.00    +0.138 C 
ATOM     10  C   UNL     1      -1.790  -3.147  -2.889  0.00  0.00    +0.051 C 
ENDROOT
BRANCH   9  11
ATOM     11  S   UNL     1      -1.194  -5.537  -4.119  0.00  0.00    -0.000 S 
ATOM     12  O   UNL     1      -2.208  -5.187  -5.051  0.00  0.00    -0.169 OA
ATOM     13  O   UNL     1       0.174  -5.532  -4.502  0.00  0.00    -0.169 OA
BRANCH  11  14
ATOM     14  C   UNL     1      -1.536  -7.212  -3.692  0.00  0.00    +0.088 A 
ATOM     15  C   UNL     1      -0.538  -8.006  -3.157  0.00  0.00    +0.027 A 
ATOM     16  C   UNL     1      -0.806  -9.320  -2.821  0.00  0.00    +0.002 A 
ATOM     17  C   UNL     1      -2.071  -9.840  -3.020  0.00  0.00    +0.000 A 
ATOM     18  C   UNL     1      -3.069  -9.046  -3.554  0.00  0.00    +0.002 A 
ATOM     19  C   UNL     1      -2.802  -7.731  -3.886  0.00  0.00    +0.027 A 
ENDBRANCH  11  14
ENDBRANCH   9  11
BRANCH   5  20
ATOM     20  S   UNL     1       0.255  -2.600  -4.794  0.00  0.00    +0.195 S 
ATOM     21  O   UNL     1       1.599  -2.785  -5.217  0.00  0.00    -0.119 OA
ATOM     22  O   UNL     1      -0.678  -3.670  -4.730  0.00  0.00    -0.119 OA
BRANCH  20  23
ATOM     23  O   UNL     1      -0.350  -1.550  -5.715  0.00  0.00    -0.333 OA
BRANCH  23  24
ATOM     24  C   UNL     1       0.562  -0.893  -6.479  0.00  0.00    +0.158 A 
ATOM     25  C   UNL     1       1.035   0.350  -6.082  0.00  0.00    +0.048 A 
ATOM     26  C   UNL     1       1.962   1.016  -6.859  0.00  0.00    +0.004 A 
ATOM     27  C   UNL     1       2.420   0.445  -8.032  0.00  0.00    +0.000 A 
ATOM     28  C   UNL     1       1.951  -0.793  -8.430  0.00  0.00    +0.004 A 
ATOM     29  C   UNL     1       1.028  -1.466  -7.653  0.00  0.00    +0.048 A 
ENDBRANCH  23  24
ENDBRANCH  20  23
ENDBRANCH   5  20
BRANCH   1  31
ATOM     30  C   UNL     1      -3.100   0.141   0.210  0.00  0.00    +0.084 C 
ATOM     31  S   UNL     1      -2.368  -1.442  -0.289  0.00  0.00    -0.159 S 
ENDBRANCH   1  31
TORSDOF 6
