REMARK  Name = ZINC39657155
REMARK  8 active torsions:
REMARK  status: ('A' for Active; 'I' for Inactive)
REMARK    1  A    between atoms: C_1  and  C_2
REMARK    2  A    between atoms: C_2  and  O_3
REMARK    3  A    between atoms: O_3  and  C_4
REMARK    4  A    between atoms: C_8  and  C_10
REMARK    5  A    between atoms: C_14  and  C_23
REMARK    6  A    between atoms: N_25  and  C_26
REMARK    7  A    between atoms: C_26  and  C_28
REMARK    8  A    between atoms: C_26  and  C_29
REMARK                            x       y       z     vdW  Elec       q    Type
REMARK                         _______ _______ _______ _____ _____    ______ ____
ROOT
ATOM      1  C   UNL     1       2.207  -4.262  -3.798  0.00  0.00    +0.247 C 
ATOM      2  O   UNL     1       2.582  -3.522  -4.686  0.00  0.00    -0.270 OA
ATOM      3  N   UNL     1       2.399  -5.592  -3.903  0.00  0.00    -0.296 N 
ATOM      4  C   UNL     1       1.905  -6.656  -2.998  0.00  0.00    +0.121 C 
ATOM      5  C   UNL     1       1.492  -7.810  -3.940  0.00  0.00    +0.100 C 
ATOM      6  C   UNL     1       2.316  -7.585  -5.219  0.00  0.00    -0.004 C 
ATOM      7  C   UNL     1       3.147  -6.322  -4.955  0.00  0.00    +0.115 C 
ATOM      8  C   UNL     1       1.391  -7.361  -6.411  0.00  0.00    -0.010 C 
ATOM      9  C   UNL     1       2.231  -7.197  -7.680  0.00  0.00    -0.082 C 
ATOM     10  N   UNL     1       3.047  -8.400  -7.887  0.00  0.00    +0.379 N 
ATOM     11  C   UNL     1       3.999  -8.557  -6.781  0.00  0.00    -0.082 C 
ATOM     12  C   UNL     1       3.233  -8.778  -5.473  0.00  0.00    -0.010 C 
ATOM     13  H   UNL     1       2.446  -9.210  -7.929  0.00  0.00    -0.086 HD
ATOM     14  H   UNL     1       3.554  -8.316  -8.756  0.00  0.00    -0.086 HD
ENDROOT
BRANCH   1  19
ATOM     15  C   UNL     1       0.935  -3.878  -0.281  0.00  0.00    +0.121 A 
ATOM     16  C   UNL     1       0.286  -2.653  -0.363  0.00  0.00    +0.046 A 
ATOM     17  C   UNL     1       0.263  -1.956  -1.557  0.00  0.00    +0.004 A 
ATOM     18  C   UNL     1       0.885  -2.474  -2.675  0.00  0.00    +0.013 A 
ATOM     19  C   UNL     1       1.540  -3.704  -2.602  0.00  0.00    +0.040 A 
ATOM     20  C   UNL     1       1.568  -4.403  -1.395  0.00  0.00    +0.058 A 
BRANCH  15  21
ATOM     21  O   UNL     1       0.955  -4.558   0.896  0.00  0.00    -0.492 OA
BRANCH  21  23
ATOM     22  C   UNL     1       0.411  -4.862   3.231  0.00  0.00    +0.048 C 
ATOM     23  C   UNL     1       0.282  -3.957   2.004  0.00  0.00    +0.225 C 
ENDBRANCH  21  23
ENDBRANCH  15  21
ENDBRANCH   1  19
BRANCH   5  24
ATOM     24  C   UNL     1       1.833  -9.140  -3.320  0.00  0.00    +0.219 C 
ATOM     25  O   UNL     1       2.723  -9.216  -2.498  0.00  0.00    -0.275 OA
ATOM     26  N   UNL     1       1.150 -10.245  -3.678  0.00  0.00    -0.308 N 
ATOM     27  H   UNL     1       0.439 -10.184  -4.335  0.00  0.00    +0.149 HD
BRANCH  26  28
ATOM     28  C   UNL     1       1.482 -11.539  -3.075  0.00  0.00    +0.100 C 
ATOM     29  C   UNL     1       0.738 -11.688  -1.747  0.00  0.00    +0.033 C 
BRANCH  28  30
ATOM     30  C   UNL     1       1.070 -12.648  -4.009  0.00  0.00    -0.027 A 
ATOM     31  C   UNL     1      -0.118 -12.556  -4.709  0.00  0.00    +0.006 A 
ATOM     32  C   UNL     1      -0.496 -13.573  -5.566  0.00  0.00    +0.015 A 
ATOM     33  C   UNL     1       0.315 -14.683  -5.722  0.00  0.00    +0.018 A 
ATOM     34  C   UNL     1       1.504 -14.774  -5.021  0.00  0.00    +0.015 A 
ATOM     35  C   UNL     1       1.884 -13.754  -4.168  0.00  0.00    +0.006 A 
ATOM     36 BR   UNL     1      -0.201 -16.075  -6.893  0.00  0.00    -0.050 Br
ENDBRANCH  28  30
ENDBRANCH  26  28
ENDBRANCH   5  24
TORSDOF 6
