REMARK  Name = ZINC39677319
REMARK  6 active torsions:
REMARK  status: ('A' for Active; 'I' for Inactive)
REMARK    1  A    between atoms: C_1  and  C_2
REMARK    2  A    between atoms: C_6  and  C_7
REMARK    3  A    between atoms: C_7  and  N_8
REMARK    4  A    between atoms: C_9  and  C_11
REMARK    5  A    between atoms: C_22  and  C_24
REMARK    6  A    between atoms: C_27  and  C_29
REMARK                            x       y       z     vdW  Elec       q    Type
REMARK                         _______ _______ _______ _____ _____    ______ ____
ROOT
ATOM      1  C   UNL     1      -3.007   0.580   4.784  0.00  0.00    +0.100 C 
ATOM      2  C   UNL     1      -3.754  -0.770   4.703  0.00  0.00    +0.121 C 
ATOM      3  N   UNL     1      -3.618  -1.355   6.058  0.00  0.00    -0.294 N 
ATOM      4  C   UNL     1      -3.773  -0.201   6.975  0.00  0.00    +0.115 C 
ATOM      5  C   UNL     1      -3.025   0.952   6.277  0.00  0.00    -0.004 C 
ATOM      6  C   UNL     1      -1.600   1.056   6.812  0.00  0.00    -0.010 C 
ATOM      7  C   UNL     1      -1.643   1.482   8.282  0.00  0.00    -0.082 C 
ATOM      8  N   UNL     1      -2.326   2.776   8.399  0.00  0.00    +0.379 N 
ATOM      9  C   UNL     1      -3.724   2.645   7.968  0.00  0.00    -0.082 C 
ATOM     10  C   UNL     1      -3.769   2.267   6.485  0.00  0.00    -0.010 C 
ATOM     11  C   UNL     1      -3.403  -2.646   6.383  0.00  0.00    +0.282 C 
ATOM     12  O   UNL     1      -3.315  -2.972   7.552  0.00  0.00    -0.267 OA
ATOM     13  H   UNL     1      -2.300   3.084   9.360  0.00  0.00    -0.086 HD
ATOM     14  H   UNL     1      -1.859   3.455   7.818  0.00  0.00    -0.086 HD
ENDROOT
BRANCH  11  15
ATOM     15  C   UNL     1      -3.275  -3.655   5.329  0.00  0.00    +0.190 A 
ATOM     16  C   UNL     1      -3.060  -5.002   5.521  0.00  0.00    +0.055 A 
ATOM     17  C   UNL     1      -3.004  -5.587   4.252  0.00  0.00    +0.050 A 
ATOM     18  C   UNL     1      -3.185  -4.586   3.341  0.00  0.00    +0.136 A 
ATOM     19  O   UNL     1      -3.353  -3.428   4.001  0.00  0.00    -0.450 OA
BRANCH  18  20
ATOM     20  C   UNL     1      -3.199  -4.750   1.873  0.00  0.00    +0.017 A 
ATOM     21  C   UNL     1      -3.024  -6.015   1.307  0.00  0.00    +0.011 A 
ATOM     22  C   UNL     1      -3.039  -6.161  -0.065  0.00  0.00    +0.001 A 
ATOM     23  C   UNL     1      -3.227  -5.058  -0.879  0.00  0.00    +0.000 A 
ATOM     24  C   UNL     1      -3.401  -3.803  -0.325  0.00  0.00    +0.001 A 
ATOM     25  C   UNL     1      -3.394  -3.643   1.045  0.00  0.00    +0.011 A 
ENDBRANCH  18  20
ENDBRANCH  11  15
BRANCH   1  27
ATOM     26  N   UNL     1      -0.948   1.474   3.747  0.00  0.00    -0.310 N 
ATOM     27  C   UNL     1      -1.589   0.425   4.299  0.00  0.00    +0.218 C 
ATOM     28  O   UNL     1      -1.025  -0.643   4.405  0.00  0.00    -0.275 OA
ATOM     29  H   UNL     1      -1.399   2.329   3.663  0.00  0.00    +0.149 HD
BRANCH  26  30
ATOM     30  C   UNL     1       0.431   1.324   3.276  0.00  0.00    +0.147 C 
BRANCH  30  36
ATOM     31  C   UNL     1       1.850   3.577   4.807  0.00  0.00    +0.044 C 
ATOM     32  C   UNL     1       1.542   3.657   3.334  0.00  0.00    -0.039 A 
ATOM     33  C   UNL     1       1.901   4.773   2.602  0.00  0.00    +0.011 A 
ATOM     34  C   UNL     1       1.610   4.813   1.279  0.00  0.00    +0.046 A 
ATOM     35  S   UNL     1       0.802   3.240   1.031  0.00  0.00    -0.100 S 
ATOM     36  C   UNL     1       0.913   2.634   2.707  0.00  0.00    +0.010 A 
ENDBRANCH  30  36
ENDBRANCH  26  30
ENDBRANCH   1  27
TORSDOF 5
