REMARK  Name = ZINC12127310
REMARK  9 active torsions:
REMARK  status: ('A' for Active; 'I' for Inactive)
REMARK    1  A    between atoms: C_1  and  O_2
REMARK    2  A    between atoms: O_2  and  C_3
REMARK    3  A    between atoms: C_3  and  C_5
REMARK    4  A    between atoms: C_6  and  O_28
REMARK    5  A    between atoms: C_16  and  C_17
REMARK    6  A    between atoms: C_16  and  N_68
REMARK    7  A    between atoms: C_22  and  C_23
REMARK    8  A    between atoms: O_28  and  C_29
REMARK    9  A    between atoms: C_29  and  C_30
REMARK                            x       y       z     vdW  Elec       q    Type
REMARK                         _______ _______ _______ _____ _____    ______ ____
ROOT
ATOM      1  C   UNL     1       1.706   4.890   1.320  0.00  0.00    +0.120 A 
ATOM      2  C   UNL     1       2.120   5.008   2.719  0.00  0.00    +0.141 A 
ATOM      3  C   UNL     1       1.878   3.936   3.554  0.00  0.00    +0.116 A 
ATOM      4  C   UNL     1       1.238   2.808   3.038  0.00  0.00    +0.255 A 
ATOM      5  O   UNL     1       1.041   1.854   3.773  0.00  0.00    -0.268 OA
ATOM      6  N   UNL     1       0.830   2.736   1.749  0.00  0.00    -0.313 N 
ATOM      7  C   UNL     1       1.077   3.730   0.888  0.00  0.00    +0.038 A 
ATOM      8  C   UNL     1       0.702   3.667  -0.573  0.00  0.00    +0.036 C 
ATOM      9  C   UNL     1      -0.535   2.799  -0.793  0.00  0.00    -0.072 C 
ATOM     10  C   UNL     1       0.666   0.903   0.099  0.00  0.00    -0.056 C 
ATOM     11  C   UNL     1       0.089   1.530   1.369  0.00  0.00    +0.106 C 
ATOM     12  N   UNL     1      -0.077   1.422  -1.065  0.00  0.00    +0.384 N 
ATOM     13  H   UNL     1       0.544   1.431  -1.882  0.00  0.00    -0.081 HD
ENDROOT
BRANCH   1  14
ATOM     14  C   UNL     1       1.953   5.994   0.378  0.00  0.00    +0.344 C 
ATOM     15  O   UNL     1       1.222   6.965   0.375  0.00  0.00    -0.245 OA
BRANCH  14  17
ATOM     16  C   UNL     1       3.174   7.052  -1.380  0.00  0.00    +0.280 C 
ATOM     17  O   UNL     1       2.990   5.928  -0.480  0.00  0.00    -0.464 OA
ENDBRANCH  14  17
ENDBRANCH   1  14
BRANCH  12  18
ATOM     18  C   UNL     1      -1.237   0.550  -1.353  0.00  0.00    -0.042 C 
BRANCH  18  19
ATOM     19  C   UNL     1      -0.748  -0.696  -2.045  0.00  0.00    -0.053 A 
ATOM     20  C   UNL     1      -0.721  -1.898  -1.368  0.00  0.00    +0.002 A 
ATOM     21  C   UNL     1      -0.277  -3.043  -2.003  0.00  0.00    +0.000 A 
ATOM     22  C   UNL     1       0.154  -2.991  -3.317  0.00  0.00    +0.001 A 
ATOM     23  C   UNL     1       0.138  -1.795  -4.004  0.00  0.00    +0.012 A 
ATOM     24  C   UNL     1      -0.315  -0.636  -3.371  0.00  0.00    +0.019 A 
BRANCH  24  25
ATOM     25  C   UNL     1      -0.336   0.649  -4.101  0.00  0.00    +0.135 A 
ATOM     26  C   UNL     1       0.728   1.240  -4.707  0.00  0.00    +0.050 A 
ATOM     27  C   UNL     1       0.257   2.440  -5.275  0.00  0.00    +0.042 A 
ATOM     28  C   UNL     1      -1.057   2.522  -4.990  0.00  0.00    +0.196 A 
ATOM     29  O   UNL     1      -1.413   1.436  -4.286  0.00  0.00    -0.463 OA
ENDBRANCH  24  25
ENDBRANCH  18  19
ENDBRANCH  12  18
BRANCH   2  30
ATOM     30  O   UNL     1       2.720   6.130   3.178  0.00  0.00    -0.488 OA
BRANCH  30  31
ATOM     31  C   UNL     1       3.088   6.151   4.559  0.00  0.00    +0.260 C 
BRANCH  31  32
ATOM     32  C   UNL     1       3.749   7.490   4.891  0.00  0.00    +0.156 C 
ATOM     33  C   UNL     1       4.030   7.562   6.394  0.00  0.00    +0.035 C 
ATOM     34  C   UNL     1       4.745   8.879   6.709  0.00  0.00    +0.005 C 
ATOM     35  C   UNL     1       6.026   8.964   5.874  0.00  0.00    +0.028 C 
ATOM     36  C   UNL     1       5.668   8.838   4.391  0.00  0.00    +0.160 C 
ATOM     37  O   UNL     1       4.978   7.606   4.172  0.00  0.00    -0.373 OA
ENDBRANCH  31  32
ENDBRANCH  30  31
ENDBRANCH   2  30
TORSDOF 8
