REMARK  Name = ZINC20208475
REMARK  7 active torsions:
REMARK  status: ('A' for Active; 'I' for Inactive)
REMARK    1  A    between atoms: C_1  and  C_2
REMARK    2  A    between atoms: C_2  and  S_3
REMARK    3  A    between atoms: S_3  and  C_6
REMARK    4  A    between atoms: C_12  and  C_13
REMARK    5  A    between atoms: C_15  and  C_26
REMARK    6  A    between atoms: N_16  and  C_19
REMARK    7  A    between atoms: C_17  and  C_18
REMARK                            x       y       z     vdW  Elec       q    Type
REMARK                         _______ _______ _______ _____ _____    ______ ____
ROOT
ATOM      1  C   UNL     1       1.895  -4.558  -4.925  0.00  0.00    +0.235 C 
ATOM      2  N   UNL     1       0.805  -5.257  -4.784  0.00  0.00    -0.145 NA
ATOM      3  N   UNL     1       0.629  -6.099  -3.707  0.00  0.00    -0.152 N 
ATOM      4  C   UNL     1      -0.468  -6.963  -3.506  0.00  0.00    +0.132 C 
ATOM      5  N   UNL     1      -1.235  -7.388  -4.476  0.00  0.00    -0.385 N 
ATOM      6  C   UNL     1      -0.667  -7.343  -2.080  0.00  0.00    +0.079 C 
ATOM      7  C   UNL     1      -1.924  -7.571  -1.557  0.00  0.00    +0.026 C 
ATOM      8  C   UNL     1       0.556  -7.463  -1.251  0.00  0.00    +0.273 C 
ATOM      9  O   UNL     1       0.576  -8.175  -0.260  0.00  0.00    -0.268 OA
ATOM     10  N   UNL     1       1.647  -6.764  -1.625  0.00  0.00    -0.152 NA
ATOM     11  C   UNL     1       1.631  -6.114  -2.761  0.00  0.00    +0.182 C 
ATOM     12  S   UNL     1       2.839  -5.034  -3.483  0.00  0.00    -0.015 S 
ATOM     13  H   UNL     1      -1.115  -7.045  -5.375  0.00  0.00    +0.157 HD
ATOM     14  H   UNL     1      -1.923  -8.048  -4.296  0.00  0.00    +0.157 HD
ENDROOT
BRANCH   7  15
ATOM     15  C   UNL     1      -3.077  -7.279  -2.330  0.00  0.00    -0.003 A 
ATOM     16  C   UNL     1      -3.231  -6.204  -3.320  0.00  0.00    +0.031 A 
ATOM     17  C   UNL     1      -4.481  -6.306  -3.800  0.00  0.00    +0.022 A 
ATOM     18  N   UNL     1      -5.114  -7.353  -3.190  0.00  0.00    -0.317 N 
ATOM     19  C   UNL     1      -4.287  -7.953  -2.311  0.00  0.00    +0.028 A 
ATOM     20  C   UNL     1      -4.622  -9.146  -1.453  0.00  0.00    +0.064 C 
ATOM     21  C   UNL     1      -5.091  -5.407  -4.845  0.00  0.00    +0.064 C 
BRANCH  18  22
ATOM     22  C   UNL     1      -6.433  -7.751  -3.448  0.00  0.00    +0.047 A 
ATOM     23  C   UNL     1      -7.397  -7.647  -2.454  0.00  0.00    +0.027 A 
ATOM     24  C   UNL     1      -8.696  -8.040  -2.710  0.00  0.00    +0.022 A 
ATOM     25  C   UNL     1      -9.037  -8.536  -3.956  0.00  0.00    +0.041 A 
ATOM     26  C   UNL     1      -8.078  -8.641  -4.948  0.00  0.00    +0.022 A 
ATOM     27  C   UNL     1      -6.779  -8.244  -4.699  0.00  0.00    +0.027 A 
ATOM     28 CL   UNL     1     -10.671  -9.029  -4.274  0.00  0.00    -0.084 Cl
ENDBRANCH  18  22
ENDBRANCH   7  15
BRANCH   1  29
ATOM     29  S   UNL     1       2.332  -3.436  -6.211  0.00  0.00    +0.022 S 
ATOM     30  O   UNL     1       1.498  -3.796  -7.304  0.00  0.00    -0.167 OA
ATOM     31  O   UNL     1       3.745  -3.536  -6.315  0.00  0.00    -0.167 OA
BRANCH  29  33
ATOM     32  C   UNL     1       2.202  -0.736  -6.628  0.00  0.00    +0.028 C 
ATOM     33  C   UNL     1       1.865  -1.800  -5.582  0.00  0.00    +0.171 C 
ENDBRANCH  29  33
ENDBRANCH   1  29
TORSDOF 4
