REMARK  Name = ZINC63296157
REMARK  4 active torsions:
REMARK  status: ('A' for Active; 'I' for Inactive)
REMARK    1  A    between atoms: C_6  and  N_7
REMARK    2  A    between atoms: C_13  and  C_15
REMARK    3  A    between atoms: C_15  and  C_16
REMARK    4  A    between atoms: C_16  and  N_17
REMARK                            x       y       z     vdW  Elec       q    Type
REMARK                         _______ _______ _______ _____ _____    ______ ____
ROOT
ATOM      1  N   UNL     1      -5.927  -6.075  -1.361  0.00  0.00    -0.299 N 
ATOM      2  C   UNL     1      -7.085  -6.766  -1.344  0.00  0.00    +0.302 C 
ATOM      3  O   UNL     1      -8.146  -6.173  -1.327  0.00  0.00    -0.253 OA
ATOM      4  N   UNL     1      -7.065  -8.113  -1.347  0.00  0.00    -0.283 N 
ATOM      5  C   UNL     1      -5.785  -8.820  -1.240  0.00  0.00    +0.114 C 
ATOM      6  C   UNL     1      -5.607  -9.745  -2.458  0.00  0.00    +0.052 C 
ATOM      7  C   UNL     1      -6.918 -10.467  -2.648  0.00  0.00    -0.035 C 
ATOM      8  C   UNL     1      -7.200 -11.758  -2.770  0.00  0.00    +0.001 A 
ATOM      9  C   UNL     1      -6.334 -12.944  -2.874  0.00  0.00    +0.030 A 
ATOM     10  C   UNL     1      -6.969 -14.143  -2.969  0.00  0.00    +0.042 A 
ATOM     11  C   UNL     1      -8.362 -14.279  -2.971  0.00  0.00    +0.022 A 
ATOM     12  C   UNL     1      -9.233 -13.242  -2.887  0.00  0.00    +0.027 A 
ATOM     13  C   UNL     1      -8.685 -11.930  -2.791  0.00  0.00    +0.043 A 
ATOM     14  N   UNL     1      -9.277 -10.774  -2.723  0.00  0.00    -0.376 N 
ATOM     15  C   UNL     1      -8.251  -9.730  -2.713  0.00  0.00    +0.124 C 
ATOM     16  C   UNL     1      -8.329  -8.859  -1.450  0.00  0.00    +0.138 C 
ATOM     17 CL   UNL     1      -6.001 -15.579  -3.096  0.00  0.00    -0.084 Cl
ATOM     18  H   UNL     1      -5.083  -6.545  -1.453  0.00  0.00    +0.150 HD
ATOM     19  H   UNL     1     -10.235 -10.629  -2.686  0.00  0.00    +0.160 HD
ENDROOT
BRANCH   1  20
ATOM     20  C   UNL     1      -5.944  -4.615  -1.242  0.00  0.00    +0.115 C 
BRANCH  20  21
ATOM     21  C   UNL     1      -4.510  -4.083  -1.290  0.00  0.00    +0.114 C 
BRANCH  21  28
ATOM     22  N   UNL     1      -1.184  -0.726  -0.028  0.00  0.00    -0.327 N 
ATOM     23  C   UNL     1      -2.470  -0.028   0.109  0.00  0.00    +0.124 C 
ATOM     24  C   UNL     1      -3.371  -0.425  -1.066  0.00  0.00    +0.126 C 
ATOM     25  N   UNL     1      -3.370  -1.890  -1.185  0.00  0.00    -0.298 N 
ATOM     26  C   UNL     1      -2.084  -2.588  -1.322  0.00  0.00    +0.126 C 
ATOM     27  C   UNL     1      -1.183  -2.191  -0.152  0.00  0.00    +0.124 C 
ATOM     28  C   UNL     1      -4.527  -2.581  -1.167  0.00  0.00    +0.217 C 
ATOM     29  O   UNL     1      -5.582  -1.994  -1.054  0.00  0.00    -0.276 OA
BRANCH  22  35
ATOM     30  C   UNL     1       1.229  -0.685  -0.067  0.00  0.00    +0.026 A 
ATOM     31  C   UNL     1       2.414   0.024  -0.085  0.00  0.00    +0.040 A 
ATOM     32  C   UNL     1       2.393   1.409  -0.082  0.00  0.00    +0.124 A 
ATOM     33  C   UNL     1       1.185   2.085  -0.060  0.00  0.00    +0.040 A 
ATOM     34  C   UNL     1      -0.003   1.379  -0.042  0.00  0.00    +0.026 A 
ATOM     35  C   UNL     1       0.016  -0.010  -0.045  0.00  0.00    +0.030 A 
ATOM     36  F   UNL     1       3.553   2.101  -0.099  0.00  0.00    -0.205 F 
ENDBRANCH  22  35
ENDBRANCH  21  28
ENDBRANCH  20  21
ENDBRANCH   1  20
TORSDOF 4
