REMARK  Name = ZINC05863816
REMARK  3 active torsions:
REMARK  status: ('A' for Active; 'I' for Inactive)
REMARK    1  A    between atoms: C_5  and  C_11
REMARK    2  A    between atoms: N_13  and  N_14
REMARK    3  A    between atoms: C_15  and  C_17
REMARK                            x       y       z     vdW  Elec       q    Type
REMARK                         _______ _______ _______ _____ _____    ______ ____
ROOT
ATOM      1  N   UNL     1       2.974  -3.210  -2.229  0.00  0.00    -0.234 N 
ATOM      2  C   UNL     1       3.806  -3.578  -3.223  0.00  0.00    +0.235 C 
ATOM      3  O   UNL     1       4.009  -2.827  -4.153  0.00  0.00    -0.274 OA
ATOM      4  H   UNL     1       2.812  -3.811  -1.485  0.00  0.00    +0.173 HD
ENDROOT
BRANCH   2   5
ATOM      5  C   UNL     1       4.486  -4.923  -3.178  0.00  0.00    +0.049 C 
ATOM      6  C   UNL     1       5.350  -5.015  -1.918  0.00  0.00    +0.019 C 
ATOM      7  C   UNL     1       6.040  -6.380  -1.872  0.00  0.00    -0.009 C 
ATOM      8  C   UNL     1       6.924  -6.546  -3.110  0.00  0.00    +0.007 C 
ATOM      9  C   UNL     1       6.060  -6.454  -4.369  0.00  0.00    -0.009 C 
ATOM     10  C   UNL     1       5.370  -5.089  -4.415  0.00  0.00    +0.019 C 
ATOM     11  C   UNL     1       5.003  -7.559  -4.345  0.00  0.00    +0.007 C 
ATOM     12  C   UNL     1       4.119  -7.393  -3.107  0.00  0.00    -0.009 C 
ATOM     13  C   UNL     1       4.982  -7.486  -1.848  0.00  0.00    +0.007 C 
ATOM     14  C   UNL     1       3.429  -6.028  -3.153  0.00  0.00    +0.019 C 
ENDBRANCH   2   5
BRANCH   1  17
ATOM     15  C   UNL     1       1.509  -1.593  -1.278  0.00  0.00    +0.233 C 
ATOM     16  O   UNL     1       1.306  -2.344  -0.347  0.00  0.00    -0.274 OA
ATOM     17  N   UNL     1       2.342  -1.961  -2.271  0.00  0.00    -0.234 N 
ATOM     18  H   UNL     1       2.504  -1.360  -3.015  0.00  0.00    +0.173 HD
BRANCH  15  22
ATOM     19  C   UNL     1      -0.019   1.568   0.011  0.00  0.00    +0.016 C 
ATOM     20  C   UNL     1       1.549   1.681  -0.004  0.00  0.00    +0.013 C 
ATOM     21  C   UNL     1       1.876   0.891  -1.311  0.00  0.00    +0.021 C 
ATOM     22  C   UNL     1       0.829  -0.249  -1.323  0.00  0.00    +0.084 C 
ATOM     23  C   UNL     1       0.002  -0.004   0.002  0.00  0.00    +0.024 C 
ATOM     24  C   UNL     1       0.999  -0.258   1.139  0.00  0.00    -0.027 C 
ATOM     25  C   UNL     1       1.891   0.713   1.136  0.00  0.00    -0.027 C 
ENDBRANCH  15  22
ENDBRANCH   1  17
TORSDOF 3
