REMARK  Name = ZINC13501109
REMARK  12 active torsions:
REMARK  status: ('A' for Active; 'I' for Inactive)
REMARK    1  A    between atoms: C_1  and  C_2
REMARK    2  A    between atoms: C_2  and  C_3
REMARK    3  A    between atoms: C_3  and  C_5
REMARK    4  A    between atoms: C_3  and  N_70
REMARK    5  A    between atoms: N_9  and  C_10
REMARK    6  A    between atoms: C_10  and  C_11
REMARK    7  A    between atoms: C_14  and  O_17
REMARK    8  A    between atoms: O_17  and  C_18
REMARK    9  A    between atoms: C_19  and  C_20
REMARK   10  A    between atoms: C_19  and  N_70
REMARK   11  A    between atoms: C_26  and  C_32
REMARK   12  A    between atoms: C_33  and  N_70
REMARK                            x       y       z     vdW  Elec       q    Type
REMARK                         _______ _______ _______ _____ _____    ______ ____
ROOT
ATOM      1  N   UNL     1      -2.992   0.814  -1.171  0.00  0.00    +0.391 N 
ATOM      2  H   UNL     1      -2.601   1.614  -1.682  0.00  0.00    -0.080 HD
ENDROOT
BRANCH   1   3
ATOM      3  C   UNL     1      -2.111  -0.356  -1.362  0.00  0.00    -0.067 C 
ATOM      4  C   UNL     1      -2.305  -1.386  -0.230  0.00  0.00    -0.015 C 
ATOM      5  C   UNL     1      -0.879  -1.931   0.036  0.00  0.00    -0.002 C 
ATOM      6  C   UNL     1       0.005  -0.670  -0.126  0.00  0.00    -0.002 C 
ATOM      7  C   UNL     1      -0.642   0.099  -1.297  0.00  0.00    -0.015 C 
ENDBRANCH   1   3
BRANCH   1   8
ATOM      8  C   UNL     1      -4.342   0.522  -1.698  0.00  0.00    +0.003 C 
BRANCH   8   9
ATOM      9  C   UNL     1      -5.117  -0.324  -0.721  0.00  0.00    +0.138 A 
ATOM     10  N   UNL     1      -4.695  -1.408  -0.118  0.00  0.00    -0.115 NA
ATOM     11  N   UNL     1      -5.646  -1.839   0.637  0.00  0.00    -0.023 NA
ATOM     12  N   UNL     1      -6.667  -1.063   0.525  0.00  0.00    -0.044 NA
ATOM     13  N   UNL     1      -6.380  -0.116  -0.303  0.00  0.00    -0.226 N 
BRANCH  13  14
ATOM     14  C   UNL     1      -7.263   0.979  -0.713  0.00  0.00    +0.182 C 
BRANCH  14  15
ATOM     15  C   UNL     1      -8.052   0.560  -1.927  0.00  0.00    -0.026 A 
ATOM     16  C   UNL     1      -7.551   0.805  -3.193  0.00  0.00    +0.009 A 
ATOM     17  C   UNL     1      -8.270   0.418  -4.308  0.00  0.00    +0.046 A 
ATOM     18  C   UNL     1      -9.499  -0.207  -4.156  0.00  0.00    +0.120 A 
ATOM     19  C   UNL     1     -10.001  -0.447  -2.885  0.00  0.00    +0.046 A 
ATOM     20  C   UNL     1      -9.277  -0.062  -1.774  0.00  0.00    +0.009 A 
BRANCH  18  21
ATOM     21  O   UNL     1     -10.210  -0.585  -5.251  0.00  0.00    -0.495 OA
ATOM     22  C   UNL     1      -9.632  -0.307  -6.528  0.00  0.00    +0.277 C 
ENDBRANCH  18  21
ENDBRANCH  14  15
ENDBRANCH  13  14
ENDBRANCH   8   9
BRANCH   8  24
ATOM     23  C   UNL     1      -3.430   0.638  -4.021  0.00  0.00    +0.002 C 
ATOM     24  C   UNL     1      -4.214  -0.223  -3.028  0.00  0.00    -0.011 C 
ENDBRANCH   8  24
ENDBRANCH   1   8
BRANCH   1  25
ATOM     25  C   UNL     1      -3.074   1.156   0.265  0.00  0.00    -0.036 C 
BRANCH  25  26
ATOM     26  C   UNL     1      -3.624   2.553   0.399  0.00  0.00    +0.001 A 
ATOM     27  C   UNL     1      -4.930   2.737   0.715  0.00  0.00    +0.017 A 
ATOM     28  C   UNL     1      -5.434   4.106   0.832  0.00  0.00    -0.001 A 
ATOM     29  C   UNL     1      -6.773   4.359   1.149  0.00  0.00    +0.010 A 
ATOM     30  C   UNL     1      -7.213   5.649   1.251  0.00  0.00    +0.001 A 
ATOM     31  C   UNL     1      -6.343   6.710   1.042  0.00  0.00    +0.005 A 
ATOM     32  C   UNL     1      -5.020   6.484   0.729  0.00  0.00    -0.026 A 
ATOM     33  C   UNL     1      -4.549   5.180   0.620  0.00  0.00    +0.052 A 
ATOM     34  N   UNL     1      -3.231   4.925   0.307  0.00  0.00    -0.322 N 
ATOM     35  H   UNL     1      -2.623   5.666   0.161  0.00  0.00    +0.169 HD
ATOM     36  C   UNL     1      -2.777   3.664   0.202  0.00  0.00    +0.251 A 
ATOM     37  O   UNL     1      -1.605   3.476  -0.077  0.00  0.00    -0.268 OA
ATOM     38  C   UNL     1      -4.087   7.646   0.504  0.00  0.00    +0.046 C 
ENDBRANCH  25  26
ENDBRANCH   1  25
TORSDOF 9
