REMARK  Name = ZINC13633223
REMARK  10 active torsions:
REMARK  status: ('A' for Active; 'I' for Inactive)
REMARK    1  A    between atoms: C_1  and  C_2
REMARK    2  A    between atoms: C_2  and  O_3
REMARK    3  A    between atoms: O_3  and  C_4
REMARK    4  A    between atoms: C_7  and  S_10
REMARK    5  A    between atoms: S_10  and  N_13
REMARK    6  A    between atoms: N_13  and  C_14
REMARK    7  A    between atoms: N_13  and  C_15
REMARK    8  A    between atoms: C_15  and  C_16
REMARK    9  A    between atoms: N_18  and  C_19
REMARK   10  A    between atoms: C_24  and  C_25
REMARK                            x       y       z     vdW  Elec       q    Type
REMARK                         _______ _______ _______ _____ _____    ______ ____
ROOT
ATOM      1  C   UNL     1      -0.045  -3.156  -2.309  0.00  0.00    +0.205 C 
ENDROOT
BRANCH   1   2
ATOM      2  C   UNL     1      -0.446  -1.907  -3.050  0.00  0.00    +0.233 C 
ATOM      3  O   UNL     1       0.263  -0.924  -3.011  0.00  0.00    -0.274 OA
ATOM      4  N   UNL     1      -1.593  -1.883  -3.758  0.00  0.00    -0.284 N 
ATOM      5  H   UNL     1      -2.128  -2.688  -3.844  0.00  0.00    +0.155 HD
BRANCH   4   6
ATOM      6  C   UNL     1      -2.013  -0.695  -4.369  0.00  0.00    +0.045 A 
ATOM      7  C   UNL     1      -1.076   0.188  -4.889  0.00  0.00    +0.025 A 
ATOM      8  C   UNL     1      -1.493   1.359  -5.492  0.00  0.00    +0.022 A 
ATOM      9  C   UNL     1      -2.843   1.651  -5.578  0.00  0.00    +0.042 A 
ATOM     10  C   UNL     1      -3.779   0.773  -5.060  0.00  0.00    +0.034 A 
ATOM     11  C   UNL     1      -3.367  -0.402  -4.461  0.00  0.00    +0.077 A 
ATOM     12 CL   UNL     1      -3.364   3.123  -6.336  0.00  0.00    -0.084 Cl
BRANCH  11  13
ATOM     13  C   UNL     1      -4.386  -1.361  -3.903  0.00  0.00    +0.419 C 
ATOM     14  F   UNL     1      -5.672  -0.850  -4.114  0.00  0.00    -0.166 F 
ATOM     15  F   UNL     1      -4.264  -2.598  -4.546  0.00  0.00    -0.166 F 
ATOM     16  F   UNL     1      -4.169  -1.526  -2.530  0.00  0.00    -0.166 F 
ENDBRANCH  11  13
ENDBRANCH   4   6
ENDBRANCH   1   2
BRANCH   1  17
ATOM     17  N   UNL     1       1.230  -2.929  -1.624  0.00  0.00    -0.171 NA
ATOM     18  C   UNL     1       2.492  -3.120  -2.343  0.00  0.00    +0.132 C 
BRANCH  17  19
ATOM     19  S   UNL     1       1.244  -2.457  -0.037  0.00  0.00    +0.061 S 
ATOM     20  O   UNL     1       2.503  -2.852   0.493  0.00  0.00    -0.153 OA
ATOM     21  O   UNL     1       0.013  -2.887   0.526  0.00  0.00    -0.153 OA
BRANCH  19  25
ATOM     22  C   UNL     1       1.181   2.071   0.015  0.00  0.00    +0.121 A 
ATOM     23  C   UNL     1      -0.010   1.359   0.023  0.00  0.00    +0.047 A 
ATOM     24  C   UNL     1       0.012  -0.022   0.007  0.00  0.00    +0.032 A 
ATOM     25  C   UNL     1       1.220  -0.695  -0.017  0.00  0.00    +0.106 A 
ATOM     26  C   UNL     1       2.408   0.012  -0.025  0.00  0.00    +0.032 A 
ATOM     27  C   UNL     1       2.391   1.393  -0.009  0.00  0.00    +0.047 A 
BRANCH  22  28
ATOM     28  O   UNL     1       1.162   3.429   0.030  0.00  0.00    -0.492 OA
BRANCH  28  30
ATOM     29  C   UNL     1       2.204   5.610   0.040  0.00  0.00    +0.048 C 
ATOM     30  C   UNL     1       2.426   4.096   0.020  0.00  0.00    +0.225 C 
ENDBRANCH  28  30
ENDBRANCH  22  28
ENDBRANCH  19  25
ENDBRANCH  17  19
ENDBRANCH   1  17
TORSDOF 8
