REMARK  Name = ZINC13040761
REMARK  16 active torsions:
REMARK  status: ('A' for Active; 'I' for Inactive)
REMARK    1  A    between atoms: C_1  and  C_2
REMARK    2  A    between atoms: C_2  and  C_3
REMARK    3  A    between atoms: C_2  and  N_63
REMARK    4  A    between atoms: C_4  and  C_5
REMARK    5  A    between atoms: C_4  and  N_63
REMARK    6  A    between atoms: C_5  and  N_6
REMARK    7  A    between atoms: N_6  and  S_7
REMARK    8  A    between atoms: S_7  and  C_10
REMARK    9  A    between atoms: C_13  and  N_19
REMARK   10  A    between atoms: C_14  and  N_16
REMARK   11  A    between atoms: N_19  and  C_20
REMARK   12  A    between atoms: N_19  and  C_21
REMARK   13  A    between atoms: C_21  and  C_22
REMARK   14  A    between atoms: C_28  and  C_29
REMARK   15  A    between atoms: C_28  and  C_30
REMARK   16  A    between atoms: C_28  and  N_63
REMARK                            x       y       z     vdW  Elec       q    Type
REMARK                         _______ _______ _______ _____ _____    ______ ____
ROOT
ATOM      1  C   UNL     1       7.560  -3.478  -1.645  0.00  0.00    +0.108 A 
ATOM      2  C   UNL     1       7.792  -2.267  -1.020  0.00  0.00    +0.030 A 
ATOM      3  C   UNL     1       6.786  -1.324  -0.943  0.00  0.00    +0.027 A 
ATOM      4  C   UNL     1       5.539  -1.594  -1.493  0.00  0.00    +0.060 A 
ATOM      5  C   UNL     1       5.308  -2.814  -2.115  0.00  0.00    +0.149 A 
ATOM      6  C   UNL     1       6.321  -3.750  -2.194  0.00  0.00    +0.063 A 
ENDROOT
BRANCH   1   7
ATOM      7  S   UNL     1       8.847  -4.678  -1.743  0.00  0.00    +0.058 S 
ATOM      8  O   UNL     1       8.544  -5.510  -2.854  0.00  0.00    -0.153 OA
ATOM      9  O   UNL     1      10.073  -3.968  -1.635  0.00  0.00    -0.153 OA
BRANCH   7  10
ATOM     10  N   UNL     1       8.731  -5.631  -0.393  0.00  0.00    -0.192 NA
ATOM     11  H   UNL     1       9.444  -5.628   0.265  0.00  0.00    +0.148 HD
BRANCH  10  12
ATOM     12  C   UNL     1       7.553  -6.477  -0.193  0.00  0.00    +0.087 C 
BRANCH  12  13
ATOM     13  C   UNL     1       7.846  -7.511   0.896  0.00  0.00    -0.061 C 
BRANCH  13  14
ATOM     14  N   UNL     1       6.721  -8.467   0.962  0.00  0.00    +0.384 N 
ATOM     15  H   UNL     1       6.524  -8.816   0.016  0.00  0.00    -0.081 HD
BRANCH  14  17
ATOM     16  C   UNL     1       5.975 -10.666   1.734  0.00  0.00    -0.014 C 
ATOM     17  C   UNL     1       7.077  -9.608   1.830  0.00  0.00    -0.074 C 
ATOM     18  C   UNL     1       8.401 -10.206   1.351  0.00  0.00    -0.014 C 
ENDBRANCH  14  17
BRANCH  14  19
ATOM     19  C   UNL     1       5.514  -7.791   1.484  0.00  0.00    -0.074 C 
ATOM     20  C   UNL     1       5.907  -6.682   2.463  0.00  0.00    -0.014 C 
ATOM     21  C   UNL     1       4.747  -7.185   0.308  0.00  0.00    -0.014 C 
ENDBRANCH  14  19
ENDBRANCH  13  14
ENDBRANCH  12  13
ENDBRANCH  10  12
ENDBRANCH   7  10
ENDBRANCH   1   7
BRANCH   5  22
ATOM     22  N   UNL     1       3.980  -3.109  -2.698  0.00  0.00    +0.058 N 
ATOM     23  O   UNL     1       3.777  -4.179  -3.243  0.00  0.00    -0.126 OA
ATOM     24  O   UNL     1       3.089  -2.281  -2.632  0.00  0.00    -0.126 OA
ENDBRANCH   5  22
BRANCH   4  25
ATOM     25  N   UNL     1       4.519  -0.643  -1.417  0.00  0.00    -0.327 N 
ATOM     26  C   UNL     1       4.874   0.570  -2.165  0.00  0.00    +0.129 C 
BRANCH  25  27
ATOM     27  C   UNL     1       4.200  -0.325  -0.018  0.00  0.00    +0.140 C 
BRANCH  27  28
ATOM     28  C   UNL     1       2.945   0.507   0.033  0.00  0.00    -0.030 A 
ATOM     29  C   UNL     1       1.711  -0.108   0.134  0.00  0.00    +0.005 A 
ATOM     30  C   UNL     1       0.560   0.656   0.181  0.00  0.00    +0.000 A 
ATOM     31  C   UNL     1       0.643   2.035   0.129  0.00  0.00    +0.000 A 
ATOM     32  C   UNL     1       1.877   2.650   0.029  0.00  0.00    +0.000 A 
ATOM     33  C   UNL     1       3.028   1.886  -0.019  0.00  0.00    +0.005 A 
ENDBRANCH  27  28
ENDBRANCH  25  27
ENDBRANCH   4  25
TORSDOF 11
