REMARK  Name = ZINC45873542
REMARK  13 active torsions:
REMARK  status: ('A' for Active; 'I' for Inactive)
REMARK    1  A    between atoms: C_1  and  C_2
REMARK    2  A    between atoms: C_6  and  N_9
REMARK    3  A    between atoms: C_7  and  C_8
REMARK    4  A    between atoms: C_10  and  C_12
REMARK    5  A    between atoms: C_12  and  N_13
REMARK    6  A    between atoms: N_13  and  C_14
REMARK    7  A    between atoms: N_13  and  C_18
REMARK    8  A    between atoms: C_14  and  C_15
REMARK    9  A    between atoms: C_15  and  O_16
REMARK   10  A    between atoms: O_16  and  C_17
REMARK   11  A    between atoms: C_19  and  N_34
REMARK   12  A    between atoms: N_20  and  C_27
REMARK   13  A    between atoms: C_27  and  C_28
REMARK                            x       y       z     vdW  Elec       q    Type
REMARK                         _______ _______ _______ _____ _____    ______ ____
ROOT
ATOM      1  C   UNL     1      -1.476  -6.878   3.087  0.00  0.00    +0.134 A 
ATOM      2  C   UNL     1      -2.534  -6.714   3.939  0.00  0.00    +0.127 A 
ATOM      3  N   UNL     1      -3.721  -7.359   3.674  0.00  0.00    -0.276 N 
ATOM      4  C   UNL     1      -3.840  -8.144   2.587  0.00  0.00    +0.331 A 
ATOM      5  O   UNL     1      -4.896  -8.707   2.368  0.00  0.00    -0.246 OA
ATOM      6  N   UNL     1      -2.810  -8.317   1.740  0.00  0.00    -0.273 N 
ATOM      7  H   UNL     1      -2.918  -8.887   0.962  0.00  0.00    +0.173 HD
ATOM      8  C   UNL     1      -1.632  -7.700   1.957  0.00  0.00    +0.277 A 
ATOM      9  O   UNL     1      -0.705  -7.858   1.180  0.00  0.00    -0.266 OA
ENDROOT
BRANCH   2  10
ATOM     10  N   UNL     1      -2.413  -5.911   5.050  0.00  0.00    -0.343 N 
ATOM     11  H   UNL     1      -1.583  -5.439   5.219  0.00  0.00    +0.144 HD
ATOM     12  H   UNL     1      -3.158  -5.818   5.665  0.00  0.00    +0.144 HD
ENDBRANCH   2  10
BRANCH   1  13
ATOM     13  N   UNL     1      -0.246  -6.227   3.337  0.00  0.00    -0.312 N 
BRANCH  13  14
ATOM     14  C   UNL     1      -0.177  -4.763   3.327  0.00  0.00    +0.201 C 
BRANCH  14  16
ATOM     15  N   UNL     1       0.201  -2.963   1.673  0.00  0.00    -0.284 N 
ATOM     16  C   UNL     1       0.095  -4.283   1.925  0.00  0.00    +0.235 C 
ATOM     17  O   UNL     1       0.219  -5.084   1.022  0.00  0.00    -0.274 OA
ATOM     18  H   UNL     1       0.181  -2.327   2.405  0.00  0.00    +0.155 HD
BRANCH  15  24
ATOM     19  C   UNL     1       1.727   0.489  -1.478  0.00  0.00    +0.044 C 
ATOM     20  C   UNL     1       1.075  -0.841  -1.200  0.00  0.00    -0.046 A 
ATOM     21  C   UNL     1       0.612  -1.616  -2.248  0.00  0.00    +0.004 A 
ATOM     22  C   UNL     1       0.013  -2.837  -1.997  0.00  0.00    +0.002 A 
ATOM     23  C   UNL     1      -0.124  -3.286  -0.698  0.00  0.00    +0.023 A 
ATOM     24  C   UNL     1       0.339  -2.511   0.356  0.00  0.00    +0.037 A 
ATOM     25  C   UNL     1       0.945  -1.287   0.101  0.00  0.00    -0.026 A 
ATOM     26  C   UNL     1       1.454  -0.445   1.242  0.00  0.00    +0.046 C 
ENDBRANCH  15  24
ENDBRANCH  14  16
ENDBRANCH  13  14
BRANCH  13  27
ATOM     27  C   UNL     1       0.959  -7.015   3.605  0.00  0.00    +0.134 C 
BRANCH  27  28
ATOM     28  C   UNL     1       1.149  -7.157   5.117  0.00  0.00    +0.178 C 
BRANCH  28  29
ATOM     29  O   UNL     1       0.070  -7.919   5.663  0.00  0.00    -0.381 OA
ATOM     30  C   UNL     1       0.152  -8.111   7.077  0.00  0.00    +0.194 C 
ENDBRANCH  28  29
ENDBRANCH  27  28
ENDBRANCH  13  27
ENDBRANCH   1  13
BRANCH   3  31
ATOM     31  C   UNL     1      -4.860  -7.191   4.579  0.00  0.00    +0.163 C 
BRANCH  31  32
ATOM     32  C   UNL     1      -5.689  -6.015   4.130  0.00  0.00    -0.028 A 
ATOM     33  C   UNL     1      -5.410  -4.749   4.610  0.00  0.00    +0.005 A 
ATOM     34  C   UNL     1      -6.170  -3.670   4.198  0.00  0.00    +0.000 A 
ATOM     35  C   UNL     1      -7.209  -3.857   3.306  0.00  0.00    +0.000 A 
ATOM     36  C   UNL     1      -7.488  -5.123   2.825  0.00  0.00    +0.000 A 
ATOM     37  C   UNL     1      -6.725  -6.201   3.234  0.00  0.00    +0.005 A 
ENDBRANCH  31  32
ENDBRANCH   3  31
TORSDOF 10
