REMARK  Name = ZINC09789065
REMARK  7 active torsions:
REMARK  status: ('A' for Active; 'I' for Inactive)
REMARK    1  A    between atoms: C_1  and  C_2
REMARK    2  A    between atoms: C_2  and  C_26
REMARK    3  A    between atoms: N_5  and  C_9
REMARK    4  A    between atoms: C_9  and  C_10
REMARK    5  A    between atoms: N_12  and  C_13
REMARK    6  A    between atoms: C_13  and  C_15
REMARK    7  A    between atoms: C_13  and  C_21
REMARK                            x       y       z     vdW  Elec       q    Type
REMARK                         _______ _______ _______ _____ _____    ______ ____
ROOT
ATOM      1  C   UNL     1      -2.001   4.671   6.727  0.00  0.00    +0.050 C 
ATOM      2  C   UNL     1      -2.902   3.455   6.502  0.00  0.00    +0.168 C 
ATOM      3  C   UNL     1      -3.438   3.443   5.084  0.00  0.00    +0.254 C 
ATOM      4  O   UNL     1      -4.138   4.282   4.558  0.00  0.00    -0.272 OA
ATOM      5  N   UNL     1      -2.973   2.307   4.528  0.00  0.00    -0.215 N 
ATOM      6  C   UNL     1      -2.230   1.604   5.391  0.00  0.00    +0.310 C 
ATOM      7  O   UNL     1      -1.706   0.541   5.121  0.00  0.00    -0.252 OA
ATOM      8  N   UNL     1      -2.125   2.206   6.589  0.00  0.00    -0.279 N 
ATOM      9  H   UNL     1      -1.636   1.881   7.361  0.00  0.00    +0.152 HD
ENDROOT
BRANCH   2  10
ATOM     10  C   UNL     1      -4.035   3.445   7.496  0.00  0.00    +0.138 A 
ATOM     11  C   UNL     1      -3.979   2.896   8.717  0.00  0.00    +0.056 A 
ATOM     12  C   UNL     1      -5.294   3.122   9.328  0.00  0.00    +0.020 A 
ATOM     13  C   UNL     1      -5.864   2.804  10.560  0.00  0.00    +0.011 A 
ATOM     14  C   UNL     1      -7.156   3.165  10.822  0.00  0.00    +0.001 A 
ATOM     15  C   UNL     1      -7.902   3.845   9.871  0.00  0.00    +0.004 A 
ATOM     16  C   UNL     1      -7.356   4.168   8.647  0.00  0.00    +0.047 A 
ATOM     17  C   UNL     1      -6.044   3.810   8.361  0.00  0.00    +0.135 A 
ATOM     18  O   UNL     1      -5.250   3.980   7.284  0.00  0.00    -0.457 OA
ENDBRANCH   2  10
BRANCH   5  19
ATOM     19  C   UNL     1      -3.252   1.890   3.151  0.00  0.00    +0.213 C 
BRANCH  19  20
ATOM     20  C   UNL     1      -2.188   2.438   2.235  0.00  0.00    +0.232 C 
ATOM     21  O   UNL     1      -1.286   3.111   2.688  0.00  0.00    -0.274 OA
ATOM     22  N   UNL     1      -2.239   2.181   0.913  0.00  0.00    -0.303 N 
ATOM     23  H   UNL     1      -2.961   1.643   0.552  0.00  0.00    +0.150 HD
BRANCH  22  24
ATOM     24  C   UNL     1      -1.206   2.714   0.023  0.00  0.00    +0.140 C 
BRANCH  24  25
ATOM     25  C   UNL     1      -1.760   2.838  -1.373  0.00  0.00    -0.022 A 
ATOM     26  C   UNL     1      -2.582   1.849  -1.881  0.00  0.00    +0.006 A 
ATOM     27  C   UNL     1      -3.095   1.966  -3.159  0.00  0.00    +0.000 A 
ATOM     28  C   UNL     1      -2.777   3.066  -3.933  0.00  0.00    +0.000 A 
ATOM     29  C   UNL     1      -1.951   4.053  -3.428  0.00  0.00    +0.000 A 
ATOM     30  C   UNL     1      -1.443   3.939  -2.147  0.00  0.00    +0.006 A 
ENDBRANCH  24  25
BRANCH  24  31
ATOM     31  C   UNL     1      -0.022   1.781   0.012  0.00  0.00    +0.014 A 
ATOM     32  C   UNL     1       1.300   2.079   0.001  0.00  0.00    +0.013 A 
ATOM     33  C   UNL     1       2.220   1.048  -0.013  0.00  0.00    +0.008 A 
ATOM     34  C   UNL     1       1.773  -0.232  -0.016  0.00  0.00    +0.045 A 
ATOM     35  S   UNL     1       0.002  -0.004   0.002  0.00  0.00    -0.099 S 
ENDBRANCH  24  31
ENDBRANCH  22  24
ENDBRANCH  19  20
ENDBRANCH   5  19
TORSDOF 6
