REMARK  Name = ZINC39665851
REMARK  10 active torsions:
REMARK  status: ('A' for Active; 'I' for Inactive)
REMARK    1  A    between atoms: C_1  and  C_2
REMARK    2  A    between atoms: C_6  and  C_7
REMARK    3  A    between atoms: C_11  and  C_20
REMARK    4  A    between atoms: N_22  and  C_23
REMARK    5  A    between atoms: C_23  and  C_24
REMARK    6  A    between atoms: C_24  and  C_26
REMARK    7  A    between atoms: C_24  and  O_27
REMARK    8  A    between atoms: O_27  and  C_28
REMARK    9  A    between atoms: C_31  and  O_34
REMARK   10  A    between atoms: O_34  and  C_35
REMARK                            x       y       z     vdW  Elec       q    Type
REMARK                         _______ _______ _______ _____ _____    ______ ____
ROOT
ATOM      1  C   UNL     1       0.068  -0.299   2.371  0.00  0.00    +0.254 C 
ATOM      2  O   UNL     1       0.030  -0.683   1.217  0.00  0.00    -0.269 OA
ATOM      3  N   UNL     1       0.159  -1.193   3.376  0.00  0.00    -0.296 N 
ATOM      4  C   UNL     1       0.310  -2.664   3.273  0.00  0.00    +0.121 C 
ATOM      5  C   UNL     1       1.298  -3.035   4.401  0.00  0.00    +0.100 C 
ATOM      6  C   UNL     1       1.173  -1.893   5.423  0.00  0.00    -0.004 C 
ATOM      7  C   UNL     1       0.135  -0.927   4.834  0.00  0.00    +0.115 C 
ATOM      8  C   UNL     1       2.513  -1.182   5.587  0.00  0.00    -0.010 C 
ATOM      9  C   UNL     1       2.378  -0.087   6.650  0.00  0.00    -0.082 C 
ATOM     10  N   UNL     1       1.961  -0.688   7.923  0.00  0.00    +0.379 N 
ATOM     11  C   UNL     1       0.630  -1.290   7.780  0.00  0.00    -0.082 C 
ATOM     12  C   UNL     1       0.691  -2.434   6.765  0.00  0.00    -0.010 C 
ATOM     13  H   UNL     1       2.624  -1.401   8.190  0.00  0.00    -0.086 HD
ATOM     14  H   UNL     1       1.932   0.025   8.636  0.00  0.00    -0.086 HD
ENDROOT
BRANCH   1  20
ATOM     15  C   UNL     1       0.159   2.028   0.302  0.00  0.00    +0.045 C 
ATOM     16  C   UNL     1       0.053   2.211   1.795  0.00  0.00    -0.031 A 
ATOM     17  C   UNL     1      -0.019   3.454   2.375  0.00  0.00    +0.011 A 
ATOM     18  C   UNL     1      -0.113   3.547   3.725  0.00  0.00    +0.046 A 
ATOM     19  S   UNL     1      -0.106   1.951   4.249  0.00  0.00    -0.092 S 
ATOM     20  C   UNL     1       0.017   1.135   2.669  0.00  0.00    +0.077 A 
ENDBRANCH   1  20
BRANCH   5  21
ATOM     21  C   UNL     1       2.704  -3.110   3.863  0.00  0.00    +0.218 C 
ATOM     22  O   UNL     1       3.055  -2.359   2.978  0.00  0.00    -0.275 OA
ATOM     23  N   UNL     1       3.571  -4.011   4.367  0.00  0.00    -0.312 N 
ATOM     24  H   UNL     1       3.289  -4.611   5.075  0.00  0.00    +0.149 HD
BRANCH  23  25
ATOM     25  C   UNL     1       4.937  -4.084   3.844  0.00  0.00    +0.148 C 
BRANCH  25  26
ATOM     26  C   UNL     1       5.707  -5.181   4.581  0.00  0.00    +0.187 C 
ATOM     27  C   UNL     1       7.168  -5.175   4.124  0.00  0.00    +0.053 C 
BRANCH  26  28
ATOM     28  O   UNL     1       5.122  -6.452   4.289  0.00  0.00    -0.488 OA
BRANCH  28  29
ATOM     29  C   UNL     1       5.327  -7.449   5.191  0.00  0.00    +0.121 A 
ATOM     30  C   UNL     1       4.865  -8.729   4.927  0.00  0.00    +0.049 A 
ATOM     31  C   UNL     1       5.074  -9.741   5.844  0.00  0.00    +0.049 A 
ATOM     32  C   UNL     1       5.745  -9.477   7.028  0.00  0.00    +0.120 A 
ATOM     33  C   UNL     1       6.208  -8.196   7.292  0.00  0.00    +0.049 A 
ATOM     34  C   UNL     1       6.004  -7.185   6.373  0.00  0.00    +0.049 A 
BRANCH  32  35
ATOM     35  O   UNL     1       5.949 -10.473   7.931  0.00  0.00    -0.495 OA
ATOM     36  C   UNL     1       6.648 -10.129   9.129  0.00  0.00    +0.277 C 
ENDBRANCH  32  35
ENDBRANCH  28  29
ENDBRANCH  26  28
ENDBRANCH  25  26
ENDBRANCH  23  25
ENDBRANCH   5  21
TORSDOF 7
