REMARK  Name = ZINC13432992
REMARK  19 active torsions:
REMARK  status: ('A' for Active; 'I' for Inactive)
REMARK    1  A    between atoms: C_1  and  C_2
REMARK    2  A    between atoms: C_3  and  C_37
REMARK    3  A    between atoms: C_4  and  O_36
REMARK    4  A    between atoms: C_5  and  C_10
REMARK    5  A    between atoms: C_6  and  O_9
REMARK    6  A    between atoms: C_10  and  C_11
REMARK    7  A    between atoms: C_12  and  C_13
REMARK    8  A    between atoms: C_12  and  C_14
REMARK    9  A    between atoms: C_14  and  C_16
REMARK   10  A    between atoms: C_14  and  O_29
REMARK   11  A    between atoms: C_16  and  C_17
REMARK   12  A    between atoms: C_17  and  C_28
REMARK   13  A    between atoms: C_18  and  C_27
REMARK   14  A    between atoms: C_24  and  C_26
REMARK   15  A    between atoms: O_29  and  C_30
REMARK   16  A    between atoms: C_30  and  C_32
REMARK   17  A    between atoms: C_32  and  C_33
REMARK   18  A    between atoms: C_33  and  C_34
REMARK   19  A    between atoms: C_33  and  C_35
REMARK                            x       y       z     vdW  Elec       q    Type
REMARK                         _______ _______ _______ _____ _____    ______ ____
ROOT
ATOM      1  C   UNL     1      -2.230   0.625  -1.481  0.00  0.00    +0.203 C 
ENDROOT
BRANCH   1   3
ATOM      2  C   UNL     1      -4.052   2.165  -0.961  0.00  0.00    -0.019 C 
ATOM      3  C   UNL     1      -3.110   1.806  -1.798  0.00  0.00    -0.036 C 
ATOM      4  C   UNL     1      -2.907   2.575  -3.079  0.00  0.00    +0.042 C 
BRANCH   2   5
ATOM      5  C   UNL     1      -5.008   3.270  -1.331  0.00  0.00    +0.069 C 
BRANCH   5  10
ATOM      6  C   UNL     1     -10.456   1.333  -0.909  0.00  0.00    +0.046 C 
ATOM      7  C   UNL     1      -9.041   1.838  -1.014  0.00  0.00    -0.015 A 
ATOM      8  C   UNL     1      -8.424   2.431   0.097  0.00  0.00    +0.060 A 
ATOM      9  C   UNL     1      -7.103   2.900  -0.008  0.00  0.00    +0.134 A 
ATOM     10  C   UNL     1      -6.424   2.771  -1.208  0.00  0.00    +0.041 A 
ATOM     11  C   UNL     1      -7.051   2.187  -2.299  0.00  0.00    +0.142 A 
ATOM     12  C   UNL     1      -8.359   1.718  -2.190  0.00  0.00    +0.086 A 
ATOM     13 CL   UNL     1      -9.128   0.981  -3.562  0.00  0.00    -0.079 Cl
BRANCH  11  14
ATOM     14  O   UNL     1      -6.386   2.067  -3.475  0.00  0.00    -0.505 OA
ATOM     15  H   UNL     1      -5.892   1.240  -3.565  0.00  0.00    +0.292 HD
ENDBRANCH  11  14
BRANCH   9  16
ATOM     16  O   UNL     1      -6.496   3.476   1.060  0.00  0.00    -0.506 OA
ATOM     17  H   UNL     1      -6.622   4.434   1.114  0.00  0.00    +0.292 HD
ENDBRANCH   9  16
BRANCH   8  18
ATOM     18  C   UNL     1      -9.153   2.563   1.361  0.00  0.00    +0.262 C 
ATOM     19  O   UNL     1      -8.617   3.077   2.320  0.00  0.00    -0.296 OA
ENDBRANCH   8  18
ENDBRANCH   5  10
ENDBRANCH   2   5
ENDBRANCH   1   3
BRANCH   1  20
ATOM     20  C   UNL     1      -2.476  -0.484  -2.507  0.00  0.00    +0.056 C 
BRANCH  20  21
ATOM     21  C   UNL     1      -1.710  -1.742  -2.091  0.00  0.00    -0.017 C 
ATOM     22  C   UNL     1      -0.207  -1.467  -2.152  0.00  0.00    -0.007 C 
ATOM     23  C   UNL     1       0.567  -2.745  -1.824  0.00  0.00    +0.011 C 
ATOM     24  C   UNL     1       0.264  -3.169  -0.383  0.00  0.00    +0.075 C 
ATOM     25  C   UNL     1      -1.236  -3.290  -0.224  0.00  0.00    +0.137 C 
ATOM     26  O   UNL     1      -1.730  -4.289   0.240  0.00  0.00    -0.297 OA
ATOM     27  C   UNL     1      -2.100  -2.128  -0.660  0.00  0.00    +0.058 C 
ATOM     28  C   UNL     1      -3.573  -2.539  -0.622  0.00  0.00    +0.016 C 
ATOM     29  C   UNL     1       0.167  -0.993  -3.558  0.00  0.00    +0.008 C 
ATOM     30  C   UNL     1      -2.058  -2.889  -3.042  0.00  0.00    +0.012 C 
ENDBRANCH  20  21
ENDBRANCH   1  20
BRANCH   1  31
ATOM     31  O   UNL     1      -0.837   1.031  -1.532  0.00  0.00    -0.457 OA
BRANCH  31  32
ATOM     32  C   UNL     1      -0.177   1.089  -0.365  0.00  0.00    +0.308 C 
ATOM     33  O   UNL     1      -0.748   0.825   0.667  0.00  0.00    -0.251 OA
BRANCH  32  34
ATOM     34  C   UNL     1       1.278   1.484  -0.341  0.00  0.00    +0.123 C 
BRANCH  34  35
ATOM     35  C   UNL     1       1.800   1.419   1.095  0.00  0.00    -0.007 C 
ATOM     36  C   UNL     1       3.314   1.640   1.098  0.00  0.00    +0.008 C 
ATOM     37  C   UNL     1       1.125   2.507   1.933  0.00  0.00    +0.008 C 
ENDBRANCH  34  35
ENDBRANCH  32  34
ENDBRANCH  31  32
ENDBRANCH   1  31
TORSDOF 12
