REMARK  Name = ZINC13065272
REMARK  13 active torsions:
REMARK  status: ('A' for Active; 'I' for Inactive)
REMARK    1  A    between atoms: C_1  and  C_2
REMARK    2  A    between atoms: C_2  and  C_3
REMARK    3  A    between atoms: C_3  and  C_5
REMARK    4  A    between atoms: C_3  and  N_72
REMARK    5  A    between atoms: N_9  and  C_10
REMARK    6  A    between atoms: C_10  and  C_11
REMARK    7  A    between atoms: C_18  and  C_19
REMARK    8  A    between atoms: C_18  and  N_72
REMARK    9  A    between atoms: C_19  and  C_20
REMARK   10  A    between atoms: C_26  and  C_27
REMARK   11  A    between atoms: C_26  and  N_72
REMARK   12  A    between atoms: C_30  and  C_40
REMARK   13  A    between atoms: C_33  and  C_39
REMARK                            x       y       z     vdW  Elec       q    Type
REMARK                         _______ _______ _______ _____ _____    ______ ____
ROOT
ATOM      1  N   UNL     1      -1.694  -0.838   0.589  0.00  0.00    +0.389 N 
ATOM      2  H   UNL     1      -0.793  -1.315   0.713  0.00  0.00    -0.080 HD
ENDROOT
BRANCH   1   3
ATOM      3  C   UNL     1      -2.730  -1.567   1.351  0.00  0.00    +0.003 C 
BRANCH   3   4
ATOM      4  C   UNL     1      -4.087  -0.952   1.118  0.00  0.00    +0.138 A 
ATOM      5  N   UNL     1      -4.461  -0.255   0.073  0.00  0.00    -0.115 NA
ATOM      6  N   UNL     1      -5.689   0.094   0.247  0.00  0.00    -0.023 NA
ATOM      7  N   UNL     1      -6.108  -0.362   1.376  0.00  0.00    -0.044 NA
ATOM      8  N   UNL     1      -5.150  -1.018   1.940  0.00  0.00    -0.226 N 
BRANCH   8   9
ATOM      9  C   UNL     1      -5.209  -1.701   3.235  0.00  0.00    +0.182 C 
BRANCH   9  10
ATOM     10  C   UNL     1      -4.953  -0.709   4.339  0.00  0.00    -0.026 A 
ATOM     11  C   UNL     1      -3.667  -0.514   4.808  0.00  0.00    +0.008 A 
ATOM     12  C   UNL     1      -3.430   0.400   5.818  0.00  0.00    +0.038 A 
ATOM     13  C   UNL     1      -4.483   1.113   6.367  0.00  0.00    +0.123 A 
ATOM     14  C   UNL     1      -5.771   0.912   5.900  0.00  0.00    +0.038 A 
ATOM     15  C   UNL     1      -6.004   0.002   4.887  0.00  0.00    +0.008 A 
ATOM     16  F   UNL     1      -4.253   2.002   7.357  0.00  0.00    -0.205 F 
ENDBRANCH   9  10
ENDBRANCH   8   9
ENDBRANCH   3   4
BRANCH   3  18
ATOM     17  C   UNL     1      -1.407  -3.683   1.233  0.00  0.00    +0.002 C 
ATOM     18  C   UNL     1      -2.747  -3.026   0.893  0.00  0.00    -0.011 C 
ENDBRANCH   3  18
ENDBRANCH   1   3
BRANCH   1  19
ATOM     19  C   UNL     1      -1.578   0.547   1.091  0.00  0.00    -0.073 C 
BRANCH  19  20
ATOM     20  C   UNL     1      -1.058   0.510   2.529  0.00  0.00    +0.016 C 
BRANCH  20  21
ATOM     21  C   UNL     1      -0.809   1.916   3.010  0.00  0.00    -0.049 A 
ATOM     22  C   UNL     1       0.431   2.499   2.828  0.00  0.00    +0.003 A 
ATOM     23  C   UNL     1       0.658   3.791   3.265  0.00  0.00    +0.000 A 
ATOM     24  C   UNL     1      -0.352   4.496   3.893  0.00  0.00    +0.000 A 
ATOM     25  C   UNL     1      -1.591   3.911   4.080  0.00  0.00    +0.000 A 
ATOM     26  C   UNL     1      -1.819   2.621   3.638  0.00  0.00    +0.003 A 
ENDBRANCH  20  21
ENDBRANCH  19  20
ENDBRANCH   1  19
BRANCH   1  27
ATOM     27  C   UNL     1      -2.038  -0.828  -0.849  0.00  0.00    -0.037 C 
BRANCH  27  28
ATOM     28  C   UNL     1      -0.790  -0.532  -1.641  0.00  0.00    +0.001 A 
ATOM     29  C   UNL     1      -0.046  -1.552  -2.134  0.00  0.00    +0.017 A 
ATOM     30  C   UNL     1       1.161  -1.231  -2.900  0.00  0.00    +0.002 A 
ATOM     31  C   UNL     1       1.968  -2.240  -3.434  0.00  0.00    -0.041 A 
ATOM     32  C   UNL     1       3.087  -1.908  -4.143  0.00  0.00    +0.004 A 
ATOM     33  C   UNL     1       3.430  -0.577  -4.339  0.00  0.00    +0.005 A 
ATOM     34  C   UNL     1       2.649   0.434  -3.822  0.00  0.00    -0.026 A 
ATOM     35  C   UNL     1       1.504   0.119  -3.096  0.00  0.00    +0.052 A 
ATOM     36  N   UNL     1       0.704   1.110  -2.568  0.00  0.00    -0.322 N 
ATOM     37  H   UNL     1       0.943   2.041  -2.705  0.00  0.00    +0.169 HD
ATOM     38  C   UNL     1      -0.401   0.806  -1.867  0.00  0.00    +0.251 A 
ATOM     39  O   UNL     1      -1.088   1.708  -1.419  0.00  0.00    -0.268 OA
ATOM     40  C   UNL     1       3.033   1.875  -4.042  0.00  0.00    +0.046 C 
ATOM     41  C   UNL     1       1.606  -3.689  -3.228  0.00  0.00    +0.044 C 
ENDBRANCH  27  28
ENDBRANCH   1  27
TORSDOF 10
