REMARK  Name = ZINC43188825
REMARK  12 active torsions:
REMARK  status: ('A' for Active; 'I' for Inactive)
REMARK    1  A    between atoms: C_1  and  C_2
REMARK    2  A    between atoms: C_2  and  C_3
REMARK    3  A    between atoms: C_2  and  C_4
REMARK    4  A    between atoms: C_2  and  N_21
REMARK    5  A    between atoms: C_4  and  N_5
REMARK    6  A    between atoms: N_8  and  C_9
REMARK    7  A    between atoms: C_9  and  C_10
REMARK    8  A    between atoms: C_13  and  S_16
REMARK    9  A    between atoms: S_16  and  N_19
REMARK   10  A    between atoms: N_19  and  C_20
REMARK   11  A    between atoms: N_21  and  C_22
REMARK   12  A    between atoms: N_21  and  C_23
REMARK                            x       y       z     vdW  Elec       q    Type
REMARK                         _______ _______ _______ _____ _____    ______ ____
ROOT
ATOM      1  N   UNL     1      -1.413  -1.998   0.005  0.00  0.00    -0.301 N 
ATOM      2  C   UNL     1      -2.571  -2.688   0.012  0.00  0.00    +0.300 C 
ATOM      3  O   UNL     1      -3.632  -2.095   0.025  0.00  0.00    -0.253 OA
ATOM      4  N   UNL     1      -2.553  -4.036   0.005  0.00  0.00    -0.295 N 
ATOM      5  H   UNL     1      -0.567  -2.472  -0.006  0.00  0.00    +0.150 HD
ATOM      6  H   UNL     1      -1.707  -4.509  -0.006  0.00  0.00    +0.151 HD
ENDROOT
BRANCH   1   7
ATOM      7  C   UNL     1      -1.433  -0.534   0.013  0.00  0.00    +0.093 C 
BRANCH   7   9
ATOM      8  C   UNL     1      -0.019   1.526   0.010  0.00  0.00    -0.008 C 
ATOM      9  C   UNL     1       0.002  -0.004   0.002  0.00  0.00    -0.056 C 
ATOM     10  C   UNL     1       0.742  -0.511   1.242  0.00  0.00    -0.008 C 
BRANCH   9  11
ATOM     11  N   UNL     1       0.690  -0.478  -1.207  0.00  0.00    +0.380 N 
ATOM     12  C   UNL     1      -0.021   0.009  -2.397  0.00  0.00    -0.096 C 
ATOM     13  C   UNL     1       2.068   0.031  -1.217  0.00  0.00    -0.096 C 
ATOM     14  H   UNL     1       0.703  -1.487  -1.212  0.00  0.00    -0.082 HD
ENDBRANCH   9  11
ENDBRANCH   7   9
ENDBRANCH   1   7
BRANCH   4  15
ATOM     15  C   UNL     1      -3.812  -4.785   0.013  0.00  0.00    +0.141 C 
BRANCH  15  16
ATOM     16  C   UNL     1      -3.516  -6.263   0.002  0.00  0.00    -0.030 A 
ATOM     17  C   UNL     1      -3.387  -6.933  -1.200  0.00  0.00    +0.007 A 
ATOM     18  C   UNL     1      -3.116  -8.289  -1.210  0.00  0.00    +0.029 A 
ATOM     19  C   UNL     1      -2.974  -8.974  -0.018  0.00  0.00    +0.105 A 
ATOM     20  C   UNL     1      -3.103  -8.304   1.184  0.00  0.00    +0.029 A 
ATOM     21  C   UNL     1      -3.369  -6.947   1.194  0.00  0.00    +0.007 A 
BRANCH  19  22
ATOM     22  S   UNL     1      -2.630 -10.702  -0.030  0.00  0.00    +0.058 S 
ATOM     23  O   UNL     1      -3.083 -11.216   1.214  0.00  0.00    -0.153 OA
ATOM     24  O   UNL     1      -3.097 -11.200  -1.276  0.00  0.00    -0.153 OA
BRANCH  22  25
ATOM     25  N   UNL     1      -0.982 -10.873  -0.041  0.00  0.00    -0.193 NA
ATOM     26  C   UNL     1      -0.192 -10.423   1.108  0.00  0.00    +0.127 C 
ATOM     27  H   UNL     1      -0.541 -11.272  -0.807  0.00  0.00    +0.148 HD
ENDBRANCH  22  25
ENDBRANCH  19  22
ENDBRANCH  15  16
ENDBRANCH   4  15
TORSDOF 7
