REMARK  Name = ZINC39669498
REMARK  4 active torsions:
REMARK  status: ('A' for Active; 'I' for Inactive)
REMARK    1  A    between atoms: C_9  and  C_12
REMARK    2  A    between atoms: C_16  and  C_25
REMARK    3  A    between atoms: N_27  and  C_28
REMARK    4  A    between atoms: C_28  and  C_29
REMARK                            x       y       z     vdW  Elec       q    Type
REMARK                         _______ _______ _______ _____ _____    ______ ____
ROOT
ATOM      1  C   UNL     1       4.585  -2.670  -0.073  0.00  0.00    +0.260 C 
ATOM      2  O   UNL     1       5.350  -1.972   0.558  0.00  0.00    -0.271 OA
ATOM      3  N   UNL     1       4.937  -3.929  -0.401  0.00  0.00    -0.297 N 
ATOM      4  C   UNL     1       4.148  -4.923  -1.166  0.00  0.00    +0.121 C 
ATOM      5  C   UNL     1       5.183  -5.634  -2.066  0.00  0.00    +0.100 C 
ATOM      6  C   UNL     1       6.528  -5.441  -1.346  0.00  0.00    -0.004 C 
ATOM      7  C   UNL     1       6.204  -4.631  -0.083  0.00  0.00    +0.115 C 
ATOM      8  C   UNL     1       7.495  -4.662  -2.232  0.00  0.00    -0.010 C 
ATOM      9  C   UNL     1       8.843  -4.533  -1.517  0.00  0.00    -0.082 C 
ATOM     10  N   UNL     1       9.378  -5.870  -1.232  0.00  0.00    +0.379 N 
ATOM     11  C   UNL     1       8.487  -6.579  -0.304  0.00  0.00    -0.082 C 
ATOM     12  C   UNL     1       7.124  -6.794  -0.968  0.00  0.00    -0.010 C 
ATOM     13  H   UNL     1       9.450  -6.393  -2.092  0.00  0.00    -0.086 HD
ATOM     14  H   UNL     1      10.293  -5.783  -0.816  0.00  0.00    -0.086 HD
ENDROOT
BRANCH   1  23
ATOM     15  C   UNL     1      -0.633   0.942  -0.211  0.00  0.00    +0.004 A 
ATOM     16  C   UNL     1       0.492   1.744  -0.177  0.00  0.00    +0.004 A 
ATOM     17  C   UNL     1       1.750   1.173  -0.143  0.00  0.00    +0.049 A 
ATOM     18  C   UNL     1       1.887  -0.207  -0.145  0.00  0.00    +0.163 A 
ATOM     19  C   UNL     1       0.756  -1.014  -0.182  0.00  0.00    +0.162 A 
ATOM     20  C   UNL     1      -0.504  -0.434  -0.213  0.00  0.00    +0.049 A 
ATOM     21  O   UNL     1       0.867  -2.370  -0.192  0.00  0.00    -0.484 OA
ATOM     22  C   UNL     1       2.127  -2.916   0.216  0.00  0.00    +0.283 C 
ATOM     23  C   UNL     1       3.241  -2.131  -0.490  0.00  0.00    +0.296 C 
ATOM     24  O   UNL     1       3.132  -0.756  -0.108  0.00  0.00    -0.473 OA
ENDBRANCH   1  23
BRANCH   5  25
ATOM     25  C   UNL     1       5.219  -4.994  -3.430  0.00  0.00    +0.218 C 
ATOM     26  O   UNL     1       4.965  -3.815  -3.553  0.00  0.00    -0.275 OA
ATOM     27  N   UNL     1       5.535  -5.732  -4.513  0.00  0.00    -0.315 N 
ATOM     28  H   UNL     1       5.738  -6.675  -4.414  0.00  0.00    +0.149 HD
BRANCH  27  29
ATOM     29  C   UNL     1       5.570  -5.110  -5.838  0.00  0.00    +0.109 C 
BRANCH  29  30
ATOM     30  C   UNL     1       5.952  -6.159  -6.884  0.00  0.00    +0.024 C 
ATOM     31  C   UNL     1       6.109  -5.486  -8.250  0.00  0.00    +0.008 C 
ATOM     32  C   UNL     1       6.523  -6.529  -9.290  0.00  0.00    +0.019 C 
ATOM     33  C   UNL     1       5.429  -7.596  -9.400  0.00  0.00    +0.108 C 
ATOM     34  N   UNL     1       5.170  -8.148  -8.063  0.00  0.00    -0.299 N 
ATOM     35  C   UNL     1       4.852  -7.223  -6.967  0.00  0.00    +0.113 C 
ATOM     36  C   UNL     1       5.224  -9.512  -7.841  0.00  0.00    +0.218 A 
ATOM     37  N   UNL     1       4.980  -9.979  -6.625  0.00  0.00    -0.223 NA
ATOM     38  C   UNL     1       5.022 -11.278  -6.379  0.00  0.00    +0.116 A 
ATOM     39  C   UNL     1       5.327 -12.153  -7.410  0.00  0.00    +0.039 A 
ATOM     40  C   UNL     1       5.577 -11.630  -8.669  0.00  0.00    +0.116 A 
ATOM     41  N   UNL     1       5.513 -10.321  -8.849  0.00  0.00    -0.223 NA
ENDBRANCH  29  30
ENDBRANCH  27  29
ENDBRANCH   5  25
TORSDOF 4
