REMARK  Name = ZINC39159612
REMARK  3 active torsions:
REMARK  status: ('A' for Active; 'I' for Inactive)
REMARK    1  A    between atoms: C_12  and  C_14
REMARK    2  A    between atoms: C_14  and  C_15
REMARK    3  A    between atoms: C_15  and  C_16
REMARK                            x       y       z     vdW  Elec       q    Type
REMARK                         _______ _______ _______ _____ _____    ______ ____
ROOT
ATOM      1  C   UNL     1      -0.017   1.400   0.010  0.00  0.00    +0.028 A 
ATOM      2  C   UNL     1       1.147   2.131   0.003  0.00  0.00    +0.029 A 
ATOM      3  C   UNL     1       2.370   1.475  -0.013  0.00  0.00    +0.066 A 
ATOM      4  C   UNL     1       2.408   0.076  -0.021  0.00  0.00    +0.088 A 
ATOM      5  C   UNL     1       1.208  -0.671  -0.013  0.00  0.00    +0.085 A 
ATOM      6  C   UNL     1       0.002  -0.004   0.002  0.00  0.00    +0.062 A 
ATOM      7  N   UNL     1      -1.139  -0.842   0.008  0.00  0.00    -0.271 N 
ATOM      8  H   UNL     1      -2.071  -0.573   0.018  0.00  0.00    +0.161 HD
ATOM      9  S   UNL     1      -0.528  -2.394  -0.007  0.00  0.00    +0.046 S 
ATOM     10  N   UNL     1       1.110  -2.080  -0.019  0.00  0.00    -0.270 N 
ATOM     11  N   UNL     1       3.717  -0.288  -0.035  0.00  0.00    -0.342 N 
ATOM     12  C   UNL     1       4.465   0.776  -0.036  0.00  0.00    +0.086 A 
ATOM     13  N   UNL     1       3.688   1.894  -0.023  0.00  0.00    -0.343 N 
ATOM     14  H   UNL     1       4.000   2.812  -0.021  0.00  0.00    +0.167 HD
ATOM     15  H   UNL     1       1.835  -2.723  -0.029  0.00  0.00    +0.162 HD
ATOM     16  H   UNL     1       4.043  -1.202  -0.043  0.00  0.00    +0.167 HD
ENDROOT
BRANCH  12  17
ATOM     17  C   UNL     1       5.972   0.772  -0.051  0.00  0.00    +0.080 C 
BRANCH  17  18
ATOM     18  C   UNL     1       6.468   0.778  -1.498  0.00  0.00    +0.082 C 
BRANCH  18  19
ATOM     19  C   UNL     1       7.975   0.775  -1.513  0.00  0.00    +0.109 A 
ATOM     20  N   UNL     1       8.734   1.643  -0.903  0.00  0.00    -0.230 NA
ATOM     21  H   UNL     1       8.435  -0.890  -2.684  0.00  0.00    +0.167 HD
ATOM     22  C   UNL     1      10.027   1.344  -1.125  0.00  0.00    +0.117 A 
ATOM     23  C   UNL     1      10.065   0.210  -1.929  0.00  0.00    +0.068 A 
ATOM     24  N   UNL     1       8.749  -0.138  -2.158  0.00  0.00    -0.342 N 
ATOM     25  C   UNL     1      11.293  -0.334  -2.325  0.00  0.00    +0.030 A 
ATOM     26  C   UNL     1      12.462   0.219  -1.942  0.00  0.00    +0.033 A 
ATOM     27  C   UNL     1      12.506   1.381  -1.118  0.00  0.00    +0.102 A 
ATOM     28  C   UNL     1      11.293   1.968  -0.692  0.00  0.00    +0.127 A 
ATOM     29  N   UNL     1      11.451   3.048   0.072  0.00  0.00    -0.189 NA
ATOM     30  S   UNL     1      13.043   3.248   0.201  0.00  0.00    +0.117 S 
ATOM     31  N   UNL     1      13.596   2.016  -0.676  0.00  0.00    -0.191 NA
ENDBRANCH  18  19
ENDBRANCH  17  18
ENDBRANCH  12  17
TORSDOF 3
