REMARK  Name = ZINC63964373
REMARK  6 active torsions:
REMARK  status: ('A' for Active; 'I' for Inactive)
REMARK    1  A    between atoms: C_1  and  C_2
REMARK    2  A    between atoms: C_4  and  C_8
REMARK    3  A    between atoms: C_5  and  C_7
REMARK    4  A    between atoms: N_10  and  N_11
REMARK    5  A    between atoms: C_12  and  C_14
REMARK    6  A    between atoms: C_14  and  C_20
REMARK                            x       y       z     vdW  Elec       q    Type
REMARK                         _______ _______ _______ _____ _____    ______ ____
ROOT
ATOM      1  N   UNL     1      -4.966  -3.572  -0.979  0.00  0.00    -0.233 N 
ATOM      2  C   UNL     1      -4.808  -4.481   0.003  0.00  0.00    +0.240 C 
ATOM      3  O   UNL     1      -3.947  -4.324   0.842  0.00  0.00    -0.273 OA
ATOM      4  H   UNL     1      -5.605  -3.733  -1.691  0.00  0.00    +0.173 HD
ENDROOT
BRANCH   2   5
ATOM      5  C   UNL     1      -5.701  -5.694   0.058  0.00  0.00    +0.073 C 
ATOM      6  C   UNL     1      -5.435  -6.466   1.352  0.00  0.00    +0.021 C 
ATOM      7  C   UNL     1      -5.726  -5.563   2.553  0.00  0.00    +0.001 C 
ATOM      8  C   UNL     1      -7.190  -5.120   2.515  0.00  0.00    +0.000 C 
ATOM      9  C   UNL     1      -7.456  -4.349   1.221  0.00  0.00    +0.001 C 
ATOM     10  C   UNL     1      -7.165  -5.252   0.020  0.00  0.00    +0.021 C 
BRANCH   5  11
ATOM     11  C   UNL     1      -5.414  -6.583  -1.125  0.00  0.00    -0.029 A 
ATOM     12  C   UNL     1      -6.386  -6.787  -2.086  0.00  0.00    +0.008 A 
ATOM     13  C   UNL     1      -6.128  -7.601  -3.173  0.00  0.00    +0.050 A 
ATOM     14  C   UNL     1      -4.893  -8.216  -3.301  0.00  0.00    +0.166 A 
ATOM     15  C   UNL     1      -3.913  -8.010  -2.333  0.00  0.00    +0.167 A 
ATOM     16  C   UNL     1      -4.177  -7.188  -1.249  0.00  0.00    +0.054 A 
ATOM     17  O   UNL     1      -2.799  -8.716  -2.683  0.00  0.00    -0.453 OA
ATOM     18  C   UNL     1      -3.243  -9.678  -3.658  0.00  0.00    +0.466 C 
ATOM     19  O   UNL     1      -4.392  -9.050  -4.258  0.00  0.00    -0.453 OA
ENDBRANCH   5  11
ENDBRANCH   2   5
BRANCH   1  22
ATOM     20  C   UNL     1      -4.367  -1.484  -1.953  0.00  0.00    +0.263 C 
ATOM     21  O   UNL     1      -5.168  -1.686  -2.845  0.00  0.00    -0.269 OA
ATOM     22  N   UNL     1      -4.209  -2.394  -0.971  0.00  0.00    -0.230 N 
ATOM     23  H   UNL     1      -3.570  -2.232  -0.259  0.00  0.00    +0.173 HD
BRANCH  20  27
ATOM     24  C   UNL     1      -1.052   2.169  -0.649  0.00  0.00    +0.086 C 
ATOM     25  C   UNL     1      -2.105   1.353  -1.355  0.00  0.00    +0.103 A 
ATOM     26  C   UNL     1      -2.564   0.159  -0.951  0.00  0.00    +0.057 A 
ATOM     27  C   UNL     1      -3.570  -0.244  -1.945  0.00  0.00    +0.079 A 
ATOM     28  C   UNL     1      -3.611   0.768  -2.857  0.00  0.00    +0.114 A 
ATOM     29  O   UNL     1      -2.737   1.708  -2.484  0.00  0.00    -0.464 OA
ATOM     30  C   UNL     1      -4.495   0.821  -4.077  0.00  0.00    +0.087 C 
ENDBRANCH  20  27
ENDBRANCH   1  22
TORSDOF 4
