REMARK  Name = ZINC36057829
REMARK  8 active torsions:
REMARK  status: ('A' for Active; 'I' for Inactive)
REMARK    1  A    between atoms: C_1  and  C_2
REMARK    2  A    between atoms: C_6  and  N_8
REMARK    3  A    between atoms: C_9  and  C_11
REMARK    4  A    between atoms: C_11  and  C_40
REMARK    5  A    between atoms: C_16  and  C_38
REMARK    6  A    between atoms: C_19  and  C_30
REMARK    7  A    between atoms: C_21  and  C_23
REMARK    8  A    between atoms: C_30  and  C_32
REMARK                            x       y       z     vdW  Elec       q    Type
REMARK                         _______ _______ _______ _____ _____    ______ ____
ROOT
ATOM      1  C   UNL     1       0.836  -4.347   3.580  0.00  0.00    +0.164 C 
ATOM      2  C   UNL     1       1.811  -4.777   4.688  0.00  0.00    +0.126 C 
ATOM      3  C   UNL     1       1.270  -4.426   6.051  0.00  0.00    -0.001 C 
ATOM      4  C   UNL     1       1.514  -5.242   7.074  0.00  0.00    +0.018 C 
ATOM      5  C   UNL     1       2.305  -6.477   6.899  0.00  0.00    +0.065 C 
ATOM      6  C   UNL     1       2.477  -6.987   5.633  0.00  0.00    +0.090 C 
ATOM      7  N   UNL     1       1.927  -6.248   4.616  0.00  0.00    -0.315 N 
ATOM      8  C   UNL     1       1.289  -6.705   3.380  0.00  0.00    +0.154 C 
ATOM      9  C   UNL     1       0.151  -5.672   3.152  0.00  0.00    +0.078 C 
ENDROOT
BRANCH   9  10
ATOM     10  C   UNL     1      -0.253  -5.626   1.701  0.00  0.00    -0.040 A 
ATOM     11  C   UNL     1      -0.853  -6.726   1.116  0.00  0.00    +0.005 A 
ATOM     12  C   UNL     1      -1.224  -6.684  -0.215  0.00  0.00    +0.020 A 
ATOM     13  C   UNL     1      -0.994  -5.542  -0.962  0.00  0.00    +0.041 A 
ATOM     14  C   UNL     1      -0.393  -4.442  -0.375  0.00  0.00    +0.020 A 
ATOM     15  C   UNL     1      -0.028  -4.483   0.957  0.00  0.00    +0.005 A 
ATOM     16 CL   UNL     1      -1.459  -5.489  -2.633  0.00  0.00    -0.084 Cl
ENDBRANCH   9  10
BRANCH   1  18
ATOM     17  N   UNL     1       2.130  -2.513   2.540  0.00  0.00    -0.284 N 
ATOM     18  C   UNL     1       1.585  -3.740   2.422  0.00  0.00    +0.240 C 
ATOM     19  O   UNL     1       1.698  -4.357   1.383  0.00  0.00    -0.274 OA
ATOM     20  H   UNL     1       2.100  -2.049   3.392  0.00  0.00    +0.155 HD
BRANCH  17  26
ATOM     21  C   UNL     1       3.155   1.551  -0.029  0.00  0.00    +0.044 C 
ATOM     22  C   UNL     1       3.251   0.060   0.165  0.00  0.00    -0.049 A 
ATOM     23  C   UNL     1       3.942  -0.713  -0.751  0.00  0.00    +0.003 A 
ATOM     24  C   UNL     1       4.032  -2.082  -0.576  0.00  0.00    +0.002 A 
ATOM     25  C   UNL     1       3.433  -2.682   0.514  0.00  0.00    +0.023 A 
ATOM     26  C   UNL     1       2.739  -1.909   1.435  0.00  0.00    +0.034 A 
ATOM     27  C   UNL     1       2.654  -0.533   1.260  0.00  0.00    +0.026 A 
ENDBRANCH  17  26
ENDBRANCH   1  18
BRANCH   8  28
ATOM     28  C   UNL     1       2.270  -6.679   2.236  0.00  0.00    +0.184 C 
ATOM     29  O   UNL     1       3.099  -5.796   2.168  0.00  0.00    -0.290 OA
BRANCH  28  30
ATOM     30  C   UNL     1       2.223  -7.725   1.202  0.00  0.00    +0.019 A 
ATOM     31  C   UNL     1       1.417  -8.854   1.380  0.00  0.00    +0.011 A 
ATOM     32  C   UNL     1       1.378  -9.829   0.406  0.00  0.00    +0.001 A 
ATOM     33  C   UNL     1       2.133  -9.693  -0.746  0.00  0.00    +0.000 A 
ATOM     34  C   UNL     1       2.933  -8.578  -0.929  0.00  0.00    +0.001 A 
ATOM     35  C   UNL     1       2.978  -7.592   0.033  0.00  0.00    +0.011 A 
ENDBRANCH  28  30
ENDBRANCH   8  28
BRANCH   5  36
ATOM     36  C   UNL     1       2.885  -7.135   8.031  0.00  0.00    +0.100 C 
ATOM     37  N   UNL     1       3.344  -7.657   8.930  0.00  0.00    -0.191 NA
ENDBRANCH   5  36
BRANCH   1  38
ATOM     38  C   UNL     1      -0.160  -3.397   4.104  0.00  0.00    +0.082 C 
ATOM     39  N   UNL     1      -0.928  -2.664   4.508  0.00  0.00    -0.195 NA
ENDBRANCH   1  38
TORSDOF 7
