REMARK  Name = ZINC02367911
REMARK  9 active torsions:
REMARK  status: ('A' for Active; 'I' for Inactive)
REMARK    1  A    between atoms: C_1  and  C_2
REMARK    2  A    between atoms: C_2  and  C_31
REMARK    3  A    between atoms: C_11  and  C_12
REMARK    4  A    between atoms: C_11  and  N_57
REMARK    5  A    between atoms: C_12  and  C_13
REMARK    6  A    between atoms: N_15  and  C_16
REMARK    7  A    between atoms: C_25  and  C_26
REMARK    8  A    between atoms: C_26  and  O_28
REMARK    9  A    between atoms: O_28  and  C_29
REMARK                            x       y       z     vdW  Elec       q    Type
REMARK                         _______ _______ _______ _____ _____    ______ ____
ROOT
ATOM      1  C   UNL     1      -0.578   1.237  -2.668  0.00  0.00    +0.215 C 
ATOM      2  O   UNL     1      -0.427   0.033  -2.654  0.00  0.00    -0.276 OA
ATOM      3  N   UNL     1      -0.302   1.937  -3.785  0.00  0.00    -0.283 N 
ATOM      4  H   UNL     1      -0.513   2.883  -3.829  0.00  0.00    +0.155 HD
ENDROOT
BRANCH   3   5
ATOM      5  C   UNL     1       0.285   1.304  -4.876  0.00  0.00    +0.073 A 
ATOM      6  C   UNL     1       1.603   0.667  -4.912  0.00  0.00    +0.023 A 
ATOM      7  C   UNL     1       2.609   0.482  -3.959  0.00  0.00    +0.031 A 
ATOM      8  C   UNL     1       3.756  -0.178  -4.301  0.00  0.00    +0.042 A 
ATOM      9  C   UNL     1       3.927  -0.674  -5.588  0.00  0.00    +0.022 A 
ATOM     10  C   UNL     1       2.946  -0.509  -6.540  0.00  0.00    +0.028 A 
ATOM     11  C   UNL     1       1.769   0.161  -6.215  0.00  0.00    +0.049 A 
ATOM     12  N   UNL     1       0.640   0.471  -6.937  0.00  0.00    -0.348 N 
ATOM     13  H   UNL     1       0.494   0.242  -7.869  0.00  0.00    +0.166 HD
ATOM     14  C   UNL     1      -0.258   1.160  -6.136  0.00  0.00    +0.147 A 
ATOM     15 CL   UNL     1       5.008  -0.400  -3.119  0.00  0.00    -0.084 Cl
BRANCH  14  16
ATOM     16  C   UNL     1      -1.528   1.640  -6.546  0.00  0.00    +0.357 C 
ATOM     17  O   UNL     1      -2.298   2.102  -5.725  0.00  0.00    -0.243 OA
BRANCH  16  18
ATOM     18  O   UNL     1      -1.884   1.583  -7.846  0.00  0.00    -0.463 OA
ATOM     19  C   UNL     1      -3.178   2.084  -8.188  0.00  0.00    +0.280 C 
ENDBRANCH  16  18
ENDBRANCH  14  16
ENDBRANCH   3   5
BRANCH   1  20
ATOM     20  C   UNL     1      -1.075   1.948  -1.436  0.00  0.00    +0.077 C 
BRANCH  20  21
ATOM     21  C   UNL     1      -1.310   0.929  -0.318  0.00  0.00    -0.069 C 
BRANCH  21  31
ATOM     22  C   UNL     1       1.109  -0.262   1.763  0.00  0.00    +0.011 C 
ATOM     23  C   UNL     1       0.026   0.006   2.827  0.00  0.00    -0.036 C 
ATOM     24  C   UNL     1       0.199   1.414   3.355  0.00  0.00    +0.008 C 
ATOM     25  C   UNL     1      -0.888   2.401   2.957  0.00  0.00    -0.029 C 
ATOM     26  C   UNL     1      -2.268   1.724   3.187  0.00  0.00    -0.014 C 
ATOM     27  C   UNL     1      -2.279   0.765   1.960  0.00  0.00    -0.068 C 
ATOM     28  C   UNL     1      -1.327  -0.378   2.269  0.00  0.00    -0.009 C 
ATOM     29  C   UNL     1      -0.859   2.607   1.422  0.00  0.00    -0.075 C 
ATOM     30  C   UNL     1       0.331  -0.963   3.999  0.00  0.00    +0.011 C 
ATOM     31  N   UNL     1      -1.847   1.675   0.872  0.00  0.00    +0.382 N 
ATOM     32  H   UNL     1      -2.663   2.214   0.560  0.00  0.00    -0.081 HD
ENDBRANCH  21  31
ENDBRANCH  20  21
ENDBRANCH   1  20
TORSDOF 6
