REMARK  Name = ZINC27521087
REMARK  8 active torsions:
REMARK  status: ('A' for Active; 'I' for Inactive)
REMARK    1  A    between atoms: C_1  and  C_2
REMARK    2  A    between atoms: C_4  and  C_32
REMARK    3  A    between atoms: C_6  and  N_8
REMARK    4  A    between atoms: C_9  and  C_11
REMARK    5  A    between atoms: C_11  and  N_22
REMARK    6  A    between atoms: C_12  and  C_13
REMARK    7  A    between atoms: C_17  and  N_19
REMARK    8  A    between atoms: C_23  and  C_25
REMARK                            x       y       z     vdW  Elec       q    Type
REMARK                         _______ _______ _______ _____ _____    ______ ____
ROOT
ATOM      1  C   UNL     1      -1.411   6.400   0.236  0.00  0.00    +0.097 C 
ATOM      2  C   UNL     1      -0.401   5.500   0.224  0.00  0.00    +0.036 C 
ENDROOT
BRANCH   2   3
ATOM      3  C   UNL     1      -0.654   4.106   0.622  0.00  0.00    -0.021 A 
ATOM      4  C   UNL     1      -1.756   3.792   1.425  0.00  0.00    +0.008 A 
ATOM      5  C   UNL     1      -1.989   2.483   1.788  0.00  0.00    +0.003 A 
ATOM      6  C   UNL     1      -1.130   1.482   1.370  0.00  0.00    +0.033 A 
ATOM      7  C   UNL     1      -0.038   1.783   0.575  0.00  0.00    +0.127 A 
ATOM      8  C   UNL     1       0.206   3.087   0.199  0.00  0.00    +0.040 A 
BRANCH   7   9
ATOM      9  N   UNL     1       0.870   0.704   0.128  0.00  0.00    +0.056 N 
ATOM     10  O   UNL     1       0.656  -0.449   0.460  0.00  0.00    -0.126 OA
ATOM     11  O   UNL     1       1.832   0.968  -0.571  0.00  0.00    -0.126 OA
ENDBRANCH   7   9
ENDBRANCH   2   3
BRANCH   1  13
ATOM     12  N   UNL     1       0.139   8.235  -0.201  0.00  0.00    -0.280 N 
ATOM     13  C   UNL     1      -1.127   7.825   0.014  0.00  0.00    +0.262 C 
ATOM     14  O   UNL     1      -2.035   8.635   0.025  0.00  0.00    -0.268 OA
ATOM     15  H   UNL     1       0.947   7.495  -0.297  0.00  0.00    +0.155 HD
BRANCH  12  21
ATOM     16  C   UNL     1       3.141  12.011   0.741  0.00  0.00    +0.044 C 
ATOM     17  C   UNL     1       1.873  11.458   0.145  0.00  0.00    -0.048 A 
ATOM     18  C   UNL     1       0.989  12.301  -0.504  0.00  0.00    +0.006 A 
ATOM     19  C   UNL     1      -0.176  11.797  -1.052  0.00  0.00    -0.048 A 
ATOM     20  C   UNL     1      -0.461  10.450  -0.954  0.00  0.00    +0.026 A 
ATOM     21  C   UNL     1       0.424   9.600  -0.303  0.00  0.00    +0.034 A 
ATOM     22  C   UNL     1       1.591  10.110   0.252  0.00  0.00    +0.026 A 
ATOM     23  C   UNL     1      -1.136  12.720  -1.758  0.00  0.00    +0.044 C 
ENDBRANCH  12  21
ENDBRANCH   1  13
BRANCH   1  24
ATOM     24  N   UNL     1      -2.724   5.975   0.460  0.00  0.00    -0.277 N 
ATOM     25  C   UNL     1      -3.447   6.519   1.459  0.00  0.00    +0.249 C 
ATOM     26  O   UNL     1      -2.930   7.311   2.222  0.00  0.00    -0.270 OA
ATOM     27  H   UNL     1      -3.167   5.198  -0.180  0.00  0.00    +0.155 HD
BRANCH  25  28
ATOM     28  C   UNL     1      -4.868   6.152   1.626  0.00  0.00    +0.051 A 
ATOM     29  C   UNL     1      -5.437   5.162   0.821  0.00  0.00    +0.014 A 
ATOM     30  C   UNL     1      -6.763   4.822   0.984  0.00  0.00    +0.001 A 
ATOM     31  C   UNL     1      -7.534   5.464   1.938  0.00  0.00    +0.001 A 
ATOM     32  C   UNL     1      -6.979   6.448   2.736  0.00  0.00    +0.016 A 
ATOM     33  C   UNL     1      -5.651   6.796   2.586  0.00  0.00    +0.030 A 
ATOM     34 BR   UNL     1      -4.895   8.143   3.678  0.00  0.00    -0.050 Br
ENDBRANCH  25  28
ENDBRANCH   1  24
TORSDOF 6
