REMARK  Name = ZINC63270523
REMARK  10 active torsions:
REMARK  status: ('A' for Active; 'I' for Inactive)
REMARK    1  A    between atoms: C_7  and  C_10
REMARK    2  A    between atoms: C_10  and  C_11
REMARK    3  A    between atoms: C_11  and  N_12
REMARK    4  A    between atoms: C_13  and  C_15
REMARK    5  A    between atoms: C_20  and  N_21
REMARK    6  A    between atoms: C_22  and  C_24
REMARK    7  A    between atoms: N_26  and  C_27
REMARK    8  A    between atoms: C_27  and  C_28
REMARK    9  A    between atoms: C_28  and  C_29
REMARK   10  A    between atoms: C_29  and  O_30
REMARK                            x       y       z     vdW  Elec       q    Type
REMARK                         _______ _______ _______ _____ _____    ______ ____
ROOT
ATOM      1  C   UNL     1      -1.731  -6.540  -2.622  0.00  0.00    +0.058 A 
ATOM      2  C   UNL     1      -2.161  -7.098  -1.416  0.00  0.00    +0.015 A 
ATOM      3  C   UNL     1      -3.018  -8.177  -1.424  0.00  0.00    +0.001 A 
ATOM      4  C   UNL     1      -3.458  -8.713  -2.624  0.00  0.00    +0.002 A 
ATOM      5  C   UNL     1      -3.042  -8.173  -3.824  0.00  0.00    +0.024 A 
ATOM      6  C   UNL     1      -2.182  -7.081  -3.835  0.00  0.00    +0.046 A 
ENDROOT
BRANCH   1   8
ATOM      7  N   UNL     1      -0.462  -4.806  -1.455  0.00  0.00    -0.311 N 
ATOM      8  C   UNL     1      -0.814  -5.385  -2.620  0.00  0.00    +0.246 C 
ATOM      9  O   UNL     1      -0.374  -4.956  -3.669  0.00  0.00    -0.270 OA
ATOM     10  H   UNL     1      -0.813  -5.148  -0.618  0.00  0.00    +0.149 HD
BRANCH   7  11
ATOM     11  C   UNL     1       0.449  -3.659  -1.453  0.00  0.00    +0.109 C 
BRANCH  11  12
ATOM     12  C   UNL     1       0.683  -3.195  -0.014  0.00  0.00    +0.052 C 
BRANCH  12  19
ATOM     13  C   UNL     1      -0.037   1.336   0.036  0.00  0.00    +0.001 A 
ATOM     14  C   UNL     1       1.143   2.093   0.031  0.00  0.00    +0.002 A 
ATOM     15  C   UNL     1       2.369   1.530   0.013  0.00  0.00    +0.026 A 
ATOM     16  C   UNL     1       2.511   0.115  -0.001  0.00  0.00    +0.043 A 
ATOM     17  N   UNL     1       3.571  -0.655  -0.019  0.00  0.00    -0.380 N 
ATOM     18  C   UNL     1       3.132  -2.055  -0.028  0.00  0.00    +0.144 C 
ATOM     19  C   UNL     1       1.620  -2.015  -0.012  0.00  0.00    -0.040 C 
ATOM     20  C   UNL     1       1.280  -0.706   0.004  0.00  0.00    -0.001 A 
ATOM     21  C   UNL     1      -0.015  -0.016   0.024  0.00  0.00    +0.010 A 
ATOM     22  H   UNL     1       4.492  -0.351  -0.026  0.00  0.00    +0.160 HD
ENDBRANCH  12  19
ENDBRANCH  11  12
ENDBRANCH   7  11
ENDBRANCH   1   8
BRANCH   6  23
ATOM     23  N   UNL     1      -1.767  -6.531  -5.043  0.00  0.00    -0.277 N 
ATOM     24  C   UNL     1      -2.609  -6.500  -6.095  0.00  0.00    +0.303 C 
ATOM     25  O   UNL     1      -3.759  -6.864  -5.962  0.00  0.00    -0.265 OA
ATOM     26  H   UNL     1      -0.871  -6.170  -5.129  0.00  0.00    +0.155 HD
BRANCH  24  27
ATOM     27  C   UNL     1      -2.127  -6.018  -7.424  0.00  0.00    +0.299 C 
ATOM     28  O   UNL     1      -0.977  -5.654  -7.557  0.00  0.00    -0.265 OA
ATOM     29  N   UNL     1      -2.970  -5.987  -8.476  0.00  0.00    -0.308 N 
ATOM     30  H   UNL     1      -3.889  -6.278  -8.369  0.00  0.00    +0.149 HD
BRANCH  29  31
ATOM     31  C   UNL     1      -2.497  -5.515  -9.779  0.00  0.00    +0.107 C 
BRANCH  31  32
ATOM     32  C   UNL     1      -3.642  -5.580 -10.792  0.00  0.00    +0.046 C 
BRANCH  32  33
ATOM     33  C   UNL     1      -3.148  -5.087 -12.153  0.00  0.00    +0.157 C 
BRANCH  33  34
ATOM     34  O   UNL     1      -4.218  -5.148 -13.098  0.00  0.00    -0.395 OA
ATOM     35  H   UNL     1      -3.976  -4.850 -13.986  0.00  0.00    +0.209 HD
ENDBRANCH  33  34
ENDBRANCH  32  33
ENDBRANCH  31  32
ENDBRANCH  29  31
ENDBRANCH  24  27
ENDBRANCH   6  23
TORSDOF 10
