REMARK  Name = ZINC39710372
REMARK  12 active torsions:
REMARK  status: ('A' for Active; 'I' for Inactive)
REMARK    1  A    between atoms: C_1  and  C_2
REMARK    2  A    between atoms: C_9  and  C_14
REMARK    3  A    between atoms: C_14  and  C_16
REMARK    4  A    between atoms: C_14  and  N_26
REMARK    5  A    between atoms: N_21  and  C_22
REMARK    6  A    between atoms: C_22  and  C_23
REMARK    7  A    between atoms: C_22  and  C_24
REMARK    8  A    between atoms: C_22  and  C_25
REMARK    9  A    between atoms: N_26  and  C_27
REMARK   10  A    between atoms: N_26  and  C_35
REMARK   11  A    between atoms: C_27  and  C_28
REMARK   12  A    between atoms: C_35  and  C_36
REMARK                            x       y       z     vdW  Elec       q    Type
REMARK                         _______ _______ _______ _____ _____    ______ ____
ROOT
ATOM      1  C   UNL     1      -0.567  -5.138   2.719  0.00  0.00    -0.008 C 
ENDROOT
BRANCH   1  10
ATOM      2  C   UNL     1       2.558   1.172   1.528  0.00  0.00    +0.044 C 
ATOM      3  C   UNL     1       2.187  -0.239   1.150  0.00  0.00    -0.050 A 
ATOM      4  C   UNL     1       2.170  -0.603  -0.197  0.00  0.00    +0.005 A 
ATOM      5  C   UNL     1       1.846  -1.855  -0.613  0.00  0.00    +0.024 A 
ATOM      6  C   UNL     1       1.508  -2.853   0.320  0.00  0.00    +0.040 A 
ATOM      7  N   UNL     1       1.193  -4.078  -0.100  0.00  0.00    -0.285 N 
ATOM      8  C   UNL     1       0.866  -5.061   0.722  0.00  0.00    +0.223 C 
ATOM      9  O   UNL     1       0.587  -6.160   0.280  0.00  0.00    -0.275 OA
ATOM     10  C   UNL     1       0.841  -4.815   2.214  0.00  0.00    +0.088 C 
ATOM     11  C   UNL     1       1.199  -3.423   2.696  0.00  0.00    -0.006 C 
ATOM     12  C   UNL     1       1.518  -2.496   1.749  0.00  0.00    -0.007 A 
ATOM     13  C   UNL     1       1.882  -1.130   2.128  0.00  0.00    +0.012 A 
ATOM     14  H   UNL     1       1.203  -4.257  -1.053  0.00  0.00    +0.155 HD
ENDBRANCH   1  10
BRANCH   1  15
ATOM     15  C   UNL     1      -1.582  -4.240   2.009  0.00  0.00    +0.205 C 
ATOM     16  N   UNL     1      -1.550  -4.476   0.559  0.00  0.00    -0.152 NA
ATOM     17  N   UNL     1      -1.230  -3.430  -0.008  0.00  0.00    -0.070 NA
ATOM     18  N   UNL     1      -1.005  -2.378   0.879  0.00  0.00    -0.179 N 
ATOM     19  N   UNL     1      -1.210  -2.818   2.164  0.00  0.00    -0.183 NA
ATOM     20  H   UNL     1      -0.745  -1.478   0.629  0.00  0.00    +0.191 HD
BRANCH  19  21
ATOM     21  C   UNL     1      -2.286  -2.060   2.816  0.00  0.00    +0.035 C 
ATOM     22  C   UNL     1      -2.606  -2.693   4.172  0.00  0.00    +0.029 C 
ATOM     23  C   UNL     1      -1.838  -0.612   3.023  0.00  0.00    +0.029 C 
ATOM     24  C   UNL     1      -3.536  -2.087   1.934  0.00  0.00    +0.029 C 
ENDBRANCH  19  21
ENDBRANCH   1  15
BRANCH   1  25
ATOM     25  N   UNL     1      -0.877  -6.546   2.437  0.00  0.00    +0.392 N 
ATOM     26  H   UNL     1      -0.926  -6.686   1.439  0.00  0.00    -0.080 HD
BRANCH  25  27
ATOM     27  C   UNL     1       0.175  -7.402   3.001  0.00  0.00    -0.042 C 
BRANCH  27  28
ATOM     28  C   UNL     1      -0.070  -8.832   2.596  0.00  0.00    -0.064 A 
ATOM     29  C   UNL     1      -0.849  -9.652   3.392  0.00  0.00    +0.004 A 
ATOM     30  C   UNL     1      -1.074 -10.964   3.022  0.00  0.00    +0.038 A 
ATOM     31  C   UNL     1      -0.520 -11.458   1.853  0.00  0.00    +0.123 A 
ATOM     32  C   UNL     1       0.260 -10.636   1.057  0.00  0.00    +0.038 A 
ATOM     33  C   UNL     1       0.480  -9.323   1.427  0.00  0.00    +0.004 A 
ATOM     34  F   UNL     1      -0.740 -12.740   1.490  0.00  0.00    -0.205 F 
ENDBRANCH  27  28
ENDBRANCH  25  27
BRANCH  25  35
ATOM     35  C   UNL     1      -2.169  -6.894   3.045  0.00  0.00    -0.002 C 
BRANCH  35  36
ATOM     36  C   UNL     1      -3.280  -6.575   2.078  0.00  0.00    +0.089 A 
ATOM     37  C   UNL     1      -3.682  -7.352   1.057  0.00  0.00    +0.042 A 
ATOM     38  C   UNL     1      -4.743  -6.672   0.417  0.00  0.00    +0.041 A 
ATOM     39  C   UNL     1      -4.927  -5.520   1.085  0.00  0.00    +0.195 A 
ATOM     40  O   UNL     1      -4.042  -5.469   2.094  0.00  0.00    -0.470 OA
ENDBRANCH  35  36
ENDBRANCH  25  35
ENDBRANCH   1  25
TORSDOF 8
