REMARK  Name = ZINC36597515
REMARK  15 active torsions:
REMARK  status: ('A' for Active; 'I' for Inactive)
REMARK    1  A    between atoms: C_1  and  C_2
REMARK    2  A    between atoms: C_5  and  C_7
REMARK    3  A    between atoms: C_7  and  N_8
REMARK    4  A    between atoms: N_8  and  C_9
REMARK    5  A    between atoms: C_9  and  C_11
REMARK    6  A    between atoms: C_9  and  C_23
REMARK    7  A    between atoms: C_20  and  O_21
REMARK    8  A    between atoms: O_21  and  C_22
REMARK    9  A    between atoms: N_25  and  C_26
REMARK   10  A    between atoms: C_26  and  C_27
REMARK   11  A    between atoms: C_26  and  C_28
REMARK   12  A    between atoms: C_26  and  C_29
REMARK   13  A    between atoms: C_30  and  C_32
REMARK   14  A    between atoms: C_33  and  O_39
REMARK   15  A    between atoms: C_37  and  O_38
REMARK                            x       y       z     vdW  Elec       q    Type
REMARK                         _______ _______ _______ _____ _____    ______ ____
ROOT
ATOM      1  C   UNL     1       2.982  -3.698  -2.046  0.00  0.00    +0.197 C 
ENDROOT
BRANCH   1   2
ATOM      2  C   UNL     1       3.907  -3.808  -0.861  0.00  0.00    +0.031 A 
ATOM      3  C   UNL     1       5.173  -4.397  -1.007  0.00  0.00    -0.009 A 
ATOM      4  C   UNL     1       5.608  -4.894  -2.248  0.00  0.00    +0.009 A 
ATOM      5  C   UNL     1       6.842  -5.458  -2.353  0.00  0.00    +0.001 A 
ATOM      6  C   UNL     1       7.684  -5.552  -1.247  0.00  0.00    +0.001 A 
ATOM      7  C   UNL     1       7.298  -5.082  -0.030  0.00  0.00    +0.008 A 
ATOM      8  C   UNL     1       6.030  -4.493   0.118  0.00  0.00    -0.017 A 
ATOM      9  C   UNL     1       5.598  -3.996   1.360  0.00  0.00    +0.012 A 
ATOM     10  C   UNL     1       4.366  -3.432   1.469  0.00  0.00    +0.046 A 
ATOM     11  C   UNL     1       3.521  -3.332   0.359  0.00  0.00    +0.126 A 
BRANCH  11  12
ATOM     12  O   UNL     1       2.297  -2.757   0.497  0.00  0.00    -0.495 OA
ATOM     13  C   UNL     1       1.894  -2.401   1.821  0.00  0.00    +0.277 C 
ENDBRANCH  11  12
ENDBRANCH   1   2
BRANCH   1  14
ATOM     14  C   UNL     1       3.105  -2.324  -2.652  0.00  0.00    +0.239 C 
ATOM     15  O   UNL     1       2.375  -1.429  -2.281  0.00  0.00    -0.273 OA
ATOM     16  N   UNL     1       4.026  -2.089  -3.608  0.00  0.00    -0.309 N 
ATOM     17  H   UNL     1       4.610  -2.805  -3.905  0.00  0.00    +0.149 HD
BRANCH  16  18
ATOM     18  C   UNL     1       4.146  -0.754  -4.198  0.00  0.00    +0.026 C 
ATOM     19  C   UNL     1       4.484   0.259  -3.102  0.00  0.00    +0.031 C 
ATOM     20  C   UNL     1       5.258  -0.758  -5.249  0.00  0.00    +0.031 C 
ATOM     21  C   UNL     1       2.821  -0.367  -4.859  0.00  0.00    +0.031 C 
ENDBRANCH  16  18
ENDBRANCH   1  14
BRANCH   1  22
ATOM     22  N   UNL     1       1.601  -3.916  -1.609  0.00  0.00    -0.274 N 
ATOM     23  C   UNL     1       1.126  -5.171  -1.478  0.00  0.00    +0.255 C 
ATOM     24  O   UNL     1       1.844  -6.122  -1.722  0.00  0.00    -0.270 OA
BRANCH  23  25
ATOM     25  C   UNL     1      -0.262  -5.391  -1.039  0.00  0.00    +0.119 A 
ATOM     26  C   UNL     1      -1.295  -5.483  -1.983  0.00  0.00    +0.133 A 
ATOM     27  C   UNL     1      -2.598  -5.691  -1.559  0.00  0.00    +0.046 A 
ATOM     28  C   UNL     1      -2.881  -5.806  -0.210  0.00  0.00    +0.007 A 
ATOM     29  C   UNL     1      -1.870  -5.716   0.729  0.00  0.00    +0.046 A 
ATOM     30  C   UNL     1      -0.560  -5.515   0.326  0.00  0.00    +0.133 A 
BRANCH  30  31
ATOM     31  O   UNL     1       0.431  -5.433   1.249  0.00  0.00    -0.506 OA
ATOM     32  H   UNL     1       0.597  -4.536   1.570  0.00  0.00    +0.292 HD
ENDBRANCH  30  31
BRANCH  26  33
ATOM     33  O   UNL     1      -1.020  -5.369  -3.306  0.00  0.00    -0.506 OA
ATOM     34  H   UNL     1      -0.817  -6.210  -3.740  0.00  0.00    +0.292 HD
ENDBRANCH  26  33
ENDBRANCH  23  25
BRANCH  22  35
ATOM     35  C   UNL     1       0.736  -2.771  -1.314  0.00  0.00    +0.183 C 
BRANCH  35  40
ATOM     36  C   UNL     1      -0.420  -0.619  -5.727  0.00  0.00    +0.086 C 
ATOM     37  C   UNL     1      -0.529  -1.449  -4.474  0.00  0.00    +0.102 A 
ATOM     38  C   UNL     1      -1.588  -2.199  -4.117  0.00  0.00    +0.045 A 
ATOM     39  C   UNL     1      -1.264  -2.803  -2.880  0.00  0.00    +0.046 A 
ATOM     40  C   UNL     1      -0.027  -2.385  -2.555  0.00  0.00    +0.122 A 
ATOM     41  O   UNL     1       0.415  -1.570  -3.527  0.00  0.00    -0.463 OA
ENDBRANCH  35  40
ENDBRANCH  22  35
ENDBRANCH   1  22
TORSDOF 10
