REMARK  Name = ZINC63375626
REMARK  5 active torsions:
REMARK  status: ('A' for Active; 'I' for Inactive)
REMARK    1  A    between atoms: C_1  and  O_2
REMARK    2  A    between atoms: O_2  and  C_3
REMARK    3  A    between atoms: C_3  and  C_5
REMARK    4  A    between atoms: C_10  and  N_11
REMARK    5  A    between atoms: C_27  and  C_32
REMARK                            x       y       z     vdW  Elec       q    Type
REMARK                         _______ _______ _______ _____ _____    ______ ____
ROOT
ATOM      1  N   UNL     1      -3.672  -2.026   0.026  0.00  0.00    -0.192 N 
ATOM      2  C   UNL     1      -4.329  -1.625  -1.082  0.00  0.00    +0.248 C 
ATOM      3  O   UNL     1      -3.998  -1.804  -2.234  0.00  0.00    -0.273 OA
ATOM      4  C   UNL     1      -5.565  -0.906  -0.587  0.00  0.00    +0.169 C 
ATOM      5  C   UNL     1      -5.565   0.546  -1.097  0.00  0.00    +0.065 C 
ATOM      6  C   UNL     1      -6.411   1.340  -0.131  0.00  0.00    -0.034 C 
ATOM      7  C   UNL     1      -6.622   2.648  -0.036  0.00  0.00    -0.001 A 
ATOM      8  C   UNL     1      -6.188   3.772  -0.881  0.00  0.00    +0.010 A 
ATOM      9  C   UNL     1      -6.578   5.011  -0.477  0.00  0.00    +0.001 A 
ATOM     10  C   UNL     1      -7.345   5.239   0.669  0.00  0.00    +0.002 A 
ATOM     11  C   UNL     1      -7.793   4.265   1.500  0.00  0.00    +0.026 A 
ATOM     12  C   UNL     1      -7.453   2.919   1.176  0.00  0.00    +0.043 A 
ATOM     13  N   UNL     1      -7.758   1.807   1.775  0.00  0.00    -0.375 N 
ATOM     14  C   UNL     1      -7.209   0.695   0.996  0.00  0.00    +0.131 C 
ATOM     15  C   UNL     1      -6.225  -0.141   1.824  0.00  0.00    +0.135 C 
ATOM     16  N   UNL     1      -5.386  -0.896   0.880  0.00  0.00    -0.264 N 
ATOM     17  C   UNL     1      -4.300  -1.635   1.143  0.00  0.00    +0.317 C 
ATOM     18  O   UNL     1      -3.927  -1.917   2.265  0.00  0.00    -0.252 OA
ATOM     19  H   UNL     1      -8.264   1.727   2.599  0.00  0.00    +0.160 HD
ENDROOT
BRANCH  15  20
ATOM     20  C   UNL     1      -6.982  -1.110   2.695  0.00  0.00    -0.023 A 
ATOM     21  C   UNL     1      -7.463  -2.291   2.159  0.00  0.00    +0.005 A 
ATOM     22  C   UNL     1      -8.157  -3.180   2.958  0.00  0.00    +0.002 A 
ATOM     23  C   UNL     1      -8.371  -2.890   4.292  0.00  0.00    +0.020 A 
ATOM     24  C   UNL     1      -7.890  -1.709   4.829  0.00  0.00    +0.041 A 
ATOM     25  C   UNL     1      -7.189  -0.822   4.031  0.00  0.00    +0.025 A 
ATOM     26 CL   UNL     1      -8.158  -1.344   6.505  0.00  0.00    -0.084 Cl
ENDBRANCH  15  20
BRANCH   1  32
ATOM     27  C   UNL     1      -1.247  -2.105   0.003  0.00  0.00    +0.081 A 
ATOM     28  C   UNL     1      -0.068  -2.854  -0.007  0.00  0.00    +0.017 A 
ATOM     29  C   UNL     1      -0.128  -4.231  -0.014  0.00  0.00    +0.001 A 
ATOM     30  C   UNL     1      -1.354  -4.878  -0.012  0.00  0.00    +0.002 A 
ATOM     31  C   UNL     1      -2.527  -4.150  -0.002  0.00  0.00    +0.025 A 
ATOM     32  C   UNL     1      -2.486  -2.763   0.011  0.00  0.00    +0.059 A 
BRANCH  27  33
ATOM     33  C   UNL     1      -1.190  -0.632   0.010  0.00  0.00    +0.341 C 
ATOM     34  O   UNL     1      -2.218   0.016   0.023  0.00  0.00    -0.245 OA
BRANCH  33  36
ATOM     35  C   UNL     1      -0.017   1.425   0.010  0.00  0.00    +0.280 C 
ATOM     36  O   UNL     1       0.002  -0.004   0.002  0.00  0.00    -0.464 OA
ENDBRANCH  33  36
ENDBRANCH  27  33
ENDBRANCH   1  32
TORSDOF 4
