REMARK  Name = ZINC19793768
REMARK  5 active torsions:
REMARK  status: ('A' for Active; 'I' for Inactive)
REMARK    1  A    between atoms: C_1  and  C_2
REMARK    2  A    between atoms: C_5  and  N_9
REMARK    3  A    between atoms: C_5  and  S_22
REMARK    4  A    between atoms: N_9  and  C_10
REMARK    5  A    between atoms: S_22  and  C_23
REMARK                            x       y       z     vdW  Elec       q    Type
REMARK                         _______ _______ _______ _____ _____    ______ ____
ROOT
ATOM      1  N   UNL     1       3.880   3.617   1.862  0.00  0.00    -0.268 NA
ATOM      2  H   UNL     1       4.519   3.574   2.756  0.00  0.00    +0.127 HD
ENDROOT
BRANCH   1   3
ATOM      3  C   UNL     1       2.819   2.610   1.992  0.00  0.00    +0.058 C 
ATOM      4  C   UNL     1       1.608   3.035   1.159  0.00  0.00    +0.019 C 
ATOM      5  C   UNL     1       1.417   2.055  -0.000  0.00  0.00    +0.002 C 
ATOM      6  C   UNL     1      -0.019   1.526   0.010  0.00  0.00    +0.000 C 
ATOM      7  C   UNL     1       0.002  -0.004   0.002  0.00  0.00    +0.000 C 
ATOM      8  C   UNL     1      -0.843  -0.532   1.163  0.00  0.00    +0.000 C 
ATOM      9  C   UNL     1      -0.011  -1.509   1.997  0.00  0.00    -0.000 C 
ATOM     10  C   UNL     1      -0.040  -1.080   3.465  0.00  0.00    +0.000 C 
ATOM     11  C   UNL     1       1.392  -0.954   3.989  0.00  0.00    +0.000 C 
ATOM     12  C   UNL     1       1.586   0.429   4.614  0.00  0.00    +0.000 C 
ATOM     13  C   UNL     1       2.806   1.105   3.986  0.00  0.00    +0.002 C 
ATOM     14  C   UNL     1       2.410   2.487   3.461  0.00  0.00    +0.019 C 
ENDBRANCH   1   3
BRANCH   1  19
ATOM     15  C   UNL     1       8.400   2.420  -1.311  0.00  0.00    +0.073 C 
ATOM     16  C   UNL     1       7.202   2.713  -0.445  0.00  0.00    +0.117 C 
ATOM     17  N   UNL     1       6.407   1.746  -0.077  0.00  0.00    -0.183 NA
ATOM     18  N   UNL     1       5.317   2.044   0.758  0.00  0.00    -0.223 N 
ATOM     19  C   UNL     1       4.696   3.372   0.665  0.00  0.00    +0.220 C 
ATOM     20  N   UNL     1       5.751   4.386   0.573  0.00  0.00    -0.267 N 
ATOM     21  C   UNL     1       6.926   4.083  -0.013  0.00  0.00    +0.263 C 
ATOM     22  O   UNL     1       7.760   4.953  -0.185  0.00  0.00    -0.269 OA
ATOM     23  H   UNL     1       4.980   1.385   1.384  0.00  0.00    +0.173 HD
ATOM     24  H   UNL     1       5.583   5.393   0.983  0.00  0.00    +0.153 HD
BRANCH  19  25
ATOM     25  S   UNL     1       3.646   3.449  -0.812  0.00  0.00    -0.102 S 
ATOM     26  C   UNL     1       4.790   3.128  -2.182  0.00  0.00    +0.089 C 
ENDBRANCH  19  25
ENDBRANCH   1  19
TORSDOF 3
