REMARK  Name = ZINC64061210
REMARK  5 active torsions:
REMARK  status: ('A' for Active; 'I' for Inactive)
REMARK    1  A    between atoms: C_6  and  C_10
REMARK    2  A    between atoms: C_10  and  C_11
REMARK    3  A    between atoms: C_11  and  N_12
REMARK    4  A    between atoms: C_13  and  C_15
REMARK    5  A    between atoms: C_22  and  C_25
REMARK                            x       y       z     vdW  Elec       q    Type
REMARK                         _______ _______ _______ _____ _____    ______ ____
ROOT
ATOM      1  N   UNL     1       3.620  -4.976   2.321  0.00  0.00    -0.311 N 
ATOM      2  C   UNL     1       3.365  -6.291   2.471  0.00  0.00    +0.244 C 
ATOM      3  O   UNL     1       2.741  -6.890   1.617  0.00  0.00    -0.270 OA
ATOM      4  H   UNL     1       4.118  -4.498   3.003  0.00  0.00    +0.149 HD
ENDROOT
BRANCH   2   5
ATOM      5  C   UNL     1       3.842  -7.003   3.672  0.00  0.00    +0.040 A 
ATOM      6  C   UNL     1       4.554  -6.314   4.657  0.00  0.00    +0.015 A 
ATOM      7  C   UNL     1       4.997  -6.981   5.776  0.00  0.00    +0.027 A 
ATOM      8  C   UNL     1       4.739  -8.340   5.931  0.00  0.00    +0.072 A 
ATOM      9  C   UNL     1       4.029  -9.035   4.952  0.00  0.00    +0.145 A 
ATOM     10  C   UNL     1       3.577  -8.365   3.828  0.00  0.00    +0.060 A 
ATOM     11  O   UNL     1       3.895 -10.341   5.311  0.00  0.00    -0.469 OA
ATOM     12  C   UNL     1       4.537 -10.533   6.574  0.00  0.00    +0.263 C 
ATOM     13  N   UNL     1       5.077  -9.223   6.958  0.00  0.00    -0.306 N 
ATOM     14  H   UNL     1       5.572  -9.012   7.766  0.00  0.00    +0.150 HD
BRANCH  12  15
ATOM     15  C   UNL     1       3.521 -11.011   7.614  0.00  0.00    +0.048 C 
ATOM     16  C   UNL     1       4.184 -11.057   8.992  0.00  0.00    +0.009 C 
ATOM     17  C   UNL     1       3.168 -11.534  10.031  0.00  0.00    +0.000 C 
ATOM     18  C   UNL     1       2.674 -12.933   9.656  0.00  0.00    +0.000 C 
ATOM     19  C   UNL     1       2.010 -12.886   8.278  0.00  0.00    +0.000 C 
ATOM     20  C   UNL     1       3.026 -12.409   7.239  0.00  0.00    +0.009 C 
ENDBRANCH  12  15
ENDBRANCH   2   5
BRANCH   1  21
ATOM     21  C   UNL     1       3.146  -4.269   1.129  0.00  0.00    +0.108 C 
BRANCH  21  22
ATOM     22  C   UNL     1       3.566  -2.800   1.206  0.00  0.00    +0.065 C 
BRANCH  22  28
ATOM     23  C   UNL     1      -0.016   1.344   0.009  0.00  0.00    +0.002 A 
ATOM     24  C   UNL     1       1.158   2.118   0.002  0.00  0.00    +0.002 A 
ATOM     25  C   UNL     1       2.389   1.570  -0.013  0.00  0.00    +0.027 A 
ATOM     26  C   UNL     1       2.533   0.108  -0.022  0.00  0.00    +0.060 A 
ATOM     27  N   UNL     1       3.569  -0.680  -0.036  0.00  0.00    -0.363 N 
ATOM     28  C   UNL     1       3.071  -2.062  -0.039  0.00  0.00    +0.175 C 
ATOM     29  N   UNL     1       1.606  -1.974  -0.024  0.00  0.00    -0.363 N 
ATOM     30  C   UNL     1       1.290  -0.712  -0.014  0.00  0.00    +0.060 A 
ATOM     31  C   UNL     1       0.002  -0.004   0.002  0.00  0.00    +0.027 A 
ATOM     32  H   UNL     1       4.499  -0.405  -0.045  0.00  0.00    +0.162 HD
ATOM     33  H   UNL     1       0.987  -2.721  -0.022  0.00  0.00    +0.162 HD
ENDBRANCH  22  28
ENDBRANCH  21  22
ENDBRANCH   1  21
TORSDOF 5
