REMARK  Name = ZINC56921167
REMARK  7 active torsions:
REMARK  status: ('A' for Active; 'I' for Inactive)
REMARK    1  A    between atoms: C_1  and  C_2
REMARK    2  A    between atoms: C_5  and  N_12
REMARK    3  A    between atoms: C_8  and  C_10
REMARK    4  A    between atoms: C_8  and  C_11
REMARK    5  A    between atoms: C_13  and  C_15
REMARK    6  A    between atoms: C_15  and  C_18
REMARK    7  A    between atoms: C_20  and  C_23
REMARK                            x       y       z     vdW  Elec       q    Type
REMARK                         _______ _______ _______ _____ _____    ______ ____
ROOT
ATOM      1  C   UNL     1      -4.836  -3.328  -1.145  0.00  0.00    +0.092 C 
ATOM      2  C   UNL     1      -5.132  -4.681  -1.796  0.00  0.00    +0.024 C 
ATOM      3  C   UNL     1      -4.842  -4.601  -0.295  0.00  0.00    +0.024 C 
ENDROOT
BRANCH   1   4
ATOM      4  C   UNL     1      -5.988  -2.372  -0.973  0.00  0.00    +0.099 A 
ATOM      5  C   UNL     1      -5.976  -1.007  -1.292  0.00  0.00    +0.077 A 
ATOM      6  C   UNL     1      -7.202  -0.494  -0.992  0.00  0.00    +0.168 A 
ATOM      7  O   UNL     1      -7.956  -1.497  -0.504  0.00  0.00    -0.354 OA
ATOM      8  N   UNL     1      -7.168  -2.674  -0.507  0.00  0.00    -0.082 NA
BRANCH   6   9
ATOM      9  C   UNL     1      -7.627   0.909  -1.170  0.00  0.00    +0.024 A 
ATOM     10  C   UNL     1      -6.738   1.849  -1.696  0.00  0.00    +0.015 A 
ATOM     11  C   UNL     1      -7.136   3.158  -1.861  0.00  0.00    +0.050 A 
ATOM     12  C   UNL     1      -8.420   3.547  -1.507  0.00  0.00    +0.166 A 
ATOM     13  C   UNL     1      -9.313   2.614  -0.982  0.00  0.00    +0.167 A 
ATOM     14  C   UNL     1      -8.921   1.299  -0.819  0.00  0.00    +0.061 A 
ATOM     15  O   UNL     1     -10.496   3.243  -0.718  0.00  0.00    -0.453 OA
ATOM     16  C   UNL     1     -10.188   4.650  -0.703  0.00  0.00    +0.466 C 
ATOM     17  O   UNL     1      -9.045   4.759  -1.572  0.00  0.00    -0.453 OA
ENDBRANCH   6   9
ENDBRANCH   1   4
BRANCH   1  19
ATOM     18  N   UNL     1      -2.701  -2.308  -0.423  0.00  0.00    -0.312 N 
ATOM     19  C   UNL     1      -3.502  -2.692  -1.437  0.00  0.00    +0.225 C 
ATOM     20  O   UNL     1      -3.147  -2.526  -2.585  0.00  0.00    -0.275 OA
ATOM     21  H   UNL     1      -3.024  -2.349   0.491  0.00  0.00    +0.149 HD
BRANCH  18  25
ATOM     22  C   UNL     1      -0.019   1.656  -1.661  0.00  0.00    +0.007 C 
ATOM     23  C   UNL     1       0.026   0.164  -1.326  0.00  0.00    -0.012 C 
ATOM     24  C   UNL     1      -1.391  -0.337  -1.036  0.00  0.00    +0.025 C 
ATOM     25  C   UNL     1      -1.345  -1.829  -0.701  0.00  0.00    +0.074 C 
ATOM     26  C   UNL     1      -0.464  -2.049   0.531  0.00  0.00    +0.028 C 
ATOM     27  C   UNL     1       0.952  -1.548   0.241  0.00  0.00    -0.033 C 
ATOM     28  C   UNL     1       0.907  -0.056  -0.094  0.00  0.00    +0.009 C 
ATOM     29  C   UNL     1       1.833  -1.768   1.472  0.00  0.00    +0.011 C 
ATOM     30  C   UNL     1       1.533  -2.320  -0.946  0.00  0.00    +0.011 C 
ENDBRANCH  18  25
ENDBRANCH   1  19
TORSDOF 4
