REMARK  Name = ZINC12810448
REMARK  9 active torsions:
REMARK  status: ('A' for Active; 'I' for Inactive)
REMARK    1  A    between atoms: C_1  and  C_2
REMARK    2  A    between atoms: C_2  and  C_3
REMARK    3  A    between atoms: C_2  and  C_4
REMARK    4  A    between atoms: C_4  and  O_35
REMARK    5  A    between atoms: C_5  and  C_31
REMARK    6  A    between atoms: C_7  and  C_23
REMARK    7  A    between atoms: N_12  and  C_13
REMARK    8  A    between atoms: C_31  and  O_33
REMARK    9  A    between atoms: O_33  and  C_34
REMARK                            x       y       z     vdW  Elec       q    Type
REMARK                         _______ _______ _______ _____ _____    ______ ____
ROOT
ATOM      1  C   UNL     1       2.439   4.170   0.305  0.00  0.00    +0.156 C 
ATOM      2  C   UNL     1       0.991   3.675   0.213  0.00  0.00    +0.173 C 
ATOM      3  C   UNL     1       0.477   3.919  -1.209  0.00  0.00    +0.123 C 
ATOM      4  N   UNL     1       1.387   3.271  -2.162  0.00  0.00    -0.318 N 
ATOM      5  C   UNL     1       2.689   3.107  -1.885  0.00  0.00    +0.140 C 
ATOM      6  S   UNL     1       3.690   2.355  -3.052  0.00  0.00    -0.018 S 
ATOM      7  N   UNL     1       3.238   3.510  -0.729  0.00  0.00    -0.253 N 
ATOM      8  H   UNL     1       1.038   2.954  -3.009  0.00  0.00    +0.148 HD
ENDROOT
BRANCH   7   9
ATOM      9  C   UNL     1       4.604   3.293  -0.506  0.00  0.00    +0.042 A 
ATOM     10  C   UNL     1       5.547   3.950  -1.285  0.00  0.00    +0.027 A 
ATOM     11  C   UNL     1       6.894   3.740  -1.063  0.00  0.00    +0.051 A 
ATOM     12  C   UNL     1       7.309   2.865  -0.070  0.00  0.00    +0.162 A 
ATOM     13  C   UNL     1       6.367   2.204   0.710  0.00  0.00    +0.164 A 
ATOM     14  C   UNL     1       5.015   2.418   0.489  0.00  0.00    +0.073 A 
ATOM     15  O   UNL     1       6.755   1.348   1.694  0.00  0.00    -0.485 OA
ATOM     16  C   UNL     1       8.105   0.875   1.642  0.00  0.00    +0.270 C 
ATOM     17  C   UNL     1       9.024   2.074   1.375  0.00  0.00    +0.270 C 
ATOM     18  O   UNL     1       8.641   2.664   0.129  0.00  0.00    -0.485 OA
ENDBRANCH   7   9
BRANCH   3  19
ATOM     19  C   UNL     1       0.433   5.400  -1.482  0.00  0.00    +0.009 A 
ATOM     20  C   UNL     1       1.223   5.942  -2.478  0.00  0.00    +0.011 A 
ATOM     21  C   UNL     1       1.184   7.301  -2.731  0.00  0.00    +0.039 A 
ATOM     22  C   UNL     1       0.353   8.120  -1.985  0.00  0.00    +0.126 A 
ATOM     23  C   UNL     1      -0.438   7.578  -0.987  0.00  0.00    +0.077 A 
ATOM     24  C   UNL     1      -0.402   6.216  -0.739  0.00  0.00    +0.131 A 
ATOM     25  F   UNL     1      -1.178   5.685   0.231  0.00  0.00    -0.205 F 
ATOM     26  F   UNL     1       0.315   9.448  -2.231  0.00  0.00    -0.205 F 
ENDBRANCH   3  19
BRANCH   1  28
ATOM     27  C   UNL     1       1.615   6.371   1.153  0.00  0.00    +0.012 C 
ATOM     28  C   UNL     1       2.476   5.684   0.090  0.00  0.00    +0.034 C 
ATOM     29  C   UNL     1       3.919   6.180   0.203  0.00  0.00    +0.012 C 
ENDBRANCH   1  28
BRANCH   2  30
ATOM     30  C   UNL     1       0.940   2.201   0.525  0.00  0.00    +0.317 C 
ATOM     31  O   UNL     1       1.955   1.606   0.799  0.00  0.00    -0.250 OA
BRANCH  30  32
ATOM     32  O   UNL     1      -0.234   1.550   0.497  0.00  0.00    -0.468 OA
ATOM     33  C   UNL     1      -0.208   0.132   0.808  0.00  0.00    +0.280 C 
ENDBRANCH  30  32
ENDBRANCH   2  30
BRANCH   1  34
ATOM     34  O   UNL     1       2.970   3.857   1.594  0.00  0.00    -0.370 OA
ATOM     35  H   UNL     1       3.851   4.222   1.755  0.00  0.00    +0.212 HD
ENDBRANCH   1  34
TORSDOF 6
