REMARK  Name = ZINC40433796
REMARK  12 active torsions:
REMARK  status: ('A' for Active; 'I' for Inactive)
REMARK    1  A    between atoms: C_1  and  C_2
REMARK    2  A    between atoms: C_2  and  C_3
REMARK    3  A    between atoms: C_16  and  C_17
REMARK    4  A    between atoms: C_16  and  C_19
REMARK    5  A    between atoms: C_17  and  C_18
REMARK    6  A    between atoms: C_19  and  C_20
REMARK    7  A    between atoms: C_20  and  O_22
REMARK    8  A    between atoms: O_22  and  C_23
REMARK    9  A    between atoms: C_25  and  O_39
REMARK   10  A    between atoms: C_27  and  O_38
REMARK   11  A    between atoms: C_29  and  O_37
REMARK   12  A    between atoms: C_31  and  C_34
REMARK                            x       y       z     vdW  Elec       q    Type
REMARK                         _______ _______ _______ _____ _____    ______ ____
ROOT
ATOM      1  C   UNL     1       5.893  -1.304   0.997  0.00  0.00    +0.162 C 
ENDROOT
BRANCH   1  15
ATOM      2  C   UNL     1       0.818  -1.798  -1.056  0.00  0.00    -0.024 A 
ATOM      3  C   UNL     1       0.095  -2.196  -2.159  0.00  0.00    +0.005 A 
ATOM      4  C   UNL     1       0.711  -2.338  -3.395  0.00  0.00    +0.001 A 
ATOM      5  C   UNL     1       2.046  -2.085  -3.538  0.00  0.00    +0.010 A 
ATOM      6  C   UNL     1       2.800  -1.681  -2.435  0.00  0.00    +0.004 A 
ATOM      7  C   UNL     1       2.177  -1.530  -1.179  0.00  0.00    +0.050 A 
ATOM      8  N   UNL     1       3.145  -1.119  -0.287  0.00  0.00    -0.355 N 
ATOM      9  H   UNL     1       2.995  -0.941   0.654  0.00  0.00    +0.166 HD
ATOM     10  C   UNL     1       4.344  -1.002  -0.925  0.00  0.00    +0.053 A 
ATOM     11  C   UNL     1       4.199  -1.337  -2.225  0.00  0.00    -0.014 A 
ATOM     12  C   UNL     1       5.332  -1.314  -3.219  0.00  0.00    +0.065 C 
ATOM     13  C   UNL     1       6.489  -0.520  -2.594  0.00  0.00    +0.166 C 
ATOM     14  O   UNL     1       6.708  -0.973  -1.255  0.00  0.00    -0.366 OA
ATOM     15  C   UNL     1       5.671  -0.585  -0.335  0.00  0.00    +0.119 C 
BRANCH   2  17
ATOM     16  C   UNL     1      -0.283  -0.190   0.477  0.00  0.00    +0.009 C 
ATOM     17  C   UNL     1       0.137  -1.648   0.280  0.00  0.00    +0.034 C 
ENDBRANCH   2  17
BRANCH  15  18
ATOM     18  C   UNL     1       5.685   0.929  -0.114  0.00  0.00    +0.038 C 
ATOM     19  C   UNL     1       7.033   1.347   0.476  0.00  0.00    +0.007 C 
ENDBRANCH  15  18
ENDBRANCH   1  15
BRANCH   1  20
ATOM     20  C   UNL     1       5.901  -2.793   0.769  0.00  0.00    +0.312 C 
ATOM     21  O   UNL     1       5.848  -3.232  -0.355  0.00  0.00    -0.251 OA
BRANCH  20  22
ATOM     22  O   UNL     1       5.968  -3.632   1.815  0.00  0.00    -0.432 OA
BRANCH  22  23
ATOM     23  C   UNL     1       5.971  -5.031   1.525  0.00  0.00    +0.343 C 
ATOM     24  C   UNL     1       6.176  -5.821   2.820  0.00  0.00    +0.214 C 
ATOM     25  C   UNL     1       5.003  -5.545   3.767  0.00  0.00    +0.180 C 
ATOM     26  C   UNL     1       3.694  -5.914   3.062  0.00  0.00    +0.186 C 
ATOM     27  C   UNL     1       3.586  -5.121   1.757  0.00  0.00    +0.266 C 
ATOM     28  O   UNL     1       4.722  -5.399   0.936  0.00  0.00    -0.322 OA
BRANCH  27  29
ATOM     29  C   UNL     1       2.329  -5.522   1.028  0.00  0.00    +0.387 C 
ATOM     30  O   UNL     1       1.238  -5.284   1.518  0.00  0.00    -0.243 OA
ATOM     31  O   UNL     1       2.403  -6.083  -0.052  0.00  0.00    -0.243 OA
ENDBRANCH  27  29
BRANCH  26  32
ATOM     32  O   UNL     1       3.685  -7.314   2.773  0.00  0.00    -0.386 OA
ATOM     33  H   UNL     1       2.884  -7.618   2.326  0.00  0.00    +0.210 HD
ENDBRANCH  26  32
BRANCH  25  34
ATOM     34  O   UNL     1       5.149  -6.333   4.950  0.00  0.00    -0.386 OA
ATOM     35  H   UNL     1       5.961  -6.155   5.444  0.00  0.00    +0.210 HD
ENDBRANCH  25  34
BRANCH  24  36
ATOM     36  O   UNL     1       6.234  -7.218   2.524  0.00  0.00    -0.383 OA
ATOM     37  H   UNL     1       6.952  -7.463   1.925  0.00  0.00    +0.210 HD
ENDBRANCH  24  36
ENDBRANCH  22  23
ENDBRANCH  20  22
ENDBRANCH   1  20
TORSDOF 10
