REMARK  Name = ZINC63900062
REMARK  5 active torsions:
REMARK  status: ('A' for Active; 'I' for Inactive)
REMARK    1  A    between atoms: C_7  and  C_28
REMARK    2  A    between atoms: C_9  and  N_12
REMARK    3  A    between atoms: C_13  and  C_15
REMARK    4  A    between atoms: C_15  and  S_16
REMARK    5  A    between atoms: S_16  and  C_17
REMARK                            x       y       z     vdW  Elec       q    Type
REMARK                         _______ _______ _______ _____ _____    ______ ____
ROOT
ATOM      1  N   UNL     1       3.017  -3.001   1.544  0.00  0.00    -0.301 N 
ATOM      2  C   UNL     1       4.324  -2.677   1.587  0.00  0.00    +0.224 C 
ATOM      3  O   UNL     1       4.713  -1.827   2.359  0.00  0.00    -0.275 OA
ATOM      4  H   UNL     1       2.706  -3.681   0.926  0.00  0.00    +0.150 HD
ENDROOT
BRANCH   1  12
ATOM      5  C   UNL     1      -0.019   1.524   0.010  0.00  0.00    +0.005 C 
ATOM      6  C   UNL     1       1.418   2.055  -0.000  0.00  0.00    +0.005 C 
ATOM      7  C   UNL     1       2.064   1.740   1.354  0.00  0.00    +0.042 C 
ATOM      8  C   UNL     1       1.800   0.300   1.694  0.00  0.00    -0.012 C 
ATOM      9  C   UNL     1       0.899  -0.499   1.135  0.00  0.00    -0.041 C 
ATOM     10  C   UNL     1       0.002  -0.004   0.002  0.00  0.00    +0.033 C 
ATOM     11  C   UNL     1       0.784  -1.903   1.672  0.00  0.00    +0.149 C 
ATOM     12  C   UNL     1       2.065  -2.326   2.430  0.00  0.00    +0.156 C 
ATOM     13  S   UNL     1       2.663  -0.654   2.920  0.00  0.00    -0.106 S 
BRANCH  11  14
ATOM     14  C   UNL     1       0.561  -2.832   0.551  0.00  0.00    +0.073 C 
ATOM     15  N   UNL     1       0.390  -3.548  -0.314  0.00  0.00    -0.196 NA
ENDBRANCH  11  14
ENDBRANCH   1  12
BRANCH   2  16
ATOM     16  C   UNL     1       5.303  -3.371   0.675  0.00  0.00    +0.173 C 
BRANCH  16  17
ATOM     17  S   UNL     1       6.970  -2.720   0.970  0.00  0.00    -0.078 S 
BRANCH  17  18
ATOM     18  C   UNL     1       7.984  -3.619  -0.157  0.00  0.00    +0.170 A 
ATOM     19  N   UNL     1       9.323  -3.374  -0.193  0.00  0.00    -0.302 N 
ATOM     20  H   UNL     1       9.714  -2.711   0.397  0.00  0.00    +0.171 HD
ATOM     21  C   UNL     1      10.104  -4.061  -1.054  0.00  0.00    +0.255 A 
ATOM     22  O   UNL     1      11.306  -3.857  -1.101  0.00  0.00    -0.267 OA
ATOM     23  C   UNL     1       9.507  -5.017  -1.896  0.00  0.00    +0.038 A 
ATOM     24  C   UNL     1       8.161  -5.222  -1.817  0.00  0.00    +0.052 A 
ATOM     25  N   UNL     1       7.434  -4.520  -0.945  0.00  0.00    -0.228 NA
ATOM     26  C   UNL     1       7.742  -6.287  -2.807  0.00  0.00    +0.056 C 
ATOM     27  C   UNL     1       8.919  -6.400  -3.800  0.00  0.00    +0.011 C 
ATOM     28  C   UNL     1      10.112  -5.924  -2.943  0.00  0.00    +0.043 C 
ENDBRANCH  17  18
ENDBRANCH  16  17
ENDBRANCH   2  16
TORSDOF 5
