REMARK  Name = ZINC19898744
REMARK  6 active torsions:
REMARK  status: ('A' for Active; 'I' for Inactive)
REMARK    1  A    between atoms: C_4  and  C_7
REMARK    2  A    between atoms: C_8  and  N_26
REMARK    3  A    between atoms: N_11  and  C_12
REMARK    4  A    between atoms: N_18  and  C_19
REMARK    5  A    between atoms: C_19  and  C_20
REMARK    6  A    between atoms: C_27  and  C_29
REMARK                            x       y       z     vdW  Elec       q    Type
REMARK                         _______ _______ _______ _____ _____    ______ ____
ROOT
ATOM      1  C   UNL     1      -5.274   5.193   0.175  0.00  0.00    +0.079 A 
ATOM      2  C   UNL     1      -3.949   5.163   0.473  0.00  0.00    +0.100 A 
ATOM      3  S   UNL     1      -3.462   6.856   0.184  0.00  0.00    -0.036 S 
ATOM      4  C   UNL     1      -5.051   7.492  -0.325  0.00  0.00    +0.154 A 
ATOM      5  N   UNL     1      -5.379   8.717  -0.690  0.00  0.00    -0.336 N 
ATOM      6  N   UNL     1      -5.844   6.374  -0.232  0.00  0.00    -0.317 N 
ATOM      7  H   UNL     1      -6.396   8.928  -1.054  0.00  0.00    +0.168 HD
ENDROOT
BRANCH   1  11
ATOM      8  C   UNL     1      -7.627   1.675   0.502  0.00  0.00    +0.000 A 
ATOM      9  C   UNL     1      -6.865   2.095   1.577  0.00  0.00    +0.001 A 
ATOM     10  C   UNL     1      -6.098   3.237   1.478  0.00  0.00    +0.010 A 
ATOM     11  C   UNL     1      -6.092   3.970   0.289  0.00  0.00    +0.001 A 
ATOM     12  C   UNL     1      -6.868   3.542  -0.791  0.00  0.00    +0.010 A 
ATOM     13  C   UNL     1      -7.627   2.396  -0.680  0.00  0.00    +0.001 A 
ENDBRANCH   1  11
BRANCH   5  14
ATOM     14  C   UNL     1      -4.457   9.723  -0.616  0.00  0.00    +0.041 A 
ATOM     15  C   UNL     1      -4.280  10.427   0.578  0.00  0.00    +0.025 A 
ATOM     16  C   UNL     1      -3.343  11.437   0.647  0.00  0.00    +0.002 A 
ATOM     17  C   UNL     1      -2.587  11.761  -0.466  0.00  0.00    +0.000 A 
ATOM     18  C   UNL     1      -2.760  11.071  -1.653  0.00  0.00    +0.002 A 
ATOM     19  C   UNL     1      -3.689  10.055  -1.735  0.00  0.00    +0.025 A 
ENDBRANCH   5  14
BRANCH   2  20
ATOM     20  N   UNL     1      -3.172   4.090   0.900  0.00  0.00    -0.272 N 
ATOM     21  C   UNL     1      -1.836   4.228   1.015  0.00  0.00    +0.284 C 
ATOM     22  O   UNL     1      -1.309   5.292   0.745  0.00  0.00    -0.266 OA
ATOM     23  H   UNL     1      -3.648   3.129   1.144  0.00  0.00    +0.156 HD
BRANCH  21  24
ATOM     24  C   UNL     1      -1.018   3.098   1.464  0.00  0.00    +0.189 A 
ATOM     25  C   UNL     1       0.338   3.102   1.623  0.00  0.00    +0.054 A 
ATOM     26  C   UNL     1       0.697   1.819   2.066  0.00  0.00    +0.042 A 
ATOM     27  C   UNL     1      -0.442   1.097   2.158  0.00  0.00    +0.196 A 
ATOM     28  O   UNL     1      -1.473   1.869   1.788  0.00  0.00    -0.458 OA
ENDBRANCH  21  24
ENDBRANCH   2  20
BRANCH   6  29
ATOM     29  C   UNL     1      -7.270   6.440  -0.561  0.00  0.00    +0.156 C 
BRANCH  29  30
ATOM     30  C   UNL     1      -8.080   6.644   0.720  0.00  0.00    +0.138 C 
ATOM     31  C   UNL     1      -9.589   6.600   0.398  0.00  0.00    +0.035 C 
ATOM     32  C   UNL     1     -10.156   7.715   1.319  0.00  0.00    +0.031 C 
ATOM     33  C   UNL     1      -8.987   8.732   1.302  0.00  0.00    +0.160 C 
ATOM     34  O   UNL     1      -7.794   7.932   1.277  0.00  0.00    -0.375 OA
ENDBRANCH  29  30
ENDBRANCH   6  29
TORSDOF 6
