REMARK  Name = ZINC01370707
REMARK  5 active torsions:
REMARK  status: ('A' for Active; 'I' for Inactive)
REMARK    1  A    between atoms: C_4  and  C_7
REMARK    2  A    between atoms: C_10  and  N_14
REMARK    3  A    between atoms: C_19  and  C_20
REMARK    4  A    between atoms: C_19  and  C_26
REMARK    5  A    between atoms: C_19  and  N_59
REMARK                            x       y       z     vdW  Elec       q    Type
REMARK                         _______ _______ _______ _____ _____    ______ ____
ROOT
ATOM      1  N   UNL     1      -2.225   7.219  -3.083  0.00  0.00    -0.318 N 
ATOM      2  C   UNL     1      -2.377   7.753  -1.723  0.00  0.00    +0.088 C 
ATOM      3  C   UNL     1      -1.197   7.296  -0.863  0.00  0.00    -0.058 C 
ATOM      4  C   UNL     1      -0.995   5.293  -2.207  0.00  0.00    -0.058 C 
ATOM      5  C   UNL     1      -2.175   5.750  -3.067  0.00  0.00    +0.088 C 
ATOM      6  N   UNL     1      -1.171   5.818  -0.837  0.00  0.00    +0.389 N 
ATOM      7  H   UNL     1      -2.063   5.476  -0.460  0.00  0.00    -0.080 HD
ENDROOT
BRANCH   1  11
ATOM      8  C   UNL     1      -4.222   7.250  -7.443  0.00  0.00    +0.106 A 
ATOM      9  C   UNL     1      -4.329   7.753  -6.084  0.00  0.00    +0.110 A 
ATOM     10  C   UNL     1      -3.292   7.296  -5.245  0.00  0.00    +0.098 A 
ATOM     11  C   UNL     1      -3.239   7.671  -3.910  0.00  0.00    +0.140 A 
ATOM     12  N   UNL     1      -4.189   8.483  -3.448  0.00  0.00    -0.220 NA
ATOM     13  C   UNL     1      -5.150   8.907  -4.250  0.00  0.00    +0.224 A 
ATOM     14  N   UNL     1      -5.239   8.572  -5.512  0.00  0.00    -0.233 NA
ATOM     15  S   UNL     1      -2.329   6.273  -6.322  0.00  0.00    +0.017 S 
ATOM     16  N   UNL     1      -3.233   6.454  -7.761  0.00  0.00    -0.208 NA
BRANCH   8  20
ATOM     17  C   UNL     1      -7.104   8.351 -10.367  0.00  0.00    +0.000 A 
ATOM     18  C   UNL     1      -5.782   8.176 -10.735  0.00  0.00    +0.001 A 
ATOM     19  C   UNL     1      -4.842   7.819  -9.790  0.00  0.00    +0.010 A 
ATOM     20  C   UNL     1      -5.227   7.634  -8.462  0.00  0.00    +0.003 A 
ATOM     21  C   UNL     1      -6.562   7.808  -8.099  0.00  0.00    +0.010 A 
ATOM     22  C   UNL     1      -7.492   8.170  -9.052  0.00  0.00    +0.001 A 
ENDBRANCH   8  20
ENDBRANCH   1  11
BRANCH   6  23
ATOM     23  C   UNL     1      -0.070   5.347   0.031  0.00  0.00    -0.007 C 
BRANCH  23  24
ATOM     24  C   UNL     1      -0.050   3.840   0.023  0.00  0.00    -0.057 A 
ATOM     25  C   UNL     1       1.156   3.165   0.008  0.00  0.00    +0.002 A 
ATOM     26  C   UNL     1       1.175   1.783   0.000  0.00  0.00    +0.000 A 
ATOM     27  C   UNL     1      -0.013   1.076   0.008  0.00  0.00    +0.000 A 
ATOM     28  C   UNL     1      -1.219   1.751   0.017  0.00  0.00    +0.000 A 
ATOM     29  C   UNL     1      -1.238   3.133   0.030  0.00  0.00    +0.002 A 
ENDBRANCH  23  24
BRANCH  23  30
ATOM     30  C   UNL     1      -0.311   5.838   1.435  0.00  0.00    -0.057 A 
ATOM     31  C   UNL     1      -1.593   5.858   1.951  0.00  0.00    +0.002 A 
ATOM     32  C   UNL     1      -1.813   6.304   3.241  0.00  0.00    +0.000 A 
ATOM     33  C   UNL     1      -0.751   6.740   4.011  0.00  0.00    +0.000 A 
ATOM     34  C   UNL     1       0.530   6.726   3.494  0.00  0.00    +0.000 A 
ATOM     35  C   UNL     1       0.751   6.275   2.206  0.00  0.00    +0.002 A 
ENDBRANCH  23  30
ENDBRANCH   6  23
TORSDOF 5
