REMARK  Name = ZINC37452387
REMARK  21 active torsions:
REMARK  status: ('A' for Active; 'I' for Inactive)
REMARK    1  A    between atoms: C_1  and  C_2
REMARK    2  A    between atoms: C_2  and  O_3
REMARK    3  A    between atoms: O_3  and  C_4
REMARK    4  A    between atoms: C_4  and  C_6
REMARK    5  A    between atoms: C_6  and  C_8
REMARK    6  A    between atoms: C_6  and  C_18
REMARK    7  A    between atoms: C_11  and  O_16
REMARK    8  A    between atoms: C_12  and  O_14
REMARK    9  A    between atoms: O_14  and  C_15
REMARK   10  A    between atoms: O_16  and  C_17
REMARK   11  A    between atoms: C_21  and  N_25
REMARK   12  A    between atoms: C_26  and  C_28
REMARK   13  A    between atoms: C_29  and  C_40
REMARK   14  A    between atoms: C_31  and  C_37
REMARK   15  A    between atoms: C_33  and  C_34
REMARK   16  A    between atoms: C_34  and  C_35
REMARK   17  A    between atoms: C_34  and  C_36
REMARK   18  A    between atoms: C_37  and  C_38
REMARK   19  A    between atoms: C_37  and  C_39
REMARK   20  A    between atoms: C_40  and  C_41
REMARK   21  A    between atoms: C_40  and  C_42
REMARK                            x       y       z     vdW  Elec       q    Type
REMARK                         _______ _______ _______ _____ _____    ______ ____
ROOT
ATOM      1  C   UNL     1      -3.682  -1.858  -1.156  0.00  0.00    +0.032 C 
ATOM      2  C   UNL     1      -3.718  -0.314  -1.086  0.00  0.00    +0.035 C 
ATOM      3  C   UNL     1      -5.048  -0.073  -0.335  0.00  0.00    +0.097 C 
ATOM      4  C   UNL     1      -5.875  -1.307  -0.611  0.00  0.00    -0.009 C 
ATOM      5  C   UNL     1      -5.129  -2.283  -1.061  0.00  0.00    -0.025 C 
ENDROOT
BRANCH   3   6
ATOM      6  N   UNL     1      -4.804   0.069   1.103  0.00  0.00    -0.305 N 
ATOM      7  C   UNL     1      -5.672   0.759   1.869  0.00  0.00    +0.245 C 
ATOM      8  O   UNL     1      -6.658   1.263   1.367  0.00  0.00    -0.270 OA
ATOM      9  H   UNL     1      -4.017  -0.333   1.503  0.00  0.00    +0.150 HD
BRANCH   7  10
ATOM     10  C   UNL     1      -5.426   0.902   3.320  0.00  0.00    +0.044 A 
ATOM     11  C   UNL     1      -4.691   1.986   3.802  0.00  0.00    -0.032 A 
ATOM     12  C   UNL     1      -4.465   2.114   5.157  0.00  0.00    +0.008 A 
ATOM     13  C   UNL     1      -4.964   1.171   6.037  0.00  0.00    -0.044 A 
ATOM     14  C   UNL     1      -5.693   0.094   5.565  0.00  0.00    +0.008 A 
ATOM     15  C   UNL     1      -5.932  -0.043   4.213  0.00  0.00    -0.032 A 
BRANCH  15  16
ATOM     16  C   UNL     1      -6.732  -1.213   3.702  0.00  0.00    +0.014 C 
ATOM     17  C   UNL     1      -6.034  -2.518   4.092  0.00  0.00    +0.012 C 
ATOM     18  C   UNL     1      -8.133  -1.181   4.317  0.00  0.00    +0.012 C 
ENDBRANCH  15  16
BRANCH  13  19
ATOM     19  C   UNL     1      -4.713   1.317   7.516  0.00  0.00    +0.013 C 
ATOM     20  C   UNL     1      -6.050   1.422   8.252  0.00  0.00    +0.012 C 
ATOM     21  C   UNL     1      -3.945   0.096   8.026  0.00  0.00    +0.012 C 
ENDBRANCH  13  19
BRANCH  11  22
ATOM     22  C   UNL     1      -4.145   3.014   2.845  0.00  0.00    +0.014 C 
ATOM     23  C   UNL     1      -4.725   4.388   3.187  0.00  0.00    +0.012 C 
ATOM     24  C   UNL     1      -2.620   3.061   2.962  0.00  0.00    +0.012 C 
ENDBRANCH  11  22
ENDBRANCH   7  10
ENDBRANCH   3   6
BRANCH   1  25
ATOM     25  C   UNL     1      -2.881  -2.427   0.017  0.00  0.00    +0.135 C 
BRANCH  25  26
ATOM     26  C   UNL     1      -2.959  -3.931  -0.004  0.00  0.00    -0.029 A 
ATOM     27  C   UNL     1      -2.486  -4.632  -1.098  0.00  0.00    +0.008 A 
ATOM     28  C   UNL     1      -2.555  -6.012  -1.122  0.00  0.00    +0.050 A 
ATOM     29  C   UNL     1      -3.100  -6.697  -0.048  0.00  0.00    +0.162 A 
ATOM     30  C   UNL     1      -3.577  -5.992   1.054  0.00  0.00    +0.162 A 
ATOM     31  C   UNL     1      -3.499  -4.609   1.073  0.00  0.00    +0.053 A 
BRANCH  30  32
ATOM     32  O   UNL     1      -4.112  -6.660   2.110  0.00  0.00    -0.491 OA
ATOM     33  C   UNL     1      -4.581  -5.871   3.206  0.00  0.00    +0.277 C 
ENDBRANCH  30  32
BRANCH  29  34
ATOM     34  O   UNL     1      -3.170  -8.055  -0.070  0.00  0.00    -0.491 OA
ATOM     35  C   UNL     1      -2.662  -8.712  -1.233  0.00  0.00    +0.277 C 
ENDBRANCH  29  34
ENDBRANCH  25  26
BRANCH  25  36
ATOM     36  C   UNL     1      -1.442  -1.997  -0.103  0.00  0.00    +0.315 C 
ATOM     37  O   UNL     1      -0.942  -1.854  -1.194  0.00  0.00    -0.250 OA
BRANCH  36  38
ATOM     38  O   UNL     1      -0.714  -1.772   1.002  0.00  0.00    -0.464 OA
BRANCH  38  40
ATOM     39  C   UNL     1       1.307  -1.161   2.178  0.00  0.00    +0.048 C 
ATOM     40  C   UNL     1       0.644  -1.368   0.815  0.00  0.00    +0.229 C 
ENDBRANCH  38  40
ENDBRANCH  36  38
ENDBRANCH  25  36
ENDBRANCH   1  25
TORSDOF 12
