REMARK  Name = ZINC09282030
REMARK  7 active torsions:
REMARK  status: ('A' for Active; 'I' for Inactive)
REMARK    1  A    between atoms: C_1  and  C_2
REMARK    2  A    between atoms: C_8  and  C_9
REMARK    3  A    between atoms: C_8  and  N_53
REMARK    4  A    between atoms: C_10  and  O_32
REMARK    5  A    between atoms: C_16  and  C_28
REMARK    6  A    between atoms: C_17  and  O_20
REMARK    7  A    between atoms: O_20  and  C_21
REMARK                            x       y       z     vdW  Elec       q    Type
REMARK                         _______ _______ _______ _____ _____    ______ ____
ROOT
ATOM      1  C   UNL     1       3.512  -0.894  -0.037  0.00  0.00    +0.020 A 
ATOM      2  C   UNL     1       4.748  -0.269  -0.046  0.00  0.00    +0.122 A 
ATOM      3  C   UNL     1       4.839   1.121  -0.039  0.00  0.00    +0.046 A 
ATOM      4  C   UNL     1       3.708   1.887  -0.024  0.00  0.00    +0.019 A 
ATOM      5  C   UNL     1       2.456   1.272  -0.015  0.00  0.00    +0.068 A 
ATOM      6  C   UNL     1       2.354  -0.130  -0.021  0.00  0.00    +0.144 A 
ATOM      7  O   UNL     1       1.138  -0.713  -0.013  0.00  0.00    -0.447 OA
ATOM      8  C   UNL     1       0.002  -0.004   0.002  0.00  0.00    +0.254 A 
ATOM      9  C   UNL     1      -0.016   1.344   0.009  0.00  0.00    +0.222 A 
ATOM     10  C   UNL     1       1.213   2.063   0.002  0.00  0.00    +0.235 A 
ATOM     11  O   UNL     1       1.235   3.282   0.008  0.00  0.00    -0.283 OA
ENDROOT
BRANCH   8  12
ATOM     12  C   UNL     1      -1.311  -0.744   0.010  0.00  0.00    +0.454 C 
ATOM     13  F   UNL     1      -1.729  -0.966  -1.306  0.00  0.00    -0.163 F 
ATOM     14  F   UNL     1      -1.150  -1.972   0.661  0.00  0.00    -0.163 F 
ATOM     15  F   UNL     1      -2.272   0.019   0.682  0.00  0.00    -0.163 F 
ENDBRANCH   8  12
BRANCH   2  16
ATOM     16  O   UNL     1       5.880  -1.018  -0.061  0.00  0.00    -0.506 OA
ATOM     17  H   UNL     1       6.199  -1.229  -0.949  0.00  0.00    +0.292 HD
ENDBRANCH   2  16
BRANCH   1  18
ATOM     18  C   UNL     1       3.425  -2.399  -0.045  0.00  0.00    -0.036 C 
BRANCH  18  25
ATOM     19  C   UNL     1       3.527  -6.337  -2.990  0.00  0.00    +0.005 C 
ATOM     20  C   UNL     1       3.345  -4.819  -2.928  0.00  0.00    -0.031 C 
ATOM     21  C   UNL     1       4.381  -4.143  -3.830  0.00  0.00    -0.001 C 
ATOM     22  C   UNL     1       4.231  -2.623  -3.716  0.00  0.00    -0.018 C 
ATOM     23  C   UNL     1       4.399  -2.207  -2.253  0.00  0.00    -0.078 C 
ATOM     24  C   UNL     1       3.538  -4.339  -1.488  0.00  0.00    -0.075 C 
ATOM     25  N   UNL     1       3.357  -2.873  -1.442  0.00  0.00    +0.383 N 
ATOM     26  H   UNL     1       2.435  -2.639  -1.829  0.00  0.00    -0.081 HD
ENDBRANCH  18  25
ENDBRANCH   1  18
BRANCH   9  27
ATOM     27  O   UNL     1      -1.202   2.013   0.019  0.00  0.00    -0.447 OA
BRANCH  27  28
ATOM     28  C   UNL     1      -1.751   2.320   1.223  0.00  0.00    +0.143 A 
ATOM     29  C   UNL     1      -1.109   1.948   2.395  0.00  0.00    +0.047 A 
ATOM     30  C   UNL     1      -1.668   2.266   3.618  0.00  0.00    +0.004 A 
ATOM     31  C   UNL     1      -2.871   2.945   3.675  0.00  0.00    +0.001 A 
ATOM     32  C   UNL     1      -3.516   3.312   2.509  0.00  0.00    +0.019 A 
ATOM     33  C   UNL     1      -2.959   3.002   1.282  0.00  0.00    +0.060 A 
ATOM     34 BR   UNL     1      -3.842   3.505  -0.313  0.00  0.00    -0.046 Br
ENDBRANCH  27  28
ENDBRANCH   9  27
TORSDOF 6
