REMARK  Name = ZINC09860577
REMARK  6 active torsions:
REMARK  status: ('A' for Active; 'I' for Inactive)
REMARK    1  A    between atoms: C_1  and  C_2
REMARK    2  A    between atoms: C_5  and  C_36
REMARK    3  A    between atoms: C_6  and  N_8
REMARK    4  A    between atoms: C_14  and  C_16
REMARK    5  A    between atoms: C_16  and  C_17
REMARK    6  A    between atoms: C_20  and  N_23
REMARK                            x       y       z     vdW  Elec       q    Type
REMARK                         _______ _______ _______ _____ _____    ______ ____
ROOT
ATOM      1  C   UNL     1      -0.928  -4.843   8.207  0.00  0.00    -0.038 A 
ATOM      2  C   UNL     1      -0.773  -6.218   8.182  0.00  0.00    +0.006 A 
ATOM      3  C   UNL     1      -0.506  -6.907   9.347  0.00  0.00    +0.028 A 
ATOM      4  C   UNL     1      -0.393  -6.213  10.554  0.00  0.00    +0.067 A 
ATOM      5  C   UNL     1      -0.550  -4.826  10.572  0.00  0.00    +0.028 A 
ATOM      6  C   UNL     1      -0.811  -4.149   9.399  0.00  0.00    +0.006 A 
ENDROOT
BRANCH   4   7
ATOM      7  N   UNL     1      -0.128  -6.891  11.714  0.00  0.00    -0.226 NA
ATOM      8  C   UNL     1       0.774  -6.431  12.552  0.00  0.00    +0.155 C 
ATOM      9  N   UNL     1       1.167  -6.983  13.752  0.00  0.00    -0.318 N 
ATOM     10  C   UNL     1       2.236  -6.341  14.498  0.00  0.00    +0.108 C 
ATOM     11  C   UNL     1       2.035  -6.521  16.014  0.00  0.00    +0.189 C 
ATOM     12  S   UNL     1       1.208  -4.958  16.516  0.00  0.00    -0.028 S 
ATOM     13  O   UNL     1       2.061  -4.250  17.406  0.00  0.00    -0.174 OA
ATOM     14  O   UNL     1      -0.126  -5.247  16.909  0.00  0.00    -0.174 OA
ATOM     15  C   UNL     1       1.181  -4.089  14.894  0.00  0.00    +0.182 C 
ATOM     16  C   UNL     1       2.303  -4.824  14.152  0.00  0.00    +0.097 C 
ATOM     17  S   UNL     1       1.770  -4.955  12.385  0.00  0.00    -0.084 S 
ATOM     18  H   UNL     1       0.738  -7.784  14.092  0.00  0.00    +0.148 HD
ENDBRANCH   4   7
BRANCH   1  19
ATOM     19  C   UNL     1      -1.220  -4.098   6.930  0.00  0.00    +0.131 C 
BRANCH  19  26
ATOM     20  N   UNL     1       0.051  -2.796   2.390  0.00  0.00    -0.327 N 
ATOM     21  C   UNL     1       1.324  -3.153   3.032  0.00  0.00    +0.124 C 
ATOM     22  C   UNL     1       1.319  -2.611   4.467  0.00  0.00    +0.126 C 
ATOM     23  N   UNL     1       0.062  -3.011   5.115  0.00  0.00    -0.298 N 
ATOM     24  C   UNL     1      -1.211  -2.655   4.473  0.00  0.00    +0.126 C 
ATOM     25  C   UNL     1      -1.206  -3.192   3.041  0.00  0.00    +0.124 C 
ATOM     26  C   UNL     1       0.077  -3.694   6.277  0.00  0.00    +0.220 C 
ATOM     27  O   UNL     1       1.133  -3.983   6.797  0.00  0.00    -0.275 OA
BRANCH  20  33
ATOM     28  C   UNL     1      -0.018   1.503   0.010  0.00  0.00    +0.044 C 
ATOM     29  C   UNL     1       0.002  -0.004   0.002  0.00  0.00    -0.049 A 
ATOM     30  C   UNL     1       0.006  -0.688  -1.200  0.00  0.00    +0.004 A 
ATOM     31  C   UNL     1       0.024  -2.071  -1.212  0.00  0.00    +0.005 A 
ATOM     32  C   UNL     1       0.039  -2.773  -0.023  0.00  0.00    -0.029 A 
ATOM     33  C   UNL     1       0.036  -2.089   1.186  0.00  0.00    +0.033 A 
ATOM     34  C   UNL     1       0.023  -0.700   1.194  0.00  0.00    +0.026 A 
ATOM     35  C   UNL     1       0.059  -4.280  -0.037  0.00  0.00    +0.045 C 
ENDBRANCH  20  33
ENDBRANCH  19  26
ENDBRANCH   1  19
TORSDOF 4
