REMARK  Name = ZINC02260084
REMARK  13 active torsions:
REMARK  status: ('A' for Active; 'I' for Inactive)
REMARK    1  A    between atoms: C_1  and  C_2
REMARK    2  A    between atoms: C_2  and  O_3
REMARK    3  A    between atoms: O_3  and  C_4
REMARK    4  A    between atoms: C_4  and  C_6
REMARK    5  A    between atoms: C_7  and  C_31
REMARK    6  A    between atoms: N_8  and  C_30
REMARK    7  A    between atoms: C_11  and  N_17
REMARK    8  A    between atoms: C_12  and  O_15
REMARK    9  A    between atoms: O_15  and  C_16
REMARK   10  A    between atoms: C_18  and  C_20
REMARK   11  A    between atoms: C_20  and  N_63
REMARK   12  A    between atoms: C_22  and  C_29
REMARK   13  A    between atoms: C_25  and  C_28
REMARK                            x       y       z     vdW  Elec       q    Type
REMARK                         _______ _______ _______ _____ _____    ______ ____
ROOT
ATOM      1  C   UNL     1      -0.605   3.996   1.071  0.00  0.00    +0.089 A 
ATOM      2  C   UNL     1      -1.133   4.975   0.282  0.00  0.00    +0.030 A 
ATOM      3  N   UNL     1      -2.485   4.939   0.351  0.00  0.00    -0.346 N 
ATOM      4  C   UNL     1      -2.898   3.933   1.203  0.00  0.00    +0.052 A 
ATOM      5  C   UNL     1      -1.746   3.298   1.692  0.00  0.00    +0.039 A 
ATOM      6  C   UNL     1      -1.860   2.230   2.585  0.00  0.00    +0.086 A 
ATOM      7  C   UNL     1      -3.120   1.804   2.984  0.00  0.00    +0.142 A 
ATOM      8  C   UNL     1      -4.257   2.436   2.496  0.00  0.00    +0.049 A 
ATOM      9  C   UNL     1      -4.151   3.491   1.615  0.00  0.00    +0.030 A 
ATOM     10  C   UNL     1      -3.384   5.844  -0.371  0.00  0.00    +0.149 C 
ATOM     11  C   UNL     1      -0.333   5.948  -0.546  0.00  0.00    +0.064 C 
ENDROOT
BRANCH   6  12
ATOM     12  N   UNL     1      -0.713   1.594   3.075  0.00  0.00    -0.284 N 
ATOM     13  C   UNL     1      -0.305   1.820   4.340  0.00  0.00    +0.201 C 
ATOM     14  O   UNL     1      -0.978   2.506   5.080  0.00  0.00    -0.278 OA
ATOM     15  H   UNL     1      -0.211   0.992   2.505  0.00  0.00    +0.155 HD
BRANCH  13  16
ATOM     16  C   UNL     1       0.986   1.221   4.834  0.00  0.00    +0.019 C 
BRANCH  16  24
ATOM     17  C   UNL     1       2.321   0.862   6.822  0.00  0.00    -0.075 C 
ATOM     18  C   UNL     1       2.425   1.187   8.314  0.00  0.00    -0.031 C 
ATOM     19  C   UNL     1       2.649   2.692   8.489  0.00  0.00    +0.003 C 
ATOM     20  C   UNL     1       1.497   3.451   7.824  0.00  0.00    -0.031 C 
ATOM     21  C   UNL     1       1.419   3.060   6.347  0.00  0.00    -0.075 C 
ATOM     22  C   UNL     1       1.743   4.957   7.942  0.00  0.00    +0.005 C 
ATOM     23  C   UNL     1       3.602   0.421   8.922  0.00  0.00    +0.005 C 
ATOM     24  N   UNL     1       1.179   1.605   6.248  0.00  0.00    +0.386 N 
ATOM     25  H   UNL     1       0.330   1.371   6.776  0.00  0.00    -0.081 HD
ENDBRANCH  16  24
ENDBRANCH  13  16
ENDBRANCH   6  12
BRANCH   1  26
ATOM     26  C   UNL     1       0.819   3.699   1.269  0.00  0.00    +0.342 C 
ATOM     27  O   UNL     1       1.380   2.903   0.542  0.00  0.00    -0.245 OA
BRANCH  26  28
ATOM     28  O   UNL     1       1.505   4.314   2.253  0.00  0.00    -0.461 OA
BRANCH  28  30
ATOM     29  C   UNL     1       3.517   4.768   3.548  0.00  0.00    +0.048 C 
ATOM     30  C   UNL     1       2.911   3.977   2.386  0.00  0.00    +0.229 C 
ENDBRANCH  28  30
ENDBRANCH  26  28
ENDBRANCH   1  26
BRANCH   7  31
ATOM     31  O   UNL     1      -3.242   0.764   3.853  0.00  0.00    -0.493 OA
ATOM     32  C   UNL     1      -4.567   0.377   4.221  0.00  0.00    +0.277 C 
ENDBRANCH   7  31
TORSDOF 7
