REMARK  Name = ZINC04451558
REMARK  4 active torsions:
REMARK  status: ('A' for Active; 'I' for Inactive)
REMARK    1  A    between atoms: C_4  and  O_22
REMARK    2  A    between atoms: C_5  and  C_7
REMARK    3  A    between atoms: C_9  and  C_14
REMARK    4  A    between atoms: C_15  and  C_16
REMARK                            x       y       z     vdW  Elec       q    Type
REMARK                         _______ _______ _______ _____ _____    ______ ____
ROOT
ATOM      1  C   UNL     1       1.246  -2.164  -0.023  0.00  0.00    +0.169 A 
ATOM      2  N   UNL     1       0.106  -2.849  -0.021  0.00  0.00    -0.208 NA
ATOM      3  C   UNL     1       0.131  -4.181  -0.029  0.00  0.00    +0.158 A 
ATOM      4  N   UNL     1       1.298  -4.825  -0.040  0.00  0.00    -0.195 NA
ATOM      5  C   UNL     1       2.435  -4.138  -0.041  0.00  0.00    +0.216 A 
ATOM      6  N   UNL     1       2.410  -2.808  -0.038  0.00  0.00    -0.195 NA
ATOM      7  N   UNL     1       3.644  -4.805  -0.051  0.00  0.00    -0.327 N 
ATOM      8  H   UNL     1       3.663  -5.774  -0.057  0.00  0.00    +0.145 HD
ATOM      9  H   UNL     1       4.474  -4.303  -0.052  0.00  0.00    +0.145 HD
ENDROOT
BRANCH   1  14
ATOM     10  C   UNL     1      -0.017   1.375   0.010  0.00  0.00    +0.001 A 
ATOM     11  C   UNL     1       1.170   2.089   0.002  0.00  0.00    +0.004 A 
ATOM     12  C   UNL     1       2.382   1.427  -0.013  0.00  0.00    +0.046 A 
ATOM     13  C   UNL     1       2.417   0.041  -0.021  0.00  0.00    +0.128 A 
ATOM     14  C   UNL     1       1.220  -0.683  -0.014  0.00  0.00    +0.061 A 
ATOM     15  C   UNL     1       0.002  -0.004   0.002  0.00  0.00    +0.015 A 
BRANCH  13  16
ATOM     16  O   UNL     1       3.608  -0.610  -0.037  0.00  0.00    -0.506 OA
ATOM     17  H   UNL     1       3.962  -0.804   0.842  0.00  0.00    +0.292 HD
ENDBRANCH  13  16
ENDBRANCH   1  14
BRANCH   3  18
ATOM     18  C   UNL     1      -1.130  -4.942  -0.027  0.00  0.00    +0.049 C 
ATOM     19  C   UNL     1      -1.105  -6.285  -0.035  0.00  0.00    +0.011 C 
BRANCH  19  20
ATOM     20  C   UNL     1      -2.367  -7.046  -0.033  0.00  0.00    -0.022 A 
ATOM     21  C   UNL     1      -3.605  -6.389  -0.028  0.00  0.00    +0.027 A 
ATOM     22  C   UNL     1      -4.761  -7.142  -0.026  0.00  0.00    +0.111 A 
ATOM     23  N   UNL     1      -4.711  -8.460  -0.028  0.00  0.00    -0.263 NA
ATOM     24  C   UNL     1      -3.568  -9.119  -0.033  0.00  0.00    +0.111 A 
ATOM     25  C   UNL     1      -2.363  -8.448  -0.042  0.00  0.00    +0.027 A 
ENDBRANCH  19  20
ENDBRANCH   3  18
TORSDOF 4
