REMARK  Name = ZINC42954973
REMARK  7 active torsions:
REMARK  status: ('A' for Active; 'I' for Inactive)
REMARK    1  A    between atoms: C_1  and  C_2
REMARK    2  A    between atoms: C_2  and  C_3
REMARK    3  A    between atoms: C_3  and  C_5
REMARK    4  A    between atoms: C_3  and  N_24
REMARK    5  A    between atoms: C_5  and  C_7
REMARK    6  A    between atoms: C_5  and  N_14
REMARK    7  A    between atoms: C_19  and  C_21
REMARK                            x       y       z     vdW  Elec       q    Type
REMARK                         _______ _______ _______ _____ _____    ______ ____
ROOT
ATOM      1  C   UNL     1      -2.674  -3.230  -0.051  0.00  0.00    -0.052 C 
ENDROOT
BRANCH   1   2
ATOM      2  C   UNL     1      -1.895  -3.275  -1.341  0.00  0.00    -0.062 A 
ATOM      3  C   UNL     1      -1.146  -2.182  -1.734  0.00  0.00    +0.003 A 
ATOM      4  C   UNL     1      -0.431  -2.224  -2.916  0.00  0.00    +0.015 A 
ATOM      5  C   UNL     1      -0.465  -3.359  -3.706  0.00  0.00    +0.018 A 
ATOM      6  C   UNL     1      -1.216  -4.452  -3.312  0.00  0.00    +0.015 A 
ATOM      7  C   UNL     1      -1.926  -4.412  -2.127  0.00  0.00    +0.003 A 
ATOM      8 BR   UNL     1       0.512  -3.416  -5.323  0.00  0.00    -0.050 Br
ENDBRANCH   1   2
BRANCH   1   9
ATOM      9  N   UNL     1      -1.770  -2.890   1.055  0.00  0.00    +0.391 N 
ATOM     10  C   UNL     1      -2.536  -2.252   2.133  0.00  0.00    -0.077 C 
ATOM     11  C   UNL     1      -1.587  -1.823   3.253  0.00  0.00    -0.019 C 
ATOM     12  C   UNL     1      -0.862  -3.056   3.801  0.00  0.00    -0.003 C 
ATOM     13  C   UNL     1      -0.128  -3.756   2.654  0.00  0.00    -0.006 C 
ATOM     14  C   UNL     1      -1.131  -4.113   1.556  0.00  0.00    +0.020 C 
ATOM     15  H   UNL     1      -1.062  -2.252   0.726  0.00  0.00    -0.080 HD
BRANCH  14  16
ATOM     16  C   UNL     1      -0.412  -4.802   0.425  0.00  0.00    +0.197 C 
ATOM     17  O   UNL     1       0.314  -4.166  -0.310  0.00  0.00    -0.278 OA
ATOM     18  N   UNL     1      -0.576  -6.126   0.229  0.00  0.00    -0.331 N 
ATOM     19  H   UNL     1      -1.157  -6.635   0.816  0.00  0.00    +0.145 HD
ATOM     20  H   UNL     1      -0.113  -6.569  -0.499  0.00  0.00    +0.145 HD
ENDBRANCH  14  16
ENDBRANCH   1   9
BRANCH   1  21
ATOM     21  C   UNL     1      -3.773  -2.170  -0.156  0.00  0.00    -0.085 C 
BRANCH  21  22
ATOM     22  N   UNL     1      -4.606  -2.443  -1.335  0.00  0.00    +0.379 N 
ATOM     23  H   UNL     1      -5.027  -3.356  -1.245  0.00  0.00    -0.090 HD
ATOM     24  H   UNL     1      -5.330  -1.744  -1.404  0.00  0.00    -0.090 HD
ATOM     25  H   UNL     1      -4.033  -2.417  -2.165  0.00  0.00    -0.090 HD
ENDBRANCH  21  22
BRANCH  21  27
ATOM     26  C   UNL     1      -4.228   0.284  -0.272  0.00  0.00    +0.002 C 
ATOM     27  C   UNL     1      -3.135  -0.786  -0.292  0.00  0.00    -0.021 C 
ENDBRANCH  21  27
ENDBRANCH   1  21
TORSDOF 6
