REMARK  Name = ZINC40744493
REMARK  10 active torsions:
REMARK  status: ('A' for Active; 'I' for Inactive)
REMARK    1  A    between atoms: C_1  and  C_2
REMARK    2  A    between atoms: C_7  and  C_8
REMARK    3  A    between atoms: C_8  and  O_9
REMARK    4  A    between atoms: O_9  and  C_10
REMARK    5  A    between atoms: C_19  and  C_20
REMARK    6  A    between atoms: C_20  and  N_21
REMARK    7  A    between atoms: N_21  and  C_22
REMARK    8  A    between atoms: C_22  and  C_23
REMARK    9  A    between atoms: C_23  and  N_24
REMARK   10  A    between atoms: C_25  and  C_27
REMARK                            x       y       z     vdW  Elec       q    Type
REMARK                         _______ _______ _______ _____ _____    ______ ____
ROOT
ATOM      1  C   UNL     1       0.053  -0.377   4.844  0.00  0.00    +0.123 A 
ATOM      2  C   UNL     1       0.030   1.010   5.024  0.00  0.00    +0.046 A 
ATOM      3  C   UNL     1       0.035   1.553   6.271  0.00  0.00    +0.012 A 
ATOM      4  C   UNL     1       0.062   0.712   7.397  0.00  0.00    -0.017 A 
ATOM      5  C   UNL     1       0.067   1.239   8.700  0.00  0.00    +0.008 A 
ATOM      6  C   UNL     1       0.093   0.396   9.768  0.00  0.00    +0.001 A 
ATOM      7  C   UNL     1       0.116  -0.986   9.591  0.00  0.00    +0.001 A 
ATOM      8  C   UNL     1       0.112  -1.533   8.345  0.00  0.00    +0.009 A 
ATOM      9  C   UNL     1       0.085  -0.694   7.217  0.00  0.00    -0.013 A 
ATOM     10  C   UNL     1       0.075  -1.223   5.916  0.00  0.00    -0.015 A 
ENDROOT
BRANCH   1  11
ATOM     11  O   UNL     1       0.048  -0.889   3.585  0.00  0.00    -0.487 OA
BRANCH  11  12
ATOM     12  C   UNL     1       0.025   0.045   2.504  0.00  0.00    +0.264 C 
BRANCH  12  19
ATOM     13  C   UNL     1      -0.018   1.503   0.010  0.00  0.00    +0.044 C 
ATOM     14  C   UNL     1       0.002  -0.004   0.002  0.00  0.00    -0.044 A 
ATOM     15  C   UNL     1       0.006  -0.689  -1.199  0.00  0.00    +0.004 A 
ATOM     16  C   UNL     1       0.025  -2.071  -1.207  0.00  0.00    +0.000 A 
ATOM     17  C   UNL     1       0.040  -2.768  -0.013  0.00  0.00    +0.000 A 
ATOM     18  C   UNL     1       0.037  -2.084   1.188  0.00  0.00    +0.007 A 
ATOM     19  C   UNL     1       0.023  -0.702   1.195  0.00  0.00    -0.007 A 
ENDBRANCH  12  19
ENDBRANCH  11  12
ENDBRANCH   1  11
BRANCH  10  20
ATOM     20  C   UNL     1       0.093  -2.715   5.704  0.00  0.00    -0.042 C 
BRANCH  20  21
ATOM     21  N   UNL     1       1.484  -3.180   5.622  0.00  0.00    +0.383 N 
ATOM     22  H   UNL     1       1.946  -2.725   4.849  0.00  0.00    -0.085 HD
ATOM     23  H   UNL     1       1.965  -2.957   6.480  0.00  0.00    -0.085 HD
BRANCH  21  24
ATOM     24  C   UNL     1       1.502  -4.635   5.415  0.00  0.00    -0.063 C 
BRANCH  24  25
ATOM     25  C   UNL     1       2.950  -5.120   5.330  0.00  0.00    +0.085 C 
BRANCH  25  26
ATOM     26  N   UNL     1       2.968  -6.571   5.124  0.00  0.00    -0.312 N 
ATOM     27  C   UNL     1       4.143  -7.222   5.018  0.00  0.00    +0.269 C 
ATOM     28  O   UNL     1       5.188  -6.606   5.093  0.00  0.00    -0.268 OA
ATOM     29  H   UNL     1       2.134  -7.062   5.063  0.00  0.00    +0.149 HD
BRANCH  27  30
ATOM     30  C   UNL     1       4.161  -8.688   4.809  0.00  0.00    +0.209 A 
ATOM     31  C   UNL     1       5.360  -9.524   4.683  0.00  0.00    +0.192 A 
ATOM     32  N   UNL     1       4.981 -10.761   4.510  0.00  0.00    -0.033 NA
ATOM     33  O   UNL     1       3.565 -10.788   4.515  0.00  0.00    -0.240 OA
ATOM     34  N   UNL     1       3.110  -9.461   4.712  0.00  0.00    -0.042 NA
ATOM     35  N   UNL     1       6.673  -9.076   4.738  0.00  0.00    -0.339 N 
ATOM     36  H   UNL     1       6.858  -8.133   4.871  0.00  0.00    +0.144 HD
ATOM     37  H   UNL     1       7.404  -9.706   4.644  0.00  0.00    +0.144 HD
ENDBRANCH  27  30
ENDBRANCH  25  26
ENDBRANCH  24  25
ENDBRANCH  21  24
ENDBRANCH  20  21
ENDBRANCH  10  20
TORSDOF 9
