REMARK  Name = ZINC06014919
REMARK  15 active torsions:
REMARK  status: ('A' for Active; 'I' for Inactive)
REMARK    1  A    between atoms: C_1  and  C_2
REMARK    2  A    between atoms: C_2  and  C_3
REMARK    3  A    between atoms: C_2  and  C_4
REMARK    4  A    between atoms: C_2  and  N_5
REMARK    5  A    between atoms: C_6  and  C_10
REMARK    6  A    between atoms: C_10  and  C_12
REMARK    7  A    between atoms: C_10  and  N_71
REMARK    8  A    between atoms: C_16  and  O_24
REMARK    9  A    between atoms: O_24  and  C_25
REMARK   10  A    between atoms: C_26  and  C_27
REMARK   11  A    between atoms: C_26  and  N_71
REMARK   12  A    between atoms: C_30  and  O_33
REMARK   13  A    between atoms: O_33  and  C_34
REMARK   14  A    between atoms: C_35  and  C_36
REMARK   15  A    between atoms: C_35  and  N_71
REMARK                            x       y       z     vdW  Elec       q    Type
REMARK                         _______ _______ _______ _____ _____    ______ ____
ROOT
ATOM      1  C   UNL     1       3.347   0.853  -0.788  0.00  0.00    +0.040 C 
ENDROOT
BRANCH   1   2
ATOM      2  C   UNL     1       3.690   1.586  -2.059  0.00  0.00    +0.011 A 
ATOM      3  C   UNL     1       4.654   1.100  -2.880  0.00  0.00    +0.017 A 
ATOM      4  C   UNL     1       4.965   1.836  -4.107  0.00  0.00    +0.002 A 
ATOM      5  C   UNL     1       5.949   1.383  -4.992  0.00  0.00    +0.055 A 
ATOM      6  C   UNL     1       6.216   2.100  -6.140  0.00  0.00    +0.121 A 
ATOM      7  C   UNL     1       5.511   3.270  -6.418  0.00  0.00    +0.047 A 
ATOM      8  C   UNL     1       4.541   3.727  -5.555  0.00  0.00    +0.030 A 
ATOM      9  C   UNL     1       4.255   3.018  -4.392  0.00  0.00    +0.049 A 
ATOM     10  N   UNL     1       3.286   3.459  -3.515  0.00  0.00    -0.322 N 
ATOM     11  H   UNL     1       2.785   4.301  -3.716  0.00  0.00    +0.169 HD
ATOM     12  C   UNL     1       3.004   2.773  -2.393  0.00  0.00    +0.251 A 
ATOM     13  O   UNL     1       2.137   3.189  -1.644  0.00  0.00    -0.268 OA
BRANCH   6  14
ATOM     14  O   UNL     1       7.171   1.665  -7.003  0.00  0.00    -0.495 OA
ATOM     15  C   UNL     1       7.398   2.454  -8.172  0.00  0.00    +0.277 C 
ENDBRANCH   6  14
ENDBRANCH   1   2
BRANCH   1  17
ATOM     16  N   UNL     1       1.469  -0.845  -1.102  0.00  0.00    -0.225 N 
ATOM     17  C   UNL     1       1.910   0.400  -0.843  0.00  0.00    +0.143 A 
ATOM     18  N   UNL     1       0.848   1.141  -0.645  0.00  0.00    -0.115 NA
ATOM     19  N   UNL     1      -0.191   0.391  -0.777  0.00  0.00    -0.023 NA
ATOM     20  N   UNL     1       0.180  -0.810  -1.053  0.00  0.00    -0.043 NA
BRANCH  16  22
ATOM     21  C   UNL     1       1.397  -3.204  -1.743  0.00  0.00    +0.036 C 
ATOM     22  C   UNL     1       2.297  -2.020  -1.387  0.00  0.00    +0.059 C 
ATOM     23  C   UNL     1       3.228  -1.715  -2.563  0.00  0.00    +0.036 C 
ATOM     24  C   UNL     1       3.132  -2.367  -0.152  0.00  0.00    +0.036 C 
ENDBRANCH  16  22
ENDBRANCH   1  17
BRANCH   1  25
ATOM     25  N   UNL     1       3.513   1.767   0.360  0.00  0.00    +0.397 N 
ATOM     26  H   UNL     1       2.743   2.446   0.360  0.00  0.00    -0.079 HD
BRANCH  25  27
ATOM     27  C   UNL     1       4.794   2.495   0.245  0.00  0.00    -0.041 C 
BRANCH  27  28
ATOM     28  C   UNL     1       4.866   3.531   1.337  0.00  0.00    -0.064 A 
ATOM     29  C   UNL     1       4.259   4.761   1.162  0.00  0.00    +0.005 A 
ATOM     30  C   UNL     1       4.319   5.711   2.164  0.00  0.00    +0.046 A 
ATOM     31  C   UNL     1       4.997   5.433   3.341  0.00  0.00    +0.120 A 
ATOM     32  C   UNL     1       5.610   4.200   3.512  0.00  0.00    +0.046 A 
ATOM     33  C   UNL     1       5.543   3.252   2.510  0.00  0.00    +0.005 A 
BRANCH  31  34
ATOM     34  O   UNL     1       5.062   6.367   4.327  0.00  0.00    -0.495 OA
ATOM     35  C   UNL     1       4.408   7.614   4.082  0.00  0.00    +0.277 C 
ENDBRANCH  31  34
ENDBRANCH  27  28
ENDBRANCH  25  27
BRANCH  25  36
ATOM     36  C   UNL     1       3.479   1.002   1.625  0.00  0.00    -0.001 C 
BRANCH  36  37
ATOM     37  C   UNL     1       2.041   0.746   1.994  0.00  0.00    +0.089 A 
ATOM     38  C   UNL     1       1.353  -0.382   1.742  0.00  0.00    +0.042 A 
ATOM     39  C   UNL     1       0.050  -0.191   2.256  0.00  0.00    +0.041 A 
ATOM     40  C   UNL     1       0.019   1.042   2.792  0.00  0.00    +0.195 A 
ATOM     41  O   UNL     1       1.230   1.603   2.635  0.00  0.00    -0.470 OA
ENDBRANCH  36  37
ENDBRANCH  25  36
ENDBRANCH   1  25
TORSDOF 10
