REMARK  Name = ZINC49239334
REMARK  7 active torsions:
REMARK  status: ('A' for Active; 'I' for Inactive)
REMARK    1  A    between atoms: C_1  and  C_2
REMARK    2  A    between atoms: C_5  and  C_7
REMARK    3  A    between atoms: C_7  and  N_8
REMARK    4  A    between atoms: N_8  and  S_9
REMARK    5  A    between atoms: S_9  and  C_12
REMARK    6  A    between atoms: C_14  and  S_19
REMARK    7  A    between atoms: S_19  and  C_22
REMARK                            x       y       z     vdW  Elec       q    Type
REMARK                         _______ _______ _______ _____ _____    ______ ____
ROOT
ATOM      1  C   UNL     1       0.088  -5.129   3.013  0.00  0.00    +0.121 A 
ATOM      2  C   UNL     1      -1.126  -5.645   2.601  0.00  0.00    +0.056 A 
ATOM      3  C   UNL     1      -1.172  -6.854   1.933  0.00  0.00    +0.090 A 
ATOM      4  C   UNL     1      -0.004  -7.548   1.676  0.00  0.00    +0.028 A 
ATOM      5  C   UNL     1       1.210  -7.032   2.087  0.00  0.00    +0.019 A 
ATOM      6  C   UNL     1       1.258  -5.819   2.752  0.00  0.00    +0.044 A 
ATOM      7 BR   UNL     1       2.920  -5.110   3.309  0.00  0.00    -0.048 Br
ENDROOT
BRANCH   3   8
ATOM      8  S   UNL     1      -2.720  -7.512   1.408  0.00  0.00    -0.006 S 
ATOM      9  O   UNL     1      -2.516  -8.917   1.349  0.00  0.00    -0.170 OA
ATOM     10  O   UNL     1      -3.673  -6.956   2.304  0.00  0.00    -0.170 OA
ATOM     11  C   UNL     1      -2.969  -6.847  -0.261  0.00  0.00    +0.200 C 
ENDBRANCH   3   8
BRANCH   1  12
ATOM     12  S   UNL     1       0.147  -3.587   3.864  0.00  0.00    +0.060 S 
ATOM     13  O   UNL     1       0.940  -3.794   5.025  0.00  0.00    -0.153 OA
ATOM     14  O   UNL     1      -1.190  -3.108   3.930  0.00  0.00    -0.153 OA
BRANCH  12  15
ATOM     15  N   UNL     1       0.982  -2.528   2.903  0.00  0.00    -0.190 NA
ATOM     16  H   UNL     1       1.831  -2.168   3.202  0.00  0.00    +0.148 HD
BRANCH  15  17
ATOM     17  C   UNL     1       0.437  -2.135   1.601  0.00  0.00    +0.109 C 
BRANCH  17  21
ATOM     18  C   UNL     1       0.744   1.272  -0.312  0.00  0.00    +0.008 C 
ATOM     19  C   UNL     1       0.667  -0.252  -0.200  0.00  0.00    -0.009 C 
ATOM     20  C   UNL     1       1.987  -1.026  -0.192  0.00  0.00    +0.008 C 
ATOM     21  C   UNL     1       1.171  -0.891   1.096  0.00  0.00    +0.008 C 
ENDBRANCH  17  21
ENDBRANCH  15  17
ENDBRANCH  12  15
ENDBRANCH   1  12
TORSDOF 5
