REMARK  Name = ZINC63731639
REMARK  6 active torsions:
REMARK  status: ('A' for Active; 'I' for Inactive)
REMARK    1  A    between atoms: C_1  and  C_2
REMARK    2  A    between atoms: C_3  and  N_9
REMARK    3  A    between atoms: C_10  and  S_21
REMARK    4  A    between atoms: C_15  and  C_18
REMARK    5  A    between atoms: S_21  and  C_22
REMARK    6  A    between atoms: C_22  and  C_23
REMARK                            x       y       z     vdW  Elec       q    Type
REMARK                         _______ _______ _______ _____ _____    ______ ____
ROOT
ATOM      1  N   UNL     1      -0.010   0.010  -2.412  0.00  0.00    -0.253 N 
ATOM      2  C   UNL     1       1.239   0.401  -3.072  0.00  0.00    +0.260 C 
ATOM      3  N   UNL     1       1.249   1.812  -3.472  0.00  0.00    -0.230 NA
ATOM      4  C   UNL     1       0.141   2.418  -3.755  0.00  0.00    +0.185 C 
ATOM      5  C   UNL     1      -1.186   1.736  -3.570  0.00  0.00    +0.083 C 
ATOM      6  C   UNL     1      -2.100   2.630  -3.959  0.00  0.00    +0.075 C 
ATOM      7  N   UNL     1      -1.455   3.759  -4.323  0.00  0.00    -0.152 NA
ATOM      8  N   UNL     1      -0.174   3.659  -4.200  0.00  0.00    -0.129 NA
ATOM      9  C   UNL     1      -3.591   2.415  -3.988  0.00  0.00    +0.068 C 
ATOM     10  C   UNL     1      -1.225   0.357  -3.031  0.00  0.00    +0.133 C 
ATOM     11  N   UNL     1      -2.256  -0.438  -3.116  0.00  0.00    -0.285 NA
ATOM     12  H   UNL     1      -3.066  -0.137  -3.557  0.00  0.00    +0.188 HD
ENDROOT
BRANCH   1  15
ATOM     13  C   UNL     1      -0.018   1.503   0.010  0.00  0.00    +0.047 C 
ATOM     14  C   UNL     1       0.002  -0.004   0.002  0.00  0.00    -0.011 A 
ATOM     15  C   UNL     1       0.006  -0.693  -1.204  0.00  0.00    +0.042 A 
ATOM     16  C   UNL     1       0.025  -2.082  -1.208  0.00  0.00    +0.024 A 
ATOM     17  C   UNL     1       0.040  -2.774  -0.012  0.00  0.00    +0.003 A 
ATOM     18  C   UNL     1       0.035  -2.087   1.187  0.00  0.00    +0.020 A 
ATOM     19  C   UNL     1       0.023  -0.702   1.194  0.00  0.00    +0.046 A 
ATOM     20 CL   UNL     1       0.025   0.157   2.703  0.00  0.00    -0.083 Cl
ENDBRANCH   1  15
BRANCH   2  21
ATOM     21  S   UNL     1       1.468  -0.626  -4.550  0.00  0.00    -0.109 S 
BRANCH  21  22
ATOM     22  C   UNL     1       0.008  -0.266  -5.565  0.00  0.00    +0.128 C 
BRANCH  22  23
ATOM     23  C   UNL     1       0.073  -1.065  -6.840  0.00  0.00    +0.059 A 
ATOM     24  C   UNL     1      -0.740  -2.170  -7.005  0.00  0.00    +0.094 A 
ATOM     25  C   UNL     1      -0.661  -2.896  -8.199  0.00  0.00    +0.259 A 
ATOM     26  O   UNL     1      -1.367  -3.877  -8.375  0.00  0.00    -0.267 OA
ATOM     27  N   UNL     1       0.207  -2.496  -9.152  0.00  0.00    -0.268 N 
ATOM     28  C   UNL     1       0.295  -3.192 -10.319  0.00  0.00    +0.096 A 
ATOM     29  C   UNL     1       1.157  -2.810 -11.288  0.00  0.00    +0.018 A 
ATOM     30  C   UNL     1       1.974  -1.687 -11.102  0.00  0.00    +0.005 A 
ATOM     31  C   UNL     1       1.893  -0.983  -9.937  0.00  0.00    +0.047 A 
ATOM     32  C   UNL     1       0.990  -1.395  -8.941  0.00  0.00    +0.140 A 
ATOM     33  N   UNL     1       0.906  -0.706  -7.805  0.00  0.00    -0.233 NA
ENDBRANCH  22  23
ENDBRANCH  21  22
ENDBRANCH   2  21
TORSDOF 4
