REMARK  Name = ZINC36371480
REMARK  14 active torsions:
REMARK  status: ('A' for Active; 'I' for Inactive)
REMARK    1  A    between atoms: C_1  and  C_2
REMARK    2  A    between atoms: C_2  and  C_4
REMARK    3  A    between atoms: C_2  and  C_10
REMARK    4  A    between atoms: C_4  and  C_5
REMARK    5  A    between atoms: C_5  and  C_6
REMARK    6  A    between atoms: C_6  and  C_7
REMARK    7  A    between atoms: C_7  and  C_8
REMARK    8  A    between atoms: C_7  and  C_9
REMARK    9  A    between atoms: C_16  and  C_44
REMARK   10  A    between atoms: C_23  and  N_38
REMARK   11  A    between atoms: C_27  and  C_37
REMARK   12  A    between atoms: C_30  and  O_33
REMARK   13  A    between atoms: O_33  and  C_34
REMARK   14  A    between atoms: C_34  and  C_36
REMARK                            x       y       z     vdW  Elec       q    Type
REMARK                         _______ _______ _______ _____ _____    ______ ____
ROOT
ATOM      1  C   UNL     1       0.583  -0.355   1.292  0.00  0.00    -0.002 C 
ATOM      2  C   UNL     1      -0.164  -0.183   2.639  0.00  0.00    +0.004 C 
ATOM      3  C   UNL     1       0.167  -1.450   3.483  0.00  0.00    +0.004 C 
ATOM      4  C   UNL     1       1.410  -2.006   2.772  0.00  0.00    -0.003 C 
ATOM      5  C   UNL     1       0.993  -1.848   1.294  0.00  0.00    -0.026 C 
ATOM      6  C   UNL     1       2.138  -2.175   0.377  0.00  0.00    +0.007 C 
ATOM      7  C   UNL     1       2.842  -3.470   0.791  0.00  0.00    +0.005 C 
ATOM      8  C   UNL     1       2.090  -4.237   1.869  0.00  0.00    +0.001 C 
ATOM      9  C   UNL     1       1.879  -3.385   3.122  0.00  0.00    -0.013 C 
ATOM     10  C   UNL     1       0.941  -4.131   4.072  0.00  0.00    -0.041 C 
ATOM     11  C   UNL     1       1.458  -5.530   4.282  0.00  0.00    -0.042 C 
ATOM     12  C   UNL     1       2.293  -6.126   3.498  0.00  0.00    -0.065 C 
ATOM     13  C   UNL     1       2.827  -5.524   2.223  0.00  0.00    -0.008 C 
ATOM     14  C   UNL     1       4.328  -5.327   2.378  0.00  0.00    +0.015 C 
ATOM     15  C   UNL     1       4.830  -6.059   3.623  0.00  0.00    +0.046 C 
ATOM     16  C   UNL     1       4.323  -7.493   3.705  0.00  0.00    +0.180 C 
ATOM     17  C   UNL     1       2.795  -7.518   3.842  0.00  0.00    +0.075 C 
ATOM     18  C   UNL     1       2.578  -6.518   1.082  0.00  0.00    +0.016 C 
ATOM     19  C   UNL     1      -0.262  -2.642   0.935  0.00  0.00    +0.012 C 
ENDROOT
BRANCH  10  20
ATOM     20  N   UNL     1       0.939  -3.475   5.386  0.00  0.00    +0.384 N 
ATOM     21  C   UNL     1       2.248  -3.656   6.024  0.00  0.00    -0.078 C 
ATOM     22  C   UNL     1       2.278  -2.906   7.358  0.00  0.00    -0.019 C 
ATOM     23  C   UNL     1       1.182  -3.459   8.273  0.00  0.00    -0.004 C 
ATOM     24  C   UNL     1      -0.171  -3.332   7.566  0.00  0.00    -0.019 C 
ATOM     25  C   UNL     1      -0.110  -4.066   6.225  0.00  0.00    -0.078 C 
ATOM     26  H   UNL     1       0.758  -2.489   5.269  0.00  0.00    -0.081 HD
ENDBRANCH  10  20
BRANCH   1  28
ATOM     27  C   UNL     1      -0.882   1.353   0.212  0.00  0.00    +0.008 C 
ATOM     28  C   UNL     1      -0.355  -0.081   0.119  0.00  0.00    -0.010 C 
BRANCH  28  29
ATOM     29  C   UNL     1       0.406  -0.260  -1.196  0.00  0.00    +0.003 C 
BRANCH  29  30
ATOM     30  C   UNL     1      -0.536   0.008  -2.371  0.00  0.00    +0.001 C 
BRANCH  30  31
ATOM     31  C   UNL     1       0.226  -0.172  -3.686  0.00  0.00    +0.003 C 
BRANCH  31  32
ATOM     32  C   UNL     1      -0.716   0.097  -4.861  0.00  0.00    -0.017 C 
ATOM     33  C   UNL     1      -1.150   1.564  -4.842  0.00  0.00    +0.007 C 
ATOM     34  C   UNL     1       0.009  -0.203  -6.175  0.00  0.00    +0.007 C 
ENDBRANCH  31  32
ENDBRANCH  30  31
ENDBRANCH  29  30
ENDBRANCH  28  29
ENDBRANCH   1  28
BRANCH  16  35
ATOM     35  O   UNL     1       4.720  -8.221   2.543  0.00  0.00    -0.461 OA
BRANCH  35  36
ATOM     36  C   UNL     1       5.900  -8.858   2.598  0.00  0.00    +0.304 C 
ATOM     37  O   UNL     1       6.574  -8.799   3.599  0.00  0.00    -0.251 OA
ATOM     38  C   UNL     1       6.386  -9.648   1.409  0.00  0.00    +0.136 C 
ENDBRANCH  35  36
ENDBRANCH  16  35
TORSDOF 8
