REMARK  Name = ZINC21244891
REMARK  6 active torsions:
REMARK  status: ('A' for Active; 'I' for Inactive)
REMARK    1  A    between atoms: C_1  and  O_2
REMARK    2  A    between atoms: O_2  and  C_3
REMARK    3  A    between atoms: C_6  and  O_35
REMARK    4  A    between atoms: C_7  and  C_9
REMARK    5  A    between atoms: C_14  and  C_24
REMARK    6  A    between atoms: O_35  and  C_36
REMARK                            x       y       z     vdW  Elec       q    Type
REMARK                         _______ _______ _______ _____ _____    ______ ____
ROOT
ATOM      1  C   UNL     1       5.962  -1.784  -2.776  0.00  0.00    +0.036 C 
ATOM      2  C   UNL     1       5.509  -1.831  -1.318  0.00  0.00    +0.060 C 
ATOM      3  C   UNL     1       4.761  -0.558  -0.965  0.00  0.00    +0.017 C 
ATOM      4  C   UNL     1       5.083   0.610  -1.549  0.00  0.00    +0.036 C 
ATOM      5  C   UNL     1       4.430   1.944  -1.282  0.00  0.00    +0.136 C 
ATOM      6  N   UNL     1       3.560   1.971  -0.126  0.00  0.00    -0.331 N 
ATOM      7  C   UNL     1       2.391   1.210  -0.089  0.00  0.00    +0.049 A 
ATOM      8  C   UNL     1       1.139   1.803  -0.072  0.00  0.00    +0.025 A 
ATOM      9  C   UNL     1       0.009   1.005  -0.127  0.00  0.00    +0.002 A 
ATOM     10  C   UNL     1       0.127  -0.371  -0.198  0.00  0.00    +0.002 A 
ATOM     11  C   UNL     1       1.377  -0.967  -0.199  0.00  0.00    +0.025 A 
ATOM     12  C   UNL     1       2.507  -0.171  -0.126  0.00  0.00    +0.052 A 
ATOM     13  N   UNL     1       3.786  -0.707  -0.033  0.00  0.00    -0.316 N 
ATOM     14  C   UNL     1       6.117   0.660  -2.514  0.00  0.00    +0.163 C 
ATOM     15  O   UNL     1       6.401   1.730  -3.014  0.00  0.00    -0.292 OA
ATOM     16  C   UNL     1       6.875  -0.562  -2.941  0.00  0.00    +0.088 C 
ATOM     17  H   UNL     1       3.816   2.597   0.741  0.00  0.00    +0.147 HD
ATOM     18  H   UNL     1       3.982  -1.288   0.881  0.00  0.00    +0.152 HD
ENDROOT
BRANCH   5  19
ATOM     19  C   UNL     1       3.624   2.332  -2.495  0.00  0.00    -0.022 A 
ATOM     20  C   UNL     1       2.530   1.573  -2.869  0.00  0.00    +0.008 A 
ATOM     21  C   UNL     1       1.787   1.930  -3.978  0.00  0.00    +0.040 A 
ATOM     22  C   UNL     1       2.144   3.041  -4.722  0.00  0.00    +0.137 A 
ATOM     23  C   UNL     1       3.244   3.797  -4.351  0.00  0.00    +0.053 A 
ATOM     24  C   UNL     1       3.982   3.441  -3.237  0.00  0.00    +0.024 A 
ATOM     25 BR   UNL     1       3.734   5.316  -5.365  0.00  0.00    -0.047 Br
ATOM     26  F   UNL     1       1.421   3.387  -5.809  0.00  0.00    -0.204 F 
ENDBRANCH   5  19
BRANCH   1  31
ATOM     27  C   UNL     1       8.577  -4.511  -2.736  0.00  0.00    +0.121 A 
ATOM     28  C   UNL     1       8.121  -5.348  -3.744  0.00  0.00    +0.049 A 
ATOM     29  C   UNL     1       6.969  -5.031  -4.436  0.00  0.00    +0.049 A 
ATOM     30  C   UNL     1       6.268  -3.876  -4.123  0.00  0.00    +0.124 A 
ATOM     31  C   UNL     1       6.724  -3.039  -3.115  0.00  0.00    +0.002 A 
ATOM     32  C   UNL     1       7.879  -3.354  -2.427  0.00  0.00    +0.053 A 
BRANCH  27  34
ATOM     33  C   UNL     1      10.383  -6.028  -2.430  0.00  0.00    +0.277 C 
ATOM     34  O   UNL     1       9.712  -4.824  -2.054  0.00  0.00    -0.495 OA
ENDBRANCH  27  34
BRANCH  30  35
ATOM     35  O   UNL     1       5.133  -3.563  -4.804  0.00  0.00    -0.495 OA
ATOM     36  C   UNL     1       4.721  -4.470  -5.829  0.00  0.00    +0.277 C 
ENDBRANCH  30  35
ENDBRANCH   1  31
TORSDOF 4
