REMARK  Name = ZINC08770078
REMARK  5 active torsions:
REMARK  status: ('A' for Active; 'I' for Inactive)
REMARK    1  A    between atoms: C_4  and  C_7
REMARK    2  A    between atoms: C_9  and  C_31
REMARK    3  A    between atoms: C_14  and  C_17
REMARK    4  A    between atoms: N_19  and  N_20
REMARK    5  A    between atoms: C_21  and  C_22
REMARK                            x       y       z     vdW  Elec       q    Type
REMARK                         _______ _______ _______ _____ _____    ______ ____
ROOT
ATOM      1  C   UNL     1      -1.133   0.678   4.473  0.00  0.00    +0.094 A 
ATOM      2  C   UNL     1      -0.509   0.465   5.719  0.00  0.00    +0.062 A 
ATOM      3  C   UNL     1       0.313  -0.600   5.595  0.00  0.00    +0.150 A 
ATOM      4  N   UNL     1       0.220  -1.051   4.315  0.00  0.00    -0.203 N 
ATOM      5  N   UNL     1      -0.692  -0.235   3.633  0.00  0.00    -0.164 NA
ATOM      6  C   UNL     1       0.909  -2.135   3.778  0.00  0.00    +0.195 A 
ATOM      7  N   UNL     1       0.446  -3.151   3.079  0.00  0.00    -0.216 NA
ATOM      8  C   UNL     1       1.282  -4.096   2.648  0.00  0.00    +0.136 A 
ATOM      9  C   UNL     1       2.614  -3.994   2.952  0.00  0.00    +0.081 A 
ATOM     10  S   UNL     1       2.652  -2.515   3.862  0.00  0.00    -0.056 S 
ENDROOT
BRANCH   1  14
ATOM     11  C   UNL     1      -3.936   3.747   3.577  0.00  0.00    +0.000 A 
ATOM     12  C   UNL     1      -3.559   2.850   2.594  0.00  0.00    +0.001 A 
ATOM     13  C   UNL     1      -2.650   1.852   2.879  0.00  0.00    +0.010 A 
ATOM     14  C   UNL     1      -2.111   1.749   4.160  0.00  0.00    +0.002 A 
ATOM     15  C   UNL     1      -2.498   2.652   5.148  0.00  0.00    +0.010 A 
ATOM     16  C   UNL     1      -3.404   3.650   4.850  0.00  0.00    +0.001 A 
ENDBRANCH   1  14
BRANCH   8  17
ATOM     17  C   UNL     1       0.780  -5.234   1.861  0.00  0.00    +0.282 C 
ATOM     18  O   UNL     1       1.550  -6.094   1.476  0.00  0.00    -0.267 OA
ATOM     19  N   UNL     1      -0.532  -5.325   1.568  0.00  0.00    -0.202 N 
ATOM     20  H   UNL     1      -1.146  -4.639   1.875  0.00  0.00    +0.178 HD
BRANCH  19  21
ATOM     21  N   UNL     1      -1.010  -6.408   0.819  0.00  0.00    -0.187 NA
ATOM     22  C   UNL     1      -2.246  -6.430   0.425  0.00  0.00    +0.138 C 
BRANCH  22  23
ATOM     23  C   UNL     1      -2.977  -5.167   0.220  0.00  0.00    -0.002 A 
ATOM     24  C   UNL     1      -2.279  -3.960   0.130  0.00  0.00    +0.013 A 
ATOM     25  C   UNL     1      -2.965  -2.780  -0.066  0.00  0.00    +0.050 A 
ATOM     26  C   UNL     1      -4.348  -2.784  -0.166  0.00  0.00    +0.166 A 
ATOM     27  C   UNL     1      -5.052  -3.985  -0.072  0.00  0.00    +0.167 A 
ATOM     28  C   UNL     1      -4.371  -5.172   0.120  0.00  0.00    +0.059 A 
ATOM     29  O   UNL     1      -6.385  -3.719  -0.201  0.00  0.00    -0.453 OA
ATOM     30  C   UNL     1      -6.461  -2.404  -0.782  0.00  0.00    +0.466 C 
ATOM     31  O   UNL     1      -5.242  -1.769  -0.353  0.00  0.00    -0.453 OA
ENDBRANCH  22  23
ENDBRANCH  19  21
ENDBRANCH   8  17
BRANCH   3  32
ATOM     32  C   UNL     1       1.180  -1.182   6.681  0.00  0.00    +0.434 C 
ATOM     33  F   UNL     1       2.398  -0.495   6.724  0.00  0.00    -0.164 F 
ATOM     34  F   UNL     1       0.530  -1.058   7.913  0.00  0.00    -0.164 F 
ATOM     35  F   UNL     1       1.417  -2.535   6.413  0.00  0.00    -0.164 F 
ENDBRANCH   3  32
TORSDOF 5
