REMARK  Name = ZINC36313884
REMARK  16 active torsions:
REMARK  status: ('A' for Active; 'I' for Inactive)
REMARK    1  A    between atoms: C_1  and  C_2
REMARK    2  A    between atoms: C_2  and  C_3
REMARK    3  A    between atoms: C_3  and  C_4
REMARK    4  A    between atoms: C_4  and  C_5
REMARK    5  A    between atoms: C_5  and  C_7
REMARK    6  A    between atoms: C_5  and  O_38
REMARK    7  A    between atoms: C_7  and  N_8
REMARK    8  A    between atoms: N_8  and  C_9
REMARK    9  A    between atoms: N_8  and  C_31
REMARK   10  A    between atoms: C_9  and  C_10
REMARK   11  A    between atoms: C_11  and  C_29
REMARK   12  A    between atoms: N_13  and  C_23
REMARK   13  A    between atoms: C_14  and  O_15
REMARK   14  A    between atoms: O_15  and  C_16
REMARK   15  A    between atoms: C_29  and  C_30
REMARK   16  A    between atoms: C_31  and  C_32
REMARK                            x       y       z     vdW  Elec       q    Type
REMARK                         _______ _______ _______ _____ _____    ______ ____
ROOT
ATOM      1  C   UNL     1       2.933  -5.991  -5.073  0.00  0.00    +0.021 A 
ATOM      2  C   UNL     1       4.201  -6.548  -4.883  0.00  0.00    +0.068 A 
ATOM      3  N   UNL     1       4.626  -7.013  -6.030  0.00  0.00    -0.168 NA
ATOM      4  N   UNL     1       3.642  -6.769  -6.997  0.00  0.00    -0.200 N 
ATOM      5  C   UNL     1       2.602  -6.143  -6.383  0.00  0.00    +0.225 A 
ENDROOT
BRANCH   4   6
ATOM      6  C   UNL     1       3.713  -7.115  -8.353  0.00  0.00    +0.069 A 
ATOM      7  C   UNL     1       2.582  -7.573  -9.015  0.00  0.00    +0.028 A 
ATOM      8  C   UNL     1       2.656  -7.912 -10.352  0.00  0.00    +0.002 A 
ATOM      9  C   UNL     1       3.855  -7.797 -11.031  0.00  0.00    +0.000 A 
ATOM     10  C   UNL     1       4.983  -7.342 -10.374  0.00  0.00    +0.002 A 
ATOM     11  C   UNL     1       4.915  -6.995  -9.039  0.00  0.00    +0.028 A 
ENDBRANCH   4   6
BRANCH   2  12
ATOM     12  C   UNL     1       4.952  -6.603  -3.577  0.00  0.00    +0.054 C 
ATOM     13  C   UNL     1       4.700  -7.952  -2.900  0.00  0.00    +0.010 C 
ENDBRANCH   2  12
BRANCH   1  14
ATOM     14  C   UNL     1       2.080  -5.344  -4.012  0.00  0.00    -0.036 C 
BRANCH  14  15
ATOM     15  N   UNL     1       2.491  -3.944  -3.841  0.00  0.00    +0.386 N 
ATOM     16  H   UNL     1       3.481  -3.905  -3.649  0.00  0.00    -0.081 HD
BRANCH  15  17
ATOM     17  C   UNL     1       1.750  -3.350  -2.720  0.00  0.00    -0.047 C 
BRANCH  17  18
ATOM     18  C   UNL     1       2.206  -1.903  -2.518  0.00  0.00    +0.098 C 
BRANCH  18  19
ATOM     19  O   UNL     1       3.581  -1.886  -2.131  0.00  0.00    -0.394 OA
ATOM     20  H   UNL     1       3.765  -2.360  -1.309  0.00  0.00    +0.210 HD
ENDBRANCH  18  19
BRANCH  18  21
ATOM     21  C   UNL     1       1.360  -1.251  -1.422  0.00  0.00    +0.029 C 
BRANCH  21  22
ATOM     22  C   UNL     1       1.729   0.229  -1.306  0.00  0.00    +0.002 C 
BRANCH  22  24
ATOM     23  C   UNL     1       1.253   2.362  -0.094  0.00  0.00    +0.004 C 
ATOM     24  C   UNL     1       0.884   0.882  -0.210  0.00  0.00    -0.003 C 
ENDBRANCH  22  24
ENDBRANCH  21  22
ENDBRANCH  18  21
ENDBRANCH  17  18
ENDBRANCH  15  17
BRANCH  15  25
ATOM     25  C   UNL     1       2.201  -3.195  -5.071  0.00  0.00    -0.046 C 
BRANCH  25  26
ATOM     26  C   UNL     1       0.707  -3.292  -5.388  0.00  0.00    +0.102 C 
ATOM     27  C   UNL     1       0.421  -2.658  -6.766  0.00  0.00    +0.032 C 
ATOM     28  C   UNL     1      -0.927  -1.928  -6.520  0.00  0.00    +0.030 C 
ATOM     29  C   UNL     1      -0.758  -1.488  -5.044  0.00  0.00    +0.160 C 
ATOM     30  O   UNL     1      -0.045  -2.564  -4.410  0.00  0.00    -0.378 OA
ENDBRANCH  25  26
ENDBRANCH  15  25
ENDBRANCH  14  15
ENDBRANCH   1  14
BRANCH   5  31
ATOM     31  O   UNL     1       1.448  -5.739  -6.972  0.00  0.00    -0.438 OA
BRANCH  31  32
ATOM     32  C   UNL     1       0.379  -6.577  -6.920  0.00  0.00    +0.131 A 
ATOM     33  C   UNL     1       0.476  -7.787  -6.250  0.00  0.00    +0.049 A 
ATOM     34  C   UNL     1      -0.611  -8.637  -6.198  0.00  0.00    +0.042 A 
ATOM     35  C   UNL     1      -1.799  -8.281  -6.814  0.00  0.00    +0.124 A 
ATOM     36  C   UNL     1      -1.898  -7.074  -7.484  0.00  0.00    +0.042 A 
ATOM     37  C   UNL     1      -0.814  -6.219  -7.533  0.00  0.00    +0.049 A 
ATOM     38  F   UNL     1      -2.862  -9.114  -6.762  0.00  0.00    -0.205 F 
ENDBRANCH  31  32
ENDBRANCH   5  31
TORSDOF 14
