REMARK  Name = ZINC09287071
REMARK  10 active torsions:
REMARK  status: ('A' for Active; 'I' for Inactive)
REMARK    1  A    between atoms: C_1  and  C_2
REMARK    2  A    between atoms: C_5  and  C_8
REMARK    3  A    between atoms: C_8  and  O_10
REMARK    4  A    between atoms: O_10  and  C_11
REMARK    5  A    between atoms: C_14  and  N_29
REMARK    6  A    between atoms: C_17  and  O_19
REMARK    7  A    between atoms: O_19  and  C_20
REMARK    8  A    between atoms: C_20  and  C_22
REMARK    9  A    between atoms: C_25  and  C_28
REMARK   10  A    between atoms: C_31  and  C_38
REMARK                            x       y       z     vdW  Elec       q    Type
REMARK                         _______ _______ _______ _____ _____    ______ ____
ROOT
ATOM      1  C   UNL     1       6.081  -0.762  -0.059  0.00  0.00    +0.249 C 
ATOM      2  C   UNL     1       7.212   0.037  -0.750  0.00  0.00    +0.105 C 
ATOM      3  C   UNL     1       7.967   0.641   0.466  0.00  0.00    +0.231 C 
ATOM      4  O   UNL     1       7.909  -0.409   1.455  0.00  0.00    -0.315 OA
ATOM      5  C   UNL     1       6.595  -0.987   1.376  0.00  0.00    +0.354 C 
ENDROOT
BRANCH   3   6
ATOM      6  N   UNL     1       9.357   0.940   0.113  0.00  0.00    -0.274 N 
ATOM      7  C   UNL     1       9.816   2.227   0.193  0.00  0.00    +0.101 A 
ATOM      8  C   UNL     1      11.097   2.502  -0.133  0.00  0.00    +0.030 A 
ATOM      9  C   UNL     1      11.943   1.447  -0.552  0.00  0.00    +0.257 A 
ATOM     10  O   UNL     1      13.102   1.670  -0.850  0.00  0.00    -0.267 OA
ATOM     11  N   UNL     1      11.453   0.192  -0.618  0.00  0.00    -0.275 N 
ATOM     12  H   UNL     1      12.043  -0.558  -0.917  0.00  0.00    +0.173 HD
ATOM     13  C   UNL     1      10.173  -0.055  -0.283  0.00  0.00    +0.331 A 
ATOM     14  O   UNL     1       9.746  -1.192  -0.342  0.00  0.00    -0.246 OA
ATOM     15  C   UNL     1      11.620   3.913  -0.050  0.00  0.00    +0.051 C 
ENDBRANCH   3   6
BRANCH   1  16
ATOM     16  O   UNL     1       4.850   0.009  -0.044  0.00  0.00    -0.451 OA
BRANCH  16  17
ATOM     17  C   UNL     1       3.695  -0.684  -0.036  0.00  0.00    +0.340 C 
ATOM     18  O   UNL     1       3.715  -1.898  -0.043  0.00  0.00    -0.245 OA
BRANCH  17  23
ATOM     19  C   UNL     1      -1.334   2.112   0.020  0.00  0.00    +0.044 C 
ATOM     20  C   UNL     1      -0.017   1.379   0.010  0.00  0.00    -0.050 A 
ATOM     21  C   UNL     1       1.168   2.094   0.002  0.00  0.00    +0.004 A 
ATOM     22  C   UNL     1       2.377   1.430  -0.013  0.00  0.00    +0.015 A 
ATOM     23  C   UNL     1       2.404   0.034  -0.021  0.00  0.00    +0.059 A 
ATOM     24  C   UNL     1       1.204  -0.681  -0.013  0.00  0.00    +0.015 A 
ATOM     25  C   UNL     1       0.002  -0.004   0.002  0.00  0.00    +0.004 A 
ENDBRANCH  17  23
ENDBRANCH  16  17
ENDBRANCH   1  16
BRANCH   5  26
ATOM     26  O   UNL     1       6.659  -2.409   1.661  0.00  0.00    -0.428 OA
BRANCH  26  27
ATOM     27  C   UNL     1       6.891  -2.767   2.939  0.00  0.00    +0.341 C 
ATOM     28  O   UNL     1       7.035  -1.915   3.792  0.00  0.00    -0.245 OA
BRANCH  27  29
ATOM     29  C   UNL     1       6.969  -4.197   3.303  0.00  0.00    +0.059 A 
ATOM     30  C   UNL     1       6.799  -5.179   2.325  0.00  0.00    +0.015 A 
ATOM     31  C   UNL     1       6.879  -6.513   2.671  0.00  0.00    +0.004 A 
ATOM     32  C   UNL     1       7.117  -6.877   3.984  0.00  0.00    -0.050 A 
ATOM     33  C   UNL     1       7.282  -5.908   4.959  0.00  0.00    +0.004 A 
ATOM     34  C   UNL     1       7.209  -4.571   4.626  0.00  0.00    +0.015 A 
ATOM     35  C   UNL     1       7.197  -8.335   4.356  0.00  0.00    +0.044 C 
ENDBRANCH  27  29
ENDBRANCH  26  27
ENDBRANCH   5  26
TORSDOF 7
