REMARK  Name = ZINC16949156
REMARK  7 active torsions:
REMARK  status: ('A' for Active; 'I' for Inactive)
REMARK    1  A    between atoms: C_1  and  C_2
REMARK    2  A    between atoms: C_2  and  C_27
REMARK    3  A    between atoms: N_3  and  N_4
REMARK    4  A    between atoms: C_5  and  C_7
REMARK    5  A    between atoms: C_13  and  C_21
REMARK    6  A    between atoms: C_15  and  C_17
REMARK    7  A    between atoms: C_30  and  N_33
REMARK                            x       y       z     vdW  Elec       q    Type
REMARK                         _______ _______ _______ _____ _____    ______ ____
ROOT
ATOM      1  C   UNL     1      -1.225   6.831  -0.248  0.00  0.00    +0.136 A 
ATOM      2  C   UNL     1      -2.590   6.718  -0.319  0.00  0.00    +0.081 A 
ATOM      3  S   UNL     1      -2.801   4.995  -0.258  0.00  0.00    -0.055 S 
ATOM      4  C   UNL     1      -1.077   4.545  -0.142  0.00  0.00    +0.195 A 
ATOM      5  N   UNL     1      -0.489   5.723  -0.154  0.00  0.00    -0.216 NA
ATOM      6  N   UNL     1      -0.504   3.279  -0.056  0.00  0.00    -0.207 N 
ATOM      7  C   UNL     1      -0.739   2.228  -0.899  0.00  0.00    +0.077 A 
ATOM      8  C   UNL     1       0.018   1.179  -0.460  0.00  0.00    +0.062 A 
ATOM      9  C   UNL     1       0.730   1.605   0.662  0.00  0.00    +0.166 A 
ATOM     10  N   UNL     1       0.422   2.854   0.905  0.00  0.00    -0.160 NA
ENDROOT
BRANCH   7  11
ATOM     11  C   UNL     1      -1.647   2.227  -2.067  0.00  0.00    +0.001 A 
ATOM     12  C   UNL     1      -2.156   1.024  -2.557  0.00  0.00    +0.010 A 
ATOM     13  C   UNL     1      -3.007   1.030  -3.643  0.00  0.00    +0.001 A 
ATOM     14  C   UNL     1      -3.345   2.224  -4.254  0.00  0.00    +0.000 A 
ATOM     15  C   UNL     1      -2.839   3.420  -3.776  0.00  0.00    +0.001 A 
ATOM     16  C   UNL     1      -1.992   3.428  -2.687  0.00  0.00    +0.010 A 
ENDBRANCH   7  11
BRANCH   1  18
ATOM     17  N   UNL     1       0.759   8.254  -0.198  0.00  0.00    -0.201 N 
ATOM     18  C   UNL     1      -0.583   8.155  -0.269  0.00  0.00    +0.282 C 
ATOM     19  O   UNL     1      -1.264   9.160  -0.349  0.00  0.00    -0.267 OA
ATOM     20  H   UNL     1       1.302   7.453  -0.133  0.00  0.00    +0.178 HD
BRANCH  17  23
ATOM     21  C   UNL     1       3.506   8.365  -0.049  0.00  0.00    +0.068 C 
ATOM     22  C   UNL     1       2.663   9.610  -0.149  0.00  0.00    +0.063 C 
ATOM     23  N   UNL     1       1.370   9.515  -0.217  0.00  0.00    -0.184 NA
BRANCH  22  24
ATOM     24  C   UNL     1       3.306  10.937  -0.170  0.00  0.00    -0.002 A 
ATOM     25  C   UNL     1       4.697  11.044  -0.091  0.00  0.00    +0.012 A 
ATOM     26  C   UNL     1       5.292  12.288  -0.117  0.00  0.00    +0.033 A 
ATOM     27  C   UNL     1       4.515  13.429  -0.209  0.00  0.00    +0.126 A 
ATOM     28  C   UNL     1       3.136  13.331  -0.281  0.00  0.00    +0.033 A 
ATOM     29  C   UNL     1       2.528  12.093  -0.263  0.00  0.00    +0.012 A 
BRANCH  27  30
ATOM     30  N   UNL     1       5.160  14.761  -0.230  0.00  0.00    +0.056 N 
ATOM     31  O   UNL     1       4.479  15.767  -0.311  0.00  0.00    -0.126 OA
ATOM     32  O   UNL     1       6.373  14.850  -0.166  0.00  0.00    -0.126 OA
ENDBRANCH  27  30
ENDBRANCH  22  24
ENDBRANCH  17  23
ENDBRANCH   1  18
BRANCH   9  33
ATOM     33  C   UNL     1       1.694   0.766   1.461  0.00  0.00    +0.436 C 
ATOM     34  F   UNL     1       2.982   0.903   0.931  0.00  0.00    -0.164 F 
ATOM     35  F   UNL     1       1.691   1.194   2.793  0.00  0.00    -0.164 F 
ATOM     36  F   UNL     1       1.305  -0.576   1.402  0.00  0.00    -0.164 F 
ENDBRANCH   9  33
TORSDOF 6
