REMARK  Name = ZINC23501856
REMARK  12 active torsions:
REMARK  status: ('A' for Active; 'I' for Inactive)
REMARK    1  A    between atoms: C_1  and  N_2
REMARK    2  A    between atoms: N_2  and  C_3
REMARK    3  A    between atoms: C_3  and  C_4
REMARK    4  A    between atoms: C_7  and  O_10
REMARK    5  A    between atoms: O_10  and  C_11
REMARK    6  A    between atoms: C_14  and  C_16
REMARK    7  A    between atoms: C_16  and  O_17
REMARK    8  A    between atoms: O_17  and  C_18
REMARK    9  A    between atoms: C_18  and  C_20
REMARK   10  A    between atoms: C_25  and  N_26
REMARK   11  A    between atoms: N_26  and  S_27
REMARK   12  A    between atoms: S_27  and  C_30
REMARK                            x       y       z     vdW  Elec       q    Type
REMARK                         _______ _______ _______ _____ _____    ______ ____
ROOT
ATOM      1  C   UNL     1      -2.873   8.403   4.402  0.00  0.00    +0.132 C 
ATOM      2  N   UNL     1      -4.143   7.711   4.631  0.00  0.00    -0.297 N 
ATOM      3  C   UNL     1      -4.288   6.425   4.255  0.00  0.00    +0.253 C 
ATOM      4  O   UNL     1      -5.340   5.852   4.446  0.00  0.00    -0.272 OA
ENDROOT
BRANCH   2   5
ATOM      5  C   UNL     1      -5.257   8.416   5.271  0.00  0.00    +0.142 C 
BRANCH   5   6
ATOM      6  C   UNL     1      -5.176   8.234   6.764  0.00  0.00    -0.030 A 
ATOM      7  C   UNL     1      -5.818   7.166   7.364  0.00  0.00    +0.009 A 
ATOM      8  C   UNL     1      -5.742   6.993   8.733  0.00  0.00    +0.046 A 
ATOM      9  C   UNL     1      -5.029   7.898   9.506  0.00  0.00    +0.127 A 
ATOM     10  C   UNL     1      -4.391   8.971   8.902  0.00  0.00    +0.046 A 
ATOM     11  C   UNL     1      -4.466   9.137   7.533  0.00  0.00    +0.009 A 
BRANCH   9  12
ATOM     12  O   UNL     1      -4.956   7.733  10.853  0.00  0.00    -0.434 OA
BRANCH  12  13
ATOM     13  C   UNL     1      -5.638   6.605  11.406  0.00  0.00    +0.541 C 
ATOM     14  F   UNL     1      -7.003   6.695  11.112  0.00  0.00    -0.166 F 
ATOM     15  F   UNL     1      -5.118   5.429  10.855  0.00  0.00    -0.166 F 
ENDBRANCH  12  13
ENDBRANCH   9  12
ENDBRANCH   5   6
ENDBRANCH   2   5
BRANCH   3  16
ATOM     16  C   UNL     1      -3.143   5.699   3.598  0.00  0.00    +0.328 C 
BRANCH  16  17
ATOM     17  O   UNL     1      -3.545   4.338   3.290  0.00  0.00    -0.452 OA
BRANCH  17  18
ATOM     18  C   UNL     1      -2.629   3.549   2.695  0.00  0.00    +0.342 C 
ATOM     19  O   UNL     1      -1.524   3.986   2.440  0.00  0.00    -0.245 OA
BRANCH  18  20
ATOM     20  C   UNL     1      -2.966   2.156   2.353  0.00  0.00    +0.083 A 
ATOM     21  C   UNL     1      -4.236   1.649   2.644  0.00  0.00    +0.017 A 
ATOM     22  C   UNL     1      -4.546   0.346   2.322  0.00  0.00    +0.001 A 
ATOM     23  C   UNL     1      -3.604  -0.467   1.709  0.00  0.00    +0.002 A 
ATOM     24  C   UNL     1      -2.349   0.021   1.411  0.00  0.00    +0.027 A 
ATOM     25  C   UNL     1      -2.015   1.331   1.733  0.00  0.00    +0.088 A 
BRANCH  25  26
ATOM     26  N   UNL     1      -0.751   1.822   1.438  0.00  0.00    -0.102 NA
BRANCH  26  27
ATOM     27  S   UNL     1       0.024   1.337   0.057  0.00  0.00    +0.059 S 
ATOM     28  O   UNL     1       0.062  -0.081   0.141  0.00  0.00    -0.154 OA
ATOM     29  O   UNL     1       1.227   2.094   0.032  0.00  0.00    -0.154 OA
ATOM     30  C   UNL     1      -1.067   1.854  -1.296  0.00  0.00    +0.220 C 
ENDBRANCH  26  27
ENDBRANCH  25  26
ENDBRANCH  18  20
ENDBRANCH  17  18
ENDBRANCH  16  17
ENDBRANCH   3  16
TORSDOF 10
