REMARK  Name = ZINC59831356
REMARK  9 active torsions:
REMARK  status: ('A' for Active; 'I' for Inactive)
REMARK    1  A    between atoms: C_1  and  C_2
REMARK    2  A    between atoms: C_5  and  C_9
REMARK    3  A    between atoms: C_11  and  C_14
REMARK    4  A    between atoms: C_14  and  C_16
REMARK    5  A    between atoms: C_14  and  S_17
REMARK    6  A    between atoms: S_17  and  C_18
REMARK    7  A    between atoms: C_18  and  C_20
REMARK    8  A    between atoms: C_18  and  C_26
REMARK    9  A    between atoms: C_31  and  C_34
REMARK                            x       y       z     vdW  Elec       q    Type
REMARK                         _______ _______ _______ _____ _____    ______ ____
ROOT
ATOM      1  C   UNL     1      -1.057  -9.997   2.352  0.00  0.00    +0.163 C 
ENDROOT
BRANCH   1   2
ATOM      2  C   UNL     1      -1.923 -11.158   1.935  0.00  0.00    +0.236 C 
ATOM      3  O   UNL     1      -2.773 -11.005   1.083  0.00  0.00    -0.274 OA
ATOM      4  N   UNL     1      -1.753 -12.366   2.508  0.00  0.00    -0.267 N 
ATOM      5  C   UNL     1      -2.555 -13.440   2.122  0.00  0.00    +0.168 A 
ATOM      6  C   UNL     1      -3.574 -13.408   1.145  0.00  0.00    +0.091 A 
ATOM      7  C   UNL     1      -4.113 -14.638   1.062  0.00  0.00    +0.136 A 
ATOM      8  O   UNL     1      -3.479 -15.431   1.940  0.00  0.00    -0.358 OA
ATOM      9  N   UNL     1      -2.493 -14.658   2.598  0.00  0.00    -0.063 NA
ATOM     10  C   UNL     1      -5.234 -15.052   0.144  0.00  0.00    +0.089 C 
ATOM     11  H   UNL     1      -1.073 -12.488   3.189  0.00  0.00    +0.156 HD
ENDBRANCH   1   2
BRANCH   1  12
ATOM     12  C   UNL     1      -1.580  -9.417   3.640  0.00  0.00    -0.026 A 
ATOM     13  C   UNL     1      -2.868  -8.918   3.700  0.00  0.00    +0.005 A 
ATOM     14  C   UNL     1      -3.348  -8.385   4.882  0.00  0.00    +0.000 A 
ATOM     15  C   UNL     1      -2.541  -8.353   6.004  0.00  0.00    +0.000 A 
ATOM     16  C   UNL     1      -1.254  -8.853   5.944  0.00  0.00    +0.000 A 
ATOM     17  C   UNL     1      -0.775  -9.390   4.763  0.00  0.00    +0.005 A 
ENDBRANCH   1  12
BRANCH   1  18
ATOM     18  S   UNL     1      -1.087  -8.725   1.059  0.00  0.00    -0.131 S 
BRANCH  18  19
ATOM     19  C   UNL     1       0.105  -7.486   1.635  0.00  0.00    +0.133 C 
ATOM     20  C   UNL     1       1.507  -8.098   1.655  0.00  0.00    +0.029 C 
BRANCH  19  23
ATOM     21  C   UNL     1       0.061  -4.258  -0.024  0.00  0.00    +0.202 A 
ATOM     22  N   UNL     1       0.071  -5.050   1.063  0.00  0.00    -0.190 NA
ATOM     23  C   UNL     1       0.088  -6.301   0.703  0.00  0.00    +0.240 A 
ATOM     24  O   UNL     1       0.089  -6.358  -0.635  0.00  0.00    -0.337 OA
ATOM     25  N   UNL     1       0.065  -5.015  -1.093  0.00  0.00    -0.056 NA
BRANCH  21  30
ATOM     26  C   UNL     1      -0.018   1.503   0.010  0.00  0.00    +0.047 C 
ATOM     27  C   UNL     1       0.002  -0.004   0.002  0.00  0.00    -0.015 A 
ATOM     28  C   UNL     1       0.006  -0.687  -1.201  0.00  0.00    +0.007 A 
ATOM     29  C   UNL     1       0.025  -2.067  -1.215  0.00  0.00    +0.012 A 
ATOM     30  C   UNL     1       0.041  -2.774  -0.014  0.00  0.00    +0.025 A 
ATOM     31  C   UNL     1       0.037  -2.083   1.196  0.00  0.00    +0.050 A 
ATOM     32  C   UNL     1       0.023  -0.701   1.199  0.00  0.00    +0.127 A 
ATOM     33  F   UNL     1       0.025  -0.029   2.371  0.00  0.00    -0.205 F 
ENDBRANCH  21  30
ENDBRANCH  19  23
ENDBRANCH  18  19
ENDBRANCH   1  18
TORSDOF 6
