REMARK  Name = ZINC39467069
REMARK  4 active torsions:
REMARK  status: ('A' for Active; 'I' for Inactive)
REMARK    1  A    between atoms: C_4  and  C_7
REMARK    2  A    between atoms: C_7  and  C_8
REMARK    3  A    between atoms: P_17  and  C_27
REMARK    4  A    between atoms: C_32  and  O_33
REMARK                            x       y       z     vdW  Elec       q    Type
REMARK                         _______ _______ _______ _____ _____    ______ ____
ROOT
ATOM      1  C   UNL     1       4.164  -0.959   1.377  0.00  0.00    -0.029 C 
ATOM      2  C   UNL     1       3.893  -2.119   1.969  0.00  0.00    -0.018 C 
ATOM      3  C   UNL     1       4.358  -2.368   3.378  0.00  0.00    +0.016 C 
ATOM      4  C   UNL     1       4.504  -3.861   3.633  0.00  0.00    -0.003 C 
ATOM      5  C   UNL     1       5.538  -4.137   4.733  0.00  0.00    -0.020 C 
ATOM      6  C   UNL     1       5.106  -5.457   5.387  0.00  0.00    +0.157 C 
ATOM      7  O   UNL     1       6.029  -5.830   6.422  0.00  0.00    -0.316 OA
ATOM      8  P   UNL     1       6.389  -4.702   7.540  0.00  0.00    +0.291 P 
ATOM      9  O   UNL     1       7.673  -5.025   8.202  0.00  0.00    -0.269 OA
ATOM     10  N   UNL     1       6.520  -3.295   6.692  0.00  0.00    -0.288 NA
ATOM     11  N   UNL     1       5.595  -3.046   5.698  0.00  0.00    +0.398 N 
ATOM     12  C   UNL     1       6.062  -1.789   5.093  0.00  0.00    -0.046 C 
ATOM     13  C   UNL     1       5.715  -1.703   3.600  0.00  0.00    +0.006 C 
ATOM     14  C   UNL     1       5.652  -0.264   3.163  0.00  0.00    -0.005 C 
ATOM     15  C   UNL     1       4.916   0.075   2.109  0.00  0.00    +0.040 C 
ATOM     16 CL   UNL     1       4.834   1.734   1.604  0.00  0.00    -0.084 Cl
ATOM     17  H   UNL     1       7.224  -2.659   6.894  0.00  0.00    +0.111 HD
ATOM     18  H   UNL     1       4.681  -2.907   6.102  0.00  0.00    -0.055 HD
ENDROOT
BRANCH   8  19
ATOM     19  C   UNL     1       5.060  -4.583   8.768  0.00  0.00    +0.091 A 
ATOM     20  C   UNL     1       4.009  -3.708   8.567  0.00  0.00    +0.018 A 
ATOM     21  C   UNL     1       2.996  -3.616   9.503  0.00  0.00    +0.001 A 
ATOM     22  C   UNL     1       3.031  -4.400  10.642  0.00  0.00    +0.004 A 
ATOM     23  C   UNL     1       4.079  -5.276  10.848  0.00  0.00    +0.046 A 
ATOM     24  C   UNL     1       5.094  -5.373   9.907  0.00  0.00    +0.131 A 
BRANCH  24  25
ATOM     25  O   UNL     1       6.124  -6.239  10.104  0.00  0.00    -0.506 OA
ATOM     26  H   UNL     1       6.871  -5.858  10.586  0.00  0.00    +0.292 HD
ENDBRANCH  24  25
ENDBRANCH   8  19
BRANCH   1  27
ATOM     27  C   UNL     1       3.711  -0.707  -0.038  0.00  0.00    +0.071 C 
BRANCH  27  31
ATOM     28  C   UNL     1      -0.017   1.378   0.010  0.00  0.00    +0.000 A 
ATOM     29  C   UNL     1       1.171   2.086   0.002  0.00  0.00    +0.000 A 
ATOM     30  C   UNL     1       2.377   1.411  -0.013  0.00  0.00    +0.004 A 
ATOM     31  C   UNL     1       2.396   0.029  -0.020  0.00  0.00    -0.043 A 
ATOM     32  C   UNL     1       1.208  -0.679  -0.012  0.00  0.00    +0.004 A 
ATOM     33  C   UNL     1       0.002  -0.004   0.002  0.00  0.00    +0.000 A 
ENDBRANCH  27  31
ENDBRANCH   1  27
TORSDOF 4
