REMARK  Name = ZINC20292038
REMARK  12 active torsions:
REMARK  status: ('A' for Active; 'I' for Inactive)
REMARK    1  A    between atoms: C_1  and  C_2
REMARK    2  A    between atoms: C_2  and  C_3
REMARK    3  A    between atoms: C_3  and  C_5
REMARK    4  A    between atoms: C_3  and  C_6
REMARK    5  A    between atoms: C_9  and  N_12
REMARK    6  A    between atoms: C_13  and  C_15
REMARK    7  A    between atoms: C_15  and  S_16
REMARK    8  A    between atoms: S_16  and  C_17
REMARK    9  A    between atoms: N_21  and  N_22
REMARK   10  A    between atoms: N_23  and  N_24
REMARK   11  A    between atoms: C_25  and  C_26
REMARK   12  A    between atoms: C_29  and  N_32
REMARK                            x       y       z     vdW  Elec       q    Type
REMARK                         _______ _______ _______ _____ _____    ______ ____
ROOT
ATOM      1  C   UNL     1      -2.321 -10.425   3.316  0.00  0.00    +0.210 A 
ATOM      2  N   UNL     1      -1.699 -11.179   2.383  0.00  0.00    -0.119 NA
ATOM      3  N   UNL     1      -1.721 -12.413   2.742  0.00  0.00    -0.109 NA
ATOM      4  C   UNL     1      -2.357 -12.528   3.926  0.00  0.00    +0.254 A 
ATOM      5  N   UNL     1      -2.741 -11.267   4.308  0.00  0.00    -0.211 N 
ATOM      6  N   UNL     1      -2.570 -13.660   4.604  0.00  0.00    -0.204 N 
ATOM      7  H   UNL     1      -3.041 -13.636   5.452  0.00  0.00    +0.177 HD
ENDROOT
BRANCH   5   8
ATOM      8  N   UNL     1      -3.411 -10.922   5.447  0.00  0.00    -0.294 N 
ATOM      9  H   UNL     1      -4.409 -10.948   5.302  0.00  0.00    +0.163 HD
ATOM     10  H   UNL     1      -3.142 -11.516   6.218  0.00  0.00    +0.163 HD
ENDBRANCH   5   8
BRANCH   6  11
ATOM     11  N   UNL     1      -2.150 -14.784   4.131  0.00  0.00    -0.188 NA
ATOM     12  C   UNL     1      -2.360 -15.897   4.798  0.00  0.00    +0.138 C 
BRANCH  12  13
ATOM     13  C   UNL     1      -1.883 -17.173   4.261  0.00  0.00    -0.005 A 
ATOM     14  C   UNL     1      -1.196 -17.212   3.037  0.00  0.00    +0.012 A 
ATOM     15  C   UNL     1      -0.751 -18.417   2.540  0.00  0.00    +0.033 A 
ATOM     16  C   UNL     1      -0.980 -19.589   3.244  0.00  0.00    +0.126 A 
ATOM     17  C   UNL     1      -1.657 -19.561   4.453  0.00  0.00    +0.033 A 
ATOM     18  C   UNL     1      -2.104 -18.365   4.969  0.00  0.00    +0.012 A 
BRANCH  16  19
ATOM     19  N   UNL     1      -0.499 -20.879   2.700  0.00  0.00    +0.056 N 
ATOM     20  O   UNL     1       0.144 -20.911   1.552  0.00  0.00    -0.126 OA
ATOM     21  O   UNL     1      -0.714 -21.995   3.366  0.00  0.00    -0.126 OA
ENDBRANCH  16  19
ENDBRANCH  12  13
ENDBRANCH   6  11
BRANCH   1  22
ATOM     22  S   UNL     1      -2.529  -8.779   3.271  0.00  0.00    -0.075 S 
BRANCH  22  23
ATOM     23  C   UNL     1      -1.750  -8.281   1.710  0.00  0.00    +0.173 C 
BRANCH  23  25
ATOM     24  N   UNL     1      -1.359  -6.190   0.448  0.00  0.00    -0.285 N 
ATOM     25  C   UNL     1      -1.870  -6.788   1.542  0.00  0.00    +0.227 C 
ATOM     26  O   UNL     1      -2.426  -6.125   2.392  0.00  0.00    -0.275 OA
ATOM     27  H   UNL     1      -0.983  -6.726  -0.267  0.00  0.00    +0.155 HD
BRANCH  24  31
ATOM     28  C   UNL     1      -1.395  -2.035   0.137  0.00  0.00    -0.044 A 
ATOM     29  C   UNL     1      -1.244  -2.633   1.374  0.00  0.00    +0.006 A 
ATOM     30  C   UNL     1      -1.232  -4.010   1.481  0.00  0.00    +0.023 A 
ATOM     31  C   UNL     1      -1.372  -4.794   0.344  0.00  0.00    +0.033 A 
ATOM     32  C   UNL     1      -1.524  -4.191  -0.898  0.00  0.00    +0.023 A 
ATOM     33  C   UNL     1      -1.541  -2.813  -0.997  0.00  0.00    +0.006 A 
BRANCH  28  34
ATOM     34  C   UNL     1      -1.409  -0.532   0.024  0.00  0.00    +0.016 C 
ATOM     35  C   UNL     1      -0.083   0.029   0.541  0.00  0.00    +0.012 C 
BRANCH  34  37
ATOM     36  C   UNL     1      -2.652   1.544   0.645  0.00  0.00    +0.004 C 
ATOM     37  C   UNL     1      -2.562   0.031   0.857  0.00  0.00    +0.004 C 
ENDBRANCH  34  37
ENDBRANCH  28  34
ENDBRANCH  24  31
ENDBRANCH  23  25
ENDBRANCH  22  23
ENDBRANCH   1  22
TORSDOF 10
