REMARK  Name = ZINC36855917
REMARK  6 active torsions:
REMARK  status: ('A' for Active; 'I' for Inactive)
REMARK    1  A    between atoms: C_2  and  C_3
REMARK    2  A    between atoms: C_3  and  N_4
REMARK    3  A    between atoms: C_13  and  S_14
REMARK    4  A    between atoms: S_14  and  C_15
REMARK    5  A    between atoms: C_15  and  C_16
REMARK    6  A    between atoms: N_18  and  C_19
REMARK                            x       y       z     vdW  Elec       q    Type
REMARK                         _______ _______ _______ _____ _____    ______ ____
ROOT
ATOM      1  C   UNL     1       0.946  -5.721   1.593  0.00  0.00    +0.227 C 
ATOM      2  O   UNL     1       1.015  -5.021   2.580  0.00  0.00    -0.275 OA
ATOM      3  N   UNL     1       1.404  -6.988   1.632  0.00  0.00    -0.285 N 
ATOM      4  H   UNL     1       1.289  -7.569   0.864  0.00  0.00    +0.155 HD
ENDROOT
BRANCH   3   5
ATOM      5  C   UNL     1       2.046  -7.466   2.782  0.00  0.00    +0.037 A 
ATOM      6  C   UNL     1       3.101  -8.361   2.666  0.00  0.00    +0.027 A 
ATOM      7  C   UNL     1       3.736  -8.834   3.800  0.00  0.00    +0.051 A 
ATOM      8  C   UNL     1       3.321  -8.415   5.052  0.00  0.00    +0.167 A 
ATOM      9  C   UNL     1       2.262  -7.516   5.171  0.00  0.00    +0.169 A 
ATOM     10  C   UNL     1       1.630  -7.040   4.036  0.00  0.00    +0.072 A 
ATOM     11  O   UNL     1       2.057  -7.266   6.503  0.00  0.00    -0.447 OA
ATOM     12  C   UNL     1       2.662  -8.388   7.161  0.00  0.00    +0.254 C 
ATOM     13  O   UNL     1       3.769  -8.722   6.311  0.00  0.00    -0.448 OA
ATOM     14  C   UNL     1       1.679  -9.557   7.282  0.00  0.00    +0.093 C 
ATOM     15  C   UNL     1       2.043 -10.213   8.640  0.00  0.00    +0.008 C 
ATOM     16  C   UNL     1       2.397  -8.993   9.528  0.00  0.00    +0.008 C 
ATOM     17  C   UNL     1       3.128  -8.025   8.570  0.00  0.00    +0.093 C 
ENDBRANCH   3   5
BRANCH   1  18
ATOM     18  C   UNL     1       0.350  -5.174   0.321  0.00  0.00    +0.173 C 
BRANCH  18  19
ATOM     19  S   UNL     1      -0.169  -3.457   0.587  0.00  0.00    -0.078 S 
BRANCH  19  29
ATOM     20  N   UNL     1      -1.328  -1.704  -1.123  0.00  0.00    -0.283 N 
ATOM     21  C   UNL     1      -1.840  -1.292  -2.298  0.00  0.00    +0.263 A 
ATOM     22  O   UNL     1      -2.271  -0.159  -2.421  0.00  0.00    -0.267 OA
ATOM     23  C   UNL     1      -1.871  -2.203  -3.401  0.00  0.00    +0.072 A 
ATOM     24  C   UNL     1      -2.366  -1.995  -4.751  0.00  0.00    +0.023 A 
ATOM     25  C   UNL     1      -2.295  -2.999  -5.637  0.00  0.00    +0.048 A 
ATOM     26  S   UNL     1      -1.544  -4.321  -4.705  0.00  0.00    -0.077 S 
ATOM     27  C   UNL     1      -1.347  -3.485  -3.152  0.00  0.00    +0.116 A 
ATOM     28  N   UNL     1      -0.856  -3.828  -1.967  0.00  0.00    -0.216 NA
ATOM     29  C   UNL     1      -0.836  -2.967  -0.969  0.00  0.00    +0.173 A 
BRANCH  20  30
ATOM     30  C   UNL     1      -1.294  -0.776   0.010  0.00  0.00    +0.154 C 
BRANCH  30  32
ATOM     31  C   UNL     1      -0.014   1.303  -0.006  0.00  0.00    +0.005 C 
ATOM     32  C   UNL     1       0.001  -0.007  -0.009  0.00  0.00    -0.013 C 
ENDBRANCH  30  32
ENDBRANCH  20  30
ENDBRANCH  19  29
ENDBRANCH  18  19
ENDBRANCH   1  18
TORSDOF 6
