REMARK  Name = ZINC35870298
REMARK  6 active torsions:
REMARK  status: ('A' for Active; 'I' for Inactive)
REMARK    1  A    between atoms: C_4  and  C_7
REMARK    2  A    between atoms: C_7  and  C_8
REMARK    3  A    between atoms: C_8  and  N_9
REMARK    4  A    between atoms: C_10  and  C_12
REMARK    5  A    between atoms: C_17  and  N_35
REMARK    6  A    between atoms: N_25  and  C_28
REMARK                            x       y       z     vdW  Elec       q    Type
REMARK                         _______ _______ _______ _____ _____    ______ ____
ROOT
ATOM      1  C   UNL     1       7.349  -2.725   2.519  0.00  0.00    +0.101 C 
ATOM      2  C   UNL     1       7.180  -4.051   1.780  0.00  0.00    +0.051 C 
ATOM      3  C   UNL     1       6.223  -4.919   2.556  0.00  0.00    -0.023 A 
ATOM      4  C   UNL     1       5.445  -5.846   1.886  0.00  0.00    +0.038 A 
ATOM      5  C   UNL     1       4.556  -6.639   2.588  0.00  0.00    +0.127 A 
ATOM      6  C   UNL     1       4.443  -6.506   3.960  0.00  0.00    +0.034 A 
ATOM      7  C   UNL     1       5.219  -5.585   4.633  0.00  0.00    +0.025 A 
ATOM      8  C   UNL     1       6.119  -4.789   3.929  0.00  0.00    +0.033 A 
ATOM      9  N   UNL     1       6.915  -3.879   4.647  0.00  0.00    -0.323 N 
ATOM     10  C   UNL     1       7.821  -2.983   3.954  0.00  0.00    +0.103 C 
ATOM     11  C   UNL     1       7.993  -1.644   4.650  0.00  0.00    +0.128 C 
ATOM     12  N   UNL     1       7.894  -1.738   6.093  0.00  0.00    -0.327 N 
ATOM     13  C   UNL     1       6.910  -2.577   6.757  0.00  0.00    +0.124 C 
ATOM     14  C   UNL     1       6.814  -3.933   6.104  0.00  0.00    +0.124 C 
ENDROOT
BRANCH  12  15
ATOM     15  C   UNL     1       8.781  -0.993   6.877  0.00  0.00    +0.030 A 
ATOM     16  C   UNL     1       8.639  -0.974   8.258  0.00  0.00    +0.026 A 
ATOM     17  C   UNL     1       9.517  -0.238   9.031  0.00  0.00    +0.040 A 
ATOM     18  C   UNL     1      10.536   0.480   8.429  0.00  0.00    +0.124 A 
ATOM     19  C   UNL     1      10.679   0.463   7.052  0.00  0.00    +0.040 A 
ATOM     20  C   UNL     1       9.807  -0.276   6.276  0.00  0.00    +0.026 A 
ATOM     21  F   UNL     1      11.393   1.200   9.187  0.00  0.00    -0.205 F 
ENDBRANCH  12  15
BRANCH   1  23
ATOM     22  N   UNL     1       5.418  -1.659   1.399  0.00  0.00    -0.315 N 
ATOM     23  C   UNL     1       6.029  -1.998   2.551  0.00  0.00    +0.218 C 
ATOM     24  O   UNL     1       5.516  -1.719   3.614  0.00  0.00    -0.275 OA
ATOM     25  H   UNL     1       5.829  -1.882   0.549  0.00  0.00    +0.149 HD
BRANCH  22  26
ATOM     26  C   UNL     1       4.135  -0.953   1.430  0.00  0.00    +0.109 C 
BRANCH  26  27
ATOM     27  C   UNL     1       3.664  -0.688  -0.002  0.00  0.00    +0.054 C 
BRANCH  27  31
ATOM     28  C   UNL     1      -0.078   1.371   0.086  0.00  0.00    +0.000 A 
ATOM     29  C   UNL     1       1.105   2.086   0.076  0.00  0.00    +0.000 A 
ATOM     30  C   UNL     1       2.316   1.420   0.048  0.00  0.00    +0.004 A 
ATOM     31  C   UNL     1       2.344   0.038   0.030  0.00  0.00    -0.046 A 
ATOM     32  C   UNL     1       1.161  -0.678   0.041  0.00  0.00    +0.004 A 
ATOM     33  C   UNL     1      -0.050  -0.011   0.068  0.00  0.00    +0.000 A 
ENDBRANCH  27  31
ENDBRANCH  26  27
ENDBRANCH  22  26
ENDBRANCH   1  23
BRANCH   5  34
ATOM     34  N   UNL     1       3.726  -7.631   1.870  0.00  0.00    +0.056 N 
ATOM     35  O   UNL     1       3.825  -7.748   0.670  0.00  0.00    -0.126 OA
ATOM     36  O   UNL     1       2.948  -8.325   2.482  0.00  0.00    -0.126 OA
ENDBRANCH   5  34
TORSDOF 6
