REMARK  Name = ZINC39681370
REMARK  6 active torsions:
REMARK  status: ('A' for Active; 'I' for Inactive)
REMARK    1  A    between atoms: C_5  and  O_7
REMARK    2  A    between atoms: O_7  and  C_8
REMARK    3  A    between atoms: C_8  and  C_9
REMARK    4  A    between atoms: C_9  and  N_10
REMARK    5  A    between atoms: C_11  and  C_13
REMARK    6  A    between atoms: C_24  and  C_26
REMARK                            x       y       z     vdW  Elec       q    Type
REMARK                         _______ _______ _______ _____ _____    ______ ____
ROOT
ATOM      1  C   UNL     1       1.181  -6.260   2.000  0.00  0.00    +0.100 C 
ATOM      2  C   UNL     1       0.793  -5.971   3.467  0.00  0.00    +0.121 C 
ATOM      3  N   UNL     1       0.003  -7.154   3.884  0.00  0.00    -0.300 N 
ATOM      4  C   UNL     1       0.701  -8.303   3.261  0.00  0.00    +0.115 C 
ATOM      5  C   UNL     1       1.123  -7.791   1.869  0.00  0.00    -0.004 C 
ATOM      6  C   UNL     1       2.497  -8.342   1.498  0.00  0.00    -0.010 C 
ATOM      7  C   UNL     1       2.401  -9.860   1.317  0.00  0.00    -0.082 C 
ATOM      8  N   UNL     1       1.427 -10.168   0.264  0.00  0.00    +0.379 N 
ATOM      9  C   UNL     1       0.090  -9.718   0.670  0.00  0.00    -0.082 C 
ATOM     10  C   UNL     1       0.088  -8.194   0.824  0.00  0.00    -0.010 C 
ATOM     11  C   UNL     1      -1.102  -7.178   4.657  0.00  0.00    +0.219 C 
ATOM     12  O   UNL     1      -1.602  -6.139   5.032  0.00  0.00    -0.275 OA
ATOM     13  H   UNL     1       1.695  -9.698  -0.588  0.00  0.00    -0.086 HD
ATOM     14  H   UNL     1       1.410 -11.165   0.104  0.00  0.00    -0.086 HD
ENDROOT
BRANCH  11  15
ATOM     15  C   UNL     1      -1.714  -8.496   5.054  0.00  0.00    +0.079 C 
ATOM     16  C   UNL     1      -3.207  -8.303   5.350  0.00  0.00    +0.017 C 
ATOM     17  C   UNL     1      -3.838  -9.679   5.575  0.00  0.00    +0.027 C 
ATOM     18  C   UNL     1      -3.021 -10.469   6.554  0.00  0.00    -0.031 C 
ATOM     19  C   UNL     1      -1.799 -10.185   6.875  0.00  0.00    -0.030 C 
ATOM     20  C   UNL     1      -1.030  -9.022   6.317  0.00  0.00    +0.039 C 
ENDBRANCH  11  15
BRANCH   1  22
ATOM     21  N   UNL     1       0.590  -5.227  -0.169  0.00  0.00    -0.312 N 
ATOM     22  C   UNL     1       0.195  -5.616   1.060  0.00  0.00    +0.218 C 
ATOM     23  O   UNL     1      -0.954  -5.448   1.408  0.00  0.00    -0.275 OA
ATOM     24  H   UNL     1       1.509  -5.362  -0.448  0.00  0.00    +0.149 HD
BRANCH  21  25
ATOM     25  C   UNL     1      -0.369  -4.601  -1.083  0.00  0.00    +0.145 C 
BRANCH  25  26
ATOM     26  C   UNL     1       0.331  -4.259  -2.400  0.00  0.00    +0.248 C 
BRANCH  26  27
ATOM     27  O   UNL     1       0.741  -5.464  -3.049  0.00  0.00    -0.489 OA
BRANCH  27  32
ATOM     28  C   UNL     1       2.264  -3.949  -5.985  0.00  0.00    +0.004 A 
ATOM     29  C   UNL     1       2.687  -5.075  -6.667  0.00  0.00    +0.002 A 
ATOM     30  C   UNL     1       2.459  -6.332  -6.138  0.00  0.00    +0.023 A 
ATOM     31  C   UNL     1       1.808  -6.465  -4.926  0.00  0.00    +0.083 A 
ATOM     32  C   UNL     1       1.382  -5.336  -4.241  0.00  0.00    +0.139 A 
ATOM     33  C   UNL     1       1.612  -4.076  -4.774  0.00  0.00    +0.047 A 
ATOM     34 CL   UNL     1       1.521  -8.044  -4.263  0.00  0.00    -0.080 Cl
ENDBRANCH  27  32
ENDBRANCH  26  27
ENDBRANCH  25  26
ENDBRANCH  21  25
ENDBRANCH   1  22
TORSDOF 6
