REMARK  Name = ZINC09777896
REMARK  9 active torsions:
REMARK  status: ('A' for Active; 'I' for Inactive)
REMARK    1  A    between atoms: C_1  and  C_2
REMARK    2  A    between atoms: C_2  and  C_4
REMARK    3  A    between atoms: C_2  and  N_58
REMARK    4  A    between atoms: N_6  and  C_7
REMARK    5  A    between atoms: C_8  and  C_17
REMARK    6  A    between atoms: C_19  and  N_58
REMARK    7  A    between atoms: C_20  and  C_21
REMARK    8  A    between atoms: C_20  and  N_58
REMARK    9  A    between atoms: N_24  and  C_26
REMARK                            x       y       z     vdW  Elec       q    Type
REMARK                         _______ _______ _______ _____ _____    ______ ____
ROOT
ATOM      1  C   UNL     1       1.960   1.741   1.360  0.00  0.00    -0.004 C 
ATOM      2  C   UNL     1       1.423   2.074  -0.033  0.00  0.00    +0.016 C 
ENDROOT
BRANCH   2   3
ATOM      3  C   UNL     1       1.303   3.569  -0.181  0.00  0.00    +0.204 C 
ATOM      4  O   UNL     1       0.210   4.095  -0.157  0.00  0.00    -0.277 OA
ATOM      5  N   UNL     1       2.410   4.321  -0.341  0.00  0.00    -0.280 N 
ATOM      6  H   UNL     1       3.284   3.900  -0.360  0.00  0.00    +0.155 HD
BRANCH   5   7
ATOM      7  C   UNL     1       2.300   5.698  -0.477  0.00  0.00    +0.090 A 
ATOM      8  C   UNL     1       3.310   6.630  -0.648  0.00  0.00    +0.084 A 
ATOM      9  C   UNL     1       2.928   8.030  -0.770  0.00  0.00    -0.018 A 
ATOM     10  C   UNL     1       1.601   8.267  -0.691  0.00  0.00    -0.004 A 
ATOM     11  S   UNL     1       0.865   6.668  -0.482  0.00  0.00    -0.077 S 
ATOM     12  C   UNL     1       0.900   9.587  -0.763  0.00  0.00    +0.043 C 
ATOM     13  C   UNL     1       1.419  10.368  -1.978  0.00  0.00    +0.005 C 
ATOM     14  C   UNL     1       2.624  11.196  -1.541  0.00  0.00    +0.001 C 
ATOM     15  C   UNL     1       3.401  10.459  -0.452  0.00  0.00    +0.005 C 
ATOM     16  C   UNL     1       3.949   9.140  -0.987  0.00  0.00    +0.037 C 
BRANCH   8  17
ATOM     17  C   UNL     1       4.684   6.230  -0.705  0.00  0.00    +0.102 C 
ATOM     18  N   UNL     1       5.774   5.912  -0.750  0.00  0.00    -0.191 NA
ENDBRANCH   8  17
ENDBRANCH   5   7
ENDBRANCH   2   3
BRANCH   2  20
ATOM     19  C   UNL     1       0.222   0.012  -0.445  0.00  0.00    -0.095 C 
ATOM     20  N   UNL     1       0.089   1.469  -0.232  0.00  0.00    +0.388 N 
ATOM     21  H   UNL     1      -0.348   1.889  -1.060  0.00  0.00    -0.081 HD
BRANCH  20  22
ATOM     22  C   UNL     1      -0.765   1.731   0.946  0.00  0.00    -0.039 C 
BRANCH  22  23
ATOM     23  C   UNL     1      -2.174   1.301   0.630  0.00  0.00    -0.026 A 
ATOM     24  C   UNL     1      -3.168   2.098   0.052  0.00  0.00    +0.136 A 
ATOM     25  N   UNL     1      -4.253   1.376  -0.070  0.00  0.00    -0.175 NA
ATOM     26  N   UNL     1      -3.988   0.097   0.437  0.00  0.00    -0.240 N 
ATOM     27  C   UNL     1      -2.704   0.077   0.861  0.00  0.00    +0.116 A 
BRANCH  26  28
ATOM     28  C   UNL     1      -4.893  -0.972   0.495  0.00  0.00    +0.065 A 
ATOM     29  C   UNL     1      -4.494  -2.193   1.021  0.00  0.00    +0.028 A 
ATOM     30  C   UNL     1      -5.390  -3.243   1.082  0.00  0.00    +0.002 A 
ATOM     31  C   UNL     1      -6.679  -3.081   0.610  0.00  0.00    +0.000 A 
ATOM     32  C   UNL     1      -7.078  -1.867   0.081  0.00  0.00    +0.002 A 
ATOM     33  C   UNL     1      -6.189  -0.812   0.022  0.00  0.00    +0.028 A 
ENDBRANCH  26  28
ENDBRANCH  22  23
ENDBRANCH  20  22
ENDBRANCH   2  20
TORSDOF 7
