REMARK  Name = ZINC41014431
REMARK  9 active torsions:
REMARK  status: ('A' for Active; 'I' for Inactive)
REMARK    1  A    between atoms: C_1  and  C_2
REMARK    2  A    between atoms: C_7  and  O_8
REMARK    3  A    between atoms: O_8  and  C_9
REMARK    4  A    between atoms: C_9  and  C_10
REMARK    5  A    between atoms: N_12  and  C_13
REMARK    6  A    between atoms: C_14  and  C_28
REMARK    7  A    between atoms: C_15  and  C_18
REMARK    8  A    between atoms: C_28  and  O_30
REMARK    9  A    between atoms: O_30  and  C_31
REMARK                            x       y       z     vdW  Elec       q    Type
REMARK                         _______ _______ _______ _____ _____    ______ ____
ROOT
ATOM      1  C   UNL     1       0.066   0.403   7.122  0.00  0.00    +0.086 A 
ATOM      2  C   UNL     1       0.089   0.043   8.460  0.00  0.00    +0.095 A 
ATOM      3  C   UNL     1       0.083   1.128   9.424  0.00  0.00    +0.005 A 
ATOM      4  C   UNL     1       0.054   2.379   8.895  0.00  0.00    +0.056 A 
ATOM      5  S   UNL     1       0.044   2.080   7.141  0.00  0.00    -0.080 S 
ENDROOT
BRANCH   3   6
ATOM      6  C   UNL     1       0.105   0.888  10.887  0.00  0.00    -0.016 A 
ATOM      7  C   UNL     1      -0.792  -0.010  11.465  0.00  0.00    +0.009 A 
ATOM      8  C   UNL     1      -0.761  -0.221  12.825  0.00  0.00    +0.004 A 
ATOM      9  C   UNL     1       0.155   0.449  13.628  0.00  0.00    -0.044 A 
ATOM     10  C   UNL     1       1.047   1.334  13.062  0.00  0.00    -0.044 A 
ATOM     11  C   UNL     1       1.024   1.553  11.692  0.00  0.00    +0.012 A 
ATOM     12  C   UNL     1       2.074   2.080  13.872  0.00  0.00    +0.035 C 
ATOM     13  C   UNL     1       1.704   2.066  15.354  0.00  0.00    +0.005 C 
ATOM     14  C   UNL     1       1.424   0.617  15.769  0.00  0.00    +0.005 C 
ATOM     15  C   UNL     1       0.122   0.170  15.109  0.00  0.00    +0.035 C 
ENDBRANCH   3   6
BRANCH   1  18
ATOM     16  C   UNL     1       0.047   0.090   4.775  0.00  0.00    +0.255 C 
ATOM     17  O   UNL     1       0.030   1.293   4.625  0.00  0.00    -0.272 OA
ATOM     18  N   UNL     1       0.066  -0.433   6.017  0.00  0.00    -0.277 N 
ATOM     19  H   UNL     1       0.080  -1.396   6.137  0.00  0.00    +0.155 HD
BRANCH  16  20
ATOM     20  C   UNL     1       0.048  -0.820   3.574  0.00  0.00    +0.324 C 
BRANCH  20  21
ATOM     21  O   UNL     1       0.025  -0.033   2.381  0.00  0.00    -0.483 OA
BRANCH  21  28
ATOM     22  C   UNL     1      -0.018   1.503   0.010  0.00  0.00    +0.047 C 
ATOM     23  C   UNL     1       0.002  -0.004   0.002  0.00  0.00    -0.009 A 
ATOM     24  C   UNL     1       0.006  -0.689  -1.198  0.00  0.00    +0.007 A 
ATOM     25  C   UNL     1       0.024  -2.071  -1.206  0.00  0.00    +0.000 A 
ATOM     26  C   UNL     1       0.039  -2.772  -0.014  0.00  0.00    +0.004 A 
ATOM     27  C   UNL     1       0.036  -2.092   1.188  0.00  0.00    +0.046 A 
ATOM     28  C   UNL     1       0.023  -0.705   1.199  0.00  0.00    +0.124 A 
ENDBRANCH  21  28
ENDBRANCH  20  21
ENDBRANCH  16  20
ENDBRANCH   1  18
BRANCH   2  29
ATOM     29  C   UNL     1       0.118  -1.359   8.879  0.00  0.00    +0.342 C 
ATOM     30  O   UNL     1       1.184  -1.923   9.040  0.00  0.00    -0.245 OA
BRANCH  29  31
ATOM     31  O   UNL     1      -1.036  -2.025   9.086  0.00  0.00    -0.464 OA
ATOM     32  C   UNL     1      -0.933  -3.390   9.494  0.00  0.00    +0.280 C 
ENDBRANCH  29  31
ENDBRANCH   2  29
TORSDOF 7
