REMARK  Name = ZINC32317821
REMARK  8 active torsions:
REMARK  status: ('A' for Active; 'I' for Inactive)
REMARK    1  A    between atoms: C_1  and  C_2
REMARK    2  A    between atoms: C_5  and  S_8
REMARK    3  A    between atoms: S_8  and  C_11
REMARK    4  A    between atoms: C_14  and  C_17
REMARK    5  A    between atoms: C_17  and  S_18
REMARK    6  A    between atoms: S_18  and  C_19
REMARK    7  A    between atoms: C_22  and  C_25
REMARK    8  A    between atoms: N_23  and  N_24
REMARK                            x       y       z     vdW  Elec       q    Type
REMARK                         _______ _______ _______ _____ _____    ______ ____
ROOT
ATOM      1  C   UNL     1      -9.286  -4.612   0.560  0.00  0.00    +0.094 A 
ATOM      2  C   UNL     1      -8.816  -4.188  -0.668  0.00  0.00    +0.027 A 
ATOM      3  C   UNL     1      -7.484  -3.851  -0.820  0.00  0.00    +0.006 A 
ATOM      4  C   UNL     1      -6.622  -3.938   0.257  0.00  0.00    -0.037 A 
ATOM      5  C   UNL     1      -7.091  -4.367   1.485  0.00  0.00    +0.006 A 
ATOM      6  C   UNL     1      -8.424  -4.700   1.637  0.00  0.00    +0.027 A 
ENDROOT
BRANCH   1   7
ATOM      7  S   UNL     1     -10.984  -5.041   0.754  0.00  0.00    +0.025 S 
ATOM      8  O   UNL     1     -11.288  -4.885   2.133  0.00  0.00    -0.164 OA
ATOM      9  O   UNL     1     -11.696  -4.352  -0.266  0.00  0.00    -0.164 OA
BRANCH   7  14
ATOM     10  C   UNL     1     -11.489 -10.928  -0.467  0.00  0.00    +0.044 C 
ATOM     11  C   UNL     1     -11.364  -9.458  -0.162  0.00  0.00    -0.050 A 
ATOM     12  C   UNL     1     -11.109  -9.039   1.130  0.00  0.00    +0.005 A 
ATOM     13  C   UNL     1     -10.993  -7.691   1.410  0.00  0.00    +0.027 A 
ATOM     14  C   UNL     1     -11.132  -6.760   0.397  0.00  0.00    +0.094 A 
ATOM     15  C   UNL     1     -11.391  -7.178  -0.895  0.00  0.00    +0.027 A 
ATOM     16  C   UNL     1     -11.502  -8.527  -1.175  0.00  0.00    +0.005 A 
ENDBRANCH   7  14
ENDBRANCH   1   7
BRANCH   4  17
ATOM     17  C   UNL     1      -5.170  -3.570   0.092  0.00  0.00    +0.112 C 
BRANCH  17  18
ATOM     18  S   UNL     1      -4.950  -1.808   0.445  0.00  0.00    -0.080 S 
BRANCH  18  19
ATOM     19  C   UNL     1      -3.214  -1.659   0.183  0.00  0.00    +0.209 A 
ATOM     20  N   UNL     1      -2.393  -2.623  -0.170  0.00  0.00    -0.120 NA
ATOM     21  N   UNL     1      -1.196  -2.167  -0.278  0.00  0.00    -0.123 NA
ATOM     22  C   UNL     1      -1.177  -0.884   0.008  0.00  0.00    +0.217 A 
ATOM     23  N   UNL     1      -2.471  -0.519   0.309  0.00  0.00    -0.221 N 
BRANCH  22  24
ATOM     24  C   UNL     1       0.002  -0.004   0.002  0.00  0.00    +0.173 A 
ATOM     25  C   UNL     1       1.303  -0.409  -0.013  0.00  0.00    +0.053 A 
ATOM     26  C   UNL     1       2.091   0.758  -0.014  0.00  0.00    +0.042 A 
ATOM     27  C   UNL     1       1.245   1.807  -0.000  0.00  0.00    +0.196 A 
ATOM     28  O   UNL     1      -0.016   1.343   0.009  0.00  0.00    -0.460 OA
ENDBRANCH  22  24
BRANCH  23  29
ATOM     29  N   UNL     1      -2.917   0.724   0.660  0.00  0.00    -0.294 N 
ATOM     30  H   UNL     1      -2.211   1.564   0.726  0.00  0.00    +0.163 HD
ATOM     31  H   UNL     1      -3.984   0.884   0.876  0.00  0.00    +0.163 HD
ENDBRANCH  23  29
ENDBRANCH  18  19
ENDBRANCH  17  18
ENDBRANCH   4  17
TORSDOF 7
