REMARK  Name = ZINC20891545
REMARK  8 active torsions:
REMARK  status: ('A' for Active; 'I' for Inactive)
REMARK    1  A    between atoms: C_1  and  C_2
REMARK    2  A    between atoms: C_5  and  C_8
REMARK    3  A    between atoms: C_8  and  O_9
REMARK    4  A    between atoms: O_9  and  C_10
REMARK    5  A    between atoms: C_13  and  C_16
REMARK    6  A    between atoms: C_19  and  C_36
REMARK    7  A    between atoms: C_30  and  C_35
REMARK    8  A    between atoms: C_32  and  C_34
REMARK                            x       y       z     vdW  Elec       q    Type
REMARK                         _______ _______ _______ _____ _____    ______ ____
ROOT
ATOM      1  C   UNL     1      -2.504   1.509   0.004  0.00  0.00    +0.112 C 
ATOM      2  C   UNL     1      -3.179   1.406   1.336  0.00  0.00    +0.033 A 
ATOM      3  C   UNL     1      -2.456   1.466   2.547  0.00  0.00    +0.067 A 
ATOM      4  N   UNL     1      -3.289   1.355   3.541  0.00  0.00    -0.167 NA
ATOM      5  N   UNL     1      -4.575   1.220   3.018  0.00  0.00    -0.183 N 
ATOM      6  C   UNL     1      -4.485   1.251   1.642  0.00  0.00    +0.137 A 
ATOM      7  N   UNL     1      -5.604   1.131   0.855  0.00  0.00    -0.269 N 
ATOM      8  C   UNL     1      -5.835   1.170  -0.423  0.00  0.00    +0.228 C 
ATOM      9  O   UNL     1      -7.008   1.124  -0.730  0.00  0.00    -0.275 OA
ATOM     10  C   UNL     1      -4.897   1.262  -1.561  0.00  0.00    +0.166 C 
ATOM     11  S   UNL     1      -3.500   2.345  -1.233  0.00  0.00    -0.138 S 
ATOM     12  C   UNL     1      -5.748   1.079   3.758  0.00  0.00    +0.253 A 
ATOM     13  N   UNL     1      -6.886   0.845   3.125  0.00  0.00    -0.216 NA
ATOM     14  C   UNL     1      -8.017   0.701   3.797  0.00  0.00    +0.044 A 
ATOM     15  C   UNL     1      -8.000   0.809   5.178  0.00  0.00    +0.046 A 
ATOM     16  C   UNL     1      -6.791   1.060   5.808  0.00  0.00    +0.044 A 
ATOM     17  N   UNL     1      -5.697   1.189   5.076  0.00  0.00    -0.216 NA
ATOM     18  C   UNL     1      -6.724   1.187   7.309  0.00  0.00    +0.066 C 
ATOM     19  C   UNL     1      -9.307   0.429   3.068  0.00  0.00    +0.066 C 
ATOM     20  C   UNL     1      -0.963   1.631   2.669  0.00  0.00    +0.068 C 
ATOM     21  H   UNL     1      -6.587   0.961   1.318  0.00  0.00    +0.156 HD
ENDROOT
BRANCH   1  25
ATOM     22  C   UNL     1       1.165   3.644   0.493  0.00  0.00    +0.121 A 
ATOM     23  C   UNL     1      -0.041   4.255   0.802  0.00  0.00    +0.046 A 
ATOM     24  C   UNL     1      -1.226   3.564   0.639  0.00  0.00    +0.008 A 
ATOM     25  C   UNL     1      -1.210   2.263   0.174  0.00  0.00    -0.030 A 
ATOM     26  C   UNL     1      -0.010   1.653  -0.140  0.00  0.00    +0.008 A 
ATOM     27  C   UNL     1       1.178   2.339   0.021  0.00  0.00    +0.046 A 
BRANCH  22  28
ATOM     28  O   UNL     1       2.332   4.321   0.652  0.00  0.00    -0.487 OA
BRANCH  28  29
ATOM     29  C   UNL     1       3.536   3.629   0.314  0.00  0.00    +0.264 C 
BRANCH  29  34
ATOM     30  C   UNL     1       8.072   7.090   1.234  0.00  0.00    +0.044 C 
ATOM     31  C   UNL     1       6.889   6.187   0.994  0.00  0.00    -0.050 A 
ATOM     32  C   UNL     1       6.428   5.367   2.007  0.00  0.00    +0.004 A 
ATOM     33  C   UNL     1       5.343   4.539   1.787  0.00  0.00    +0.007 A 
ATOM     34  C   UNL     1       4.719   4.531   0.554  0.00  0.00    -0.010 A 
ATOM     35  C   UNL     1       5.183   5.347  -0.461  0.00  0.00    +0.007 A 
ATOM     36  C   UNL     1       6.265   6.178  -0.240  0.00  0.00    +0.004 A 
ENDBRANCH  29  34
ENDBRANCH  28  29
ENDBRANCH  22  28
ENDBRANCH   1  25
TORSDOF 4
