REMARK  Name = ZINC09465602
REMARK  6 active torsions:
REMARK  status: ('A' for Active; 'I' for Inactive)
REMARK    1  A    between atoms: C_1  and  C_2
REMARK    2  A    between atoms: C_7  and  N_8
REMARK    3  A    between atoms: C_11  and  C_16
REMARK    4  A    between atoms: C_16  and  N_17
REMARK    5  A    between atoms: C_20  and  C_24
REMARK    6  A    between atoms: C_20  and  C_25
REMARK                            x       y       z     vdW  Elec       q    Type
REMARK                         _______ _______ _______ _____ _____    ______ ____
ROOT
ATOM      1  C   UNL     1       2.681   5.545  -2.699  0.00  0.00    +0.194 C 
ENDROOT
BRANCH   1   5
ATOM      2  N   UNL     1       5.571   2.319  -4.764  0.00  0.00    -0.283 N 
ATOM      3  C   UNL     1       4.431   3.097  -4.819  0.00  0.00    +0.224 A 
ATOM      4  N   UNL     1       4.123   3.900  -3.804  0.00  0.00    -0.198 NA
ATOM      5  C   UNL     1       3.030   4.641  -3.853  0.00  0.00    +0.154 A 
ATOM      6  N   UNL     1       2.244   4.596  -4.915  0.00  0.00    -0.198 NA
ATOM      7  C   UNL     1       2.548   3.799  -5.937  0.00  0.00    +0.217 A 
ATOM      8  N   UNL     1       3.643   3.048  -5.888  0.00  0.00    -0.181 NA
ATOM      9  N   UNL     1       1.727   3.751  -7.045  0.00  0.00    -0.327 N 
ATOM     10  H   UNL     1       6.190   2.417  -4.024  0.00  0.00    +0.155 HD
ATOM     11  H   UNL     1       0.927   4.299  -7.079  0.00  0.00    +0.145 HD
ATOM     12  H   UNL     1       1.949   3.170  -7.789  0.00  0.00    +0.145 HD
BRANCH   2  19
ATOM     13  C   UNL     1       8.275   1.564  -5.227  0.00  0.00    +0.045 C 
ATOM     14  C   UNL     1       7.139   0.994  -6.036  0.00  0.00    -0.029 A 
ATOM     15  C   UNL     1       7.394   0.073  -7.034  0.00  0.00    +0.005 A 
ATOM     16  C   UNL     1       6.352  -0.447  -7.780  0.00  0.00    +0.000 A 
ATOM     17  C   UNL     1       5.052  -0.050  -7.527  0.00  0.00    +0.002 A 
ATOM     18  C   UNL     1       4.789   0.866  -6.528  0.00  0.00    +0.023 A 
ATOM     19  C   UNL     1       5.833   1.390  -5.776  0.00  0.00    +0.036 A 
ENDBRANCH   2  19
ENDBRANCH   1   5
BRANCH   1  20
ATOM     20  N   UNL     1       1.843   4.816  -1.744  0.00  0.00    -0.217 N 
ATOM     21  C   UNL     1       2.322   4.099  -0.708  0.00  0.00    +0.251 C 
ATOM     22  O   UNL     1       3.485   3.941  -0.403  0.00  0.00    -0.272 OA
ATOM     23  C   UNL     1       1.106   3.530  -0.005  0.00  0.00    +0.135 C 
ATOM     24  N   UNL     1      -0.024   4.040  -0.801  0.00  0.00    -0.281 N 
ATOM     25  C   UNL     1       0.506   4.779  -1.792  0.00  0.00    +0.310 C 
ATOM     26  O   UNL     1      -0.155   5.350  -2.637  0.00  0.00    -0.252 OA
ATOM     27  C   UNL     1       1.028   4.040   1.435  0.00  0.00    +0.047 C 
ATOM     28  H   UNL     1      -0.966   3.875  -0.642  0.00  0.00    +0.152 HD
BRANCH  23  29
ATOM     29  C   UNL     1       1.135   2.023  -0.031  0.00  0.00    -0.015 A 
ATOM     30  C   UNL     1       2.345   1.355  -0.045  0.00  0.00    +0.006 A 
ATOM     31  C   UNL     1       2.370  -0.026  -0.070  0.00  0.00    +0.004 A 
ATOM     32  C   UNL     1       1.185  -0.744  -0.080  0.00  0.00    -0.044 A 
ATOM     33  C   UNL     1      -0.025  -0.075  -0.065  0.00  0.00    -0.044 A 
ATOM     34  C   UNL     1      -0.047   1.309  -0.041  0.00  0.00    +0.010 A 
ATOM     35  C   UNL     1      -1.161  -1.075  -0.080  0.00  0.00    +0.036 C 
ATOM     36  C   UNL     1      -0.524  -2.418   0.335  0.00  0.00    +0.009 C 
ATOM     37  C   UNL     1       0.944  -2.238  -0.106  0.00  0.00    +0.036 C 
ENDBRANCH  23  29
ENDBRANCH   1  20
TORSDOF 4
