REMARK  Name = ZINC20664437
REMARK  7 active torsions:
REMARK  status: ('A' for Active; 'I' for Inactive)
REMARK    1  A    between atoms: C_1  and  C_2
REMARK    2  A    between atoms: C_7  and  N_12
REMARK    3  A    between atoms: C_9  and  C_11
REMARK    4  A    between atoms: C_13  and  C_15
REMARK    5  A    between atoms: C_18  and  S_24
REMARK    6  A    between atoms: C_19  and  N_21
REMARK    7  A    between atoms: S_24  and  C_25
REMARK                            x       y       z     vdW  Elec       q    Type
REMARK                         _______ _______ _______ _____ _____    ______ ____
ROOT
ATOM      1  C   UNL     1      -3.561  -0.978   1.994  0.00  0.00    +0.039 A 
ATOM      2  C   UNL     1      -3.968  -1.258   0.686  0.00  0.00    +0.014 A 
ATOM      3  C   UNL     1      -5.205  -1.788   0.454  0.00  0.00    +0.018 A 
ATOM      4  C   UNL     1      -6.066  -2.051   1.517  0.00  0.00    +0.043 A 
ATOM      5  C   UNL     1      -5.668  -1.776   2.823  0.00  0.00    +0.141 A 
ATOM      6  C   UNL     1      -4.420  -1.246   3.064  0.00  0.00    +0.047 A 
ENDROOT
BRANCH   1   8
ATOM      7  N   UNL     1      -1.395  -0.153   1.214  0.00  0.00    -0.308 N 
ATOM      8  C   UNL     1      -2.225  -0.406   2.245  0.00  0.00    +0.244 C 
ATOM      9  O   UNL     1      -1.871  -0.163   3.383  0.00  0.00    -0.270 OA
ATOM     10  H   UNL     1      -1.715  -0.373   0.184  0.00  0.00    +0.149 HD
BRANCH   7  16
ATOM     11  C   UNL     1       2.811   0.078   1.887  0.00  0.00    +0.008 C 
ATOM     12  C   UNL     1       2.257   0.635   0.574  0.00  0.00    -0.009 C 
ATOM     13  C   UNL     1       2.150   2.158   0.671  0.00  0.00    +0.003 C 
ATOM     14  C   UNL     1       1.211   2.531   1.820  0.00  0.00    +0.002 C 
ATOM     15  C   UNL     1      -0.175   1.938   1.559  0.00  0.00    +0.022 C 
ATOM     16  C   UNL     1      -0.068   0.415   1.463  0.00  0.00    +0.076 C 
ATOM     17  C   UNL     1       0.871   0.041   0.314  0.00  0.00    +0.009 C 
ATOM     18  C   UNL     1       0.978  -1.482   0.218  0.00  0.00    +0.009 C 
ENDBRANCH   7  16
ENDBRANCH   1   8
BRANCH   5  19
ATOM     19  N   UNL     1      -6.583  -2.057   3.952  0.00  0.00    +0.058 N 
ATOM     20  O   UNL     1      -6.235  -1.815   5.094  0.00  0.00    -0.126 OA
ATOM     21  O   UNL     1      -7.686  -2.530   3.738  0.00  0.00    -0.126 OA
ENDBRANCH   5  19
BRANCH   4  22
ATOM     22  S   UNL     1      -7.660  -2.734   1.210  0.00  0.00    -0.087 S 
BRANCH  22  23
ATOM     23  C   UNL     1      -7.486  -4.434   1.638  0.00  0.00    +0.013 A 
ATOM     24  C   UNL     1      -6.237  -4.944   1.973  0.00  0.00    +0.016 A 
ATOM     25  C   UNL     1      -6.105  -6.275   2.314  0.00  0.00    +0.016 A 
ATOM     26  C   UNL     1      -7.213  -7.105   2.312  0.00  0.00    +0.018 A 
ATOM     27  C   UNL     1      -8.457  -6.602   1.973  0.00  0.00    +0.016 A 
ATOM     28  C   UNL     1      -8.597  -5.270   1.637  0.00  0.00    +0.016 A 
ATOM     29 BR   UNL     1      -7.026  -8.929   2.772  0.00  0.00    -0.050 Br
ENDBRANCH  22  23
ENDBRANCH   4  22
TORSDOF 5
