REMARK  Name = ZINC22680605
REMARK  8 active torsions:
REMARK  status: ('A' for Active; 'I' for Inactive)
REMARK    1  A    between atoms: C_1  and  O_2
REMARK    2  A    between atoms: O_2  and  C_3
REMARK    3  A    between atoms: C_8  and  C_9
REMARK    4  A    between atoms: C_9  and  C_11
REMARK    5  A    between atoms: C_9  and  N_29
REMARK    6  A    between atoms: C_11  and  N_12
REMARK    7  A    between atoms: C_13  and  C_15
REMARK    8  A    between atoms: N_18  and  C_20
REMARK                            x       y       z     vdW  Elec       q    Type
REMARK                         _______ _______ _______ _____ _____    ______ ____
ROOT
ATOM      1  N   UNL     1       3.755   5.237   1.614  0.00  0.00    -0.311 N 
ATOM      2  C   UNL     1       4.130   5.657   2.839  0.00  0.00    +0.264 C 
ATOM      3  O   UNL     1       3.503   5.308   3.820  0.00  0.00    -0.268 OA
ATOM      4  H   UNL     1       4.322   5.553   0.726  0.00  0.00    +0.149 HD
ENDROOT
BRANCH   2   5
ATOM      5  C   UNL     1       5.303   6.541   2.988  0.00  0.00    +0.151 A 
ATOM      6  C   UNL     1       5.813   7.065   4.199  0.00  0.00    +0.006 A 
ATOM      7  C   UNL     1       6.885   7.810   3.855  0.00  0.00    +0.049 A 
ATOM      8  N   UNL     1       7.001   7.739   2.502  0.00  0.00    -0.236 N 
ATOM      9  N   UNL     1       6.072   6.996   2.018  0.00  0.00    -0.161 NA
ATOM     10  C   UNL     1       7.515   8.418   5.089  0.00  0.00    +0.056 C 
ATOM     11  C   UNL     1       6.431   8.303   6.188  0.00  0.00    +0.011 C 
ATOM     12  C   UNL     1       5.605   7.095   5.694  0.00  0.00    +0.040 C 
BRANCH   8  13
ATOM     13  C   UNL     1       7.990   8.383   1.746  0.00  0.00    +0.066 A 
ATOM     14  C   UNL     1       8.453   9.635   2.127  0.00  0.00    +0.028 A 
ATOM     15  C   UNL     1       9.432  10.264   1.383  0.00  0.00    +0.002 A 
ATOM     16  C   UNL     1       9.943   9.653   0.253  0.00  0.00    +0.000 A 
ATOM     17  C   UNL     1       9.480   8.408  -0.133  0.00  0.00    +0.002 A 
ATOM     18  C   UNL     1       8.506   7.771   0.611  0.00  0.00    +0.028 A 
ENDBRANCH   8  13
ENDBRANCH   2   5
BRANCH   1  19
ATOM     19  C   UNL     1       2.591   4.360   1.466  0.00  0.00    +0.094 C 
BRANCH  19  20
ATOM     20  C   UNL     1       2.460   3.929   0.003  0.00  0.00    -0.017 C 
BRANCH  20  26
ATOM     21  C   UNL     1       3.645   1.722  -0.116  0.00  0.00    +0.122 A 
ATOM     22  C   UNL     1       4.740   0.947  -0.468  0.00  0.00    +0.046 A 
ATOM     23  C   UNL     1       5.828   1.532  -1.086  0.00  0.00    +0.004 A 
ATOM     24  C   UNL     1       5.832   2.891  -1.342  0.00  0.00    +0.000 A 
ATOM     25  C   UNL     1       4.741   3.666  -0.992  0.00  0.00    +0.005 A 
ATOM     26  C   UNL     1       3.648   3.084  -0.379  0.00  0.00    -0.018 A 
BRANCH  21  28
ATOM     27  C   UNL     1       2.637  -0.259   0.728  0.00  0.00    +0.277 C 
ATOM     28  O   UNL     1       2.571   1.148   0.488  0.00  0.00    -0.495 OA
ENDBRANCH  21  28
ENDBRANCH  20  26
BRANCH  20  29
ATOM     29  N   UNL     1       2.409   5.120  -0.856  0.00  0.00    +0.385 N 
ATOM     30  C   UNL     1       2.228   4.741  -2.280  0.00  0.00    -0.078 C 
ATOM     31  C   UNL     1       1.680   6.039  -2.925  0.00  0.00    -0.020 C 
ATOM     32  C   UNL     1       0.753   6.606  -1.826  0.00  0.00    -0.020 C 
ATOM     33  C   UNL     1       1.249   5.971  -0.514  0.00  0.00    -0.078 C 
ATOM     34  H   UNL     1       3.360   5.649  -0.691  0.00  0.00    -0.081 HD
ENDBRANCH  20  29
ENDBRANCH  19  20
ENDBRANCH   1  19
TORSDOF 7
