REMARK  Name = ZINC16609849
REMARK  8 active torsions:
REMARK  status: ('A' for Active; 'I' for Inactive)
REMARK    1  A    between atoms: C_1  and  C_2
REMARK    2  A    between atoms: C_2  and  C_3
REMARK    3  A    between atoms: C_13  and  O_18
REMARK    4  A    between atoms: O_18  and  C_19
REMARK    5  A    between atoms: C_25  and  C_28
REMARK    6  A    between atoms: C_28  and  C_29
REMARK    7  A    between atoms: C_28  and  C_30
REMARK    8  A    between atoms: C_28  and  C_31
REMARK                            x       y       z     vdW  Elec       q    Type
REMARK                         _______ _______ _______ _____ _____    ______ ____
ROOT
ATOM      1  C   UNL     1      -8.169  -2.036   2.079  0.00  0.00    +0.218 C 
ATOM      2  O   UNL     1      -7.262  -2.511   1.430  0.00  0.00    -0.275 OA
ATOM      3  N   UNL     1      -7.982  -0.888   2.760  0.00  0.00    -0.270 N 
ATOM      4  C   UNL     1      -6.750  -0.250   2.719  0.00  0.00    +0.140 A 
ATOM      5  C   UNL     1      -6.525   0.942   3.414  0.00  0.00    +0.107 A 
ATOM      6  C   UNL     1      -5.206   1.458   3.475  0.00  0.00    +0.008 A 
ATOM      7  C   UNL     1      -4.957   2.585   4.392  0.00  0.00    +0.029 A 
ATOM      8  C   UNL     1      -3.677   3.036   4.704  0.00  0.00    +0.012 A 
ATOM      9  C   UNL     1      -3.492   4.121   5.537  0.00  0.00    +0.004 A 
ATOM     10  C   UNL     1      -4.581   4.781   6.079  0.00  0.00    +0.049 A 
ATOM     11  C   UNL     1      -5.860   4.334   5.808  0.00  0.00    +0.163 A 
ATOM     12  C   UNL     1      -6.058   3.225   4.986  0.00  0.00    +0.181 A 
ATOM     13  O   UNL     1      -7.322   2.799   4.770  0.00  0.00    -0.418 OA
ATOM     14  C   UNL     1      -7.602   1.692   4.062  0.00  0.00    +0.349 A 
ATOM     15  O   UNL     1      -8.762   1.337   3.967  0.00  0.00    -0.244 OA
ATOM     16  C   UNL     1      -4.234   0.872   2.661  0.00  0.00    -0.017 A 
ATOM     17  C   UNL     1      -4.557  -0.254   1.935  0.00  0.00    +0.047 A 
ATOM     18  N   UNL     1      -5.775  -0.783   2.007  0.00  0.00    -0.236 NA
ATOM     19  C   UNL     1      -3.579  -0.966   1.034  0.00  0.00    +0.056 C 
ATOM     20  C   UNL     1      -2.151  -0.484   1.269  0.00  0.00    +0.010 C 
ATOM     21  C   UNL     1      -2.163   1.050   1.278  0.00  0.00    -0.001 C 
ATOM     22  C   UNL     1      -2.870   1.501   2.557  0.00  0.00    +0.041 C 
ATOM     23  H   UNL     1      -8.708  -0.508   3.279  0.00  0.00    +0.156 HD
ENDROOT
BRANCH  21  24
ATOM     24  C   UNL     1      -0.729   1.579   1.267  0.00  0.00    -0.035 C 
ATOM     25  C   UNL     1      -0.013   1.086   0.008  0.00  0.00    +0.011 C 
ATOM     26  C   UNL     1       0.011   1.072   2.506  0.00  0.00    +0.011 C 
ATOM     27  C   UNL     1      -0.750   3.109   1.275  0.00  0.00    +0.011 C 
ENDBRANCH  21  24
BRANCH   1  29
ATOM     28  C   UNL     1      -9.452  -3.998   1.272  0.00  0.00    +0.013 C 
ATOM     29  C   UNL     1      -9.507  -2.729   2.123  0.00  0.00    +0.093 C 
ENDBRANCH   1  29
BRANCH  11  30
ATOM     30  O   UNL     1      -6.931   4.971   6.354  0.00  0.00    -0.491 OA
ATOM     31  C   UNL     1      -6.659   6.101   7.186  0.00  0.00    +0.277 C 
ENDBRANCH  11  30
TORSDOF 3
