REMARK  Name = ZINC06413883
REMARK  2 active torsions:
REMARK  status: ('A' for Active; 'I' for Inactive)
REMARK    1  A    between atoms: N_8  and  N_9
REMARK    2  A    between atoms: N_9  and  C_10
REMARK                            x       y       z     vdW  Elec       q    Type
REMARK                         _______ _______ _______ _____ _____    ______ ____
ROOT
ATOM      1  C   UNL     1      -0.025   1.328   0.560  0.00  0.00    +0.032 A 
ATOM      2  C   UNL     1       1.163   2.009   0.746  0.00  0.00    +0.043 A 
ATOM      3  C   UNL     1       2.371   1.338   0.648  0.00  0.00    +0.042 A 
ATOM      4  C   UNL     1       2.403  -0.014   0.366  0.00  0.00    +0.064 A 
ATOM      5  C   UNL     1       1.217  -0.716   0.175  0.00  0.00    +0.062 A 
ATOM      6  C   UNL     1      -0.002  -0.033   0.275  0.00  0.00    +0.031 A 
ATOM      7  C   UNL     1      -1.064  -1.035   0.025  0.00  0.00    +0.152 C 
ATOM      8  N   UNL     1      -2.362  -0.839   0.019  0.00  0.00    -0.181 NA
ATOM      9  C   UNL     1      -0.347  -2.299  -0.215  0.00  0.00    +0.269 C 
ATOM     10  O   UNL     1      -0.858  -3.377  -0.461  0.00  0.00    -0.268 OA
ATOM     11  N   UNL     1       0.970  -2.054  -0.115  0.00  0.00    -0.278 N 
ATOM     12 CL   UNL     1       3.926  -0.838   0.247  0.00  0.00    -0.082 Cl
ATOM     13 CL   UNL     1       1.141   3.708   1.102  0.00  0.00    -0.083 Cl
ATOM     14  H   UNL     1       1.661  -2.724  -0.232  0.00  0.00    +0.155 HD
ENDROOT
BRANCH   8  15
ATOM     15  N   UNL     1      -2.835   0.357   0.128  0.00  0.00    -0.264 N 
ATOM     16  H   UNL     1      -2.233   1.118   0.127  0.00  0.00    +0.168 HD
BRANCH  15  17
ATOM     17  C   UNL     1      -4.279   0.565   0.253  0.00  0.00    +0.112 C 
ATOM     18  C   UNL     1      -4.669   0.563   1.740  0.00  0.00    +0.048 C 
ATOM     19  C   UNL     1      -6.126   1.092   1.860  0.00  0.00    +0.168 C 
ATOM     20  S   UNL     1      -6.089   2.465   0.632  0.00  0.00    -0.029 S 
ATOM     21  O   UNL     1      -7.269   2.412  -0.157  0.00  0.00    -0.174 OA
ATOM     22  O   UNL     1      -5.747   3.673   1.299  0.00  0.00    -0.174 OA
ATOM     23  C   UNL     1      -4.660   1.921  -0.389  0.00  0.00    +0.189 C 
ENDBRANCH  15  17
ENDBRANCH   8  15
TORSDOF 2
