REMARK  Name = ZINC23121463
REMARK  13 active torsions:
REMARK  status: ('A' for Active; 'I' for Inactive)
REMARK    1  A    between atoms: C_1  and  C_2
REMARK    2  A    between atoms: C_2  and  C_4
REMARK    3  A    between atoms: C_2  and  S_21
REMARK    4  A    between atoms: N_6  and  C_7
REMARK    5  A    between atoms: C_9  and  O_19
REMARK    6  A    between atoms: C_10  and  O_17
REMARK    7  A    between atoms: C_12  and  C_13
REMARK    8  A    between atoms: C_13  and  O_15
REMARK    9  A    between atoms: O_15  and  C_16
REMARK   10  A    between atoms: O_17  and  C_18
REMARK   11  A    between atoms: O_19  and  C_20
REMARK   12  A    between atoms: S_21  and  C_22
REMARK   13  A    between atoms: C_25  and  N_28
REMARK                            x       y       z     vdW  Elec       q    Type
REMARK                         _______ _______ _______ _____ _____    ______ ____
ROOT
ATOM      1  C   UNL     1      -4.790  -2.402  -0.263  0.00  0.00    +0.230 C 
ATOM      2  O   UNL     1      -4.785  -3.589  -0.513  0.00  0.00    -0.274 OA
ATOM      3  N   UNL     1      -3.635  -1.769   0.021  0.00  0.00    -0.284 N 
ATOM      4  H   UNL     1      -3.646  -0.709   0.314  0.00  0.00    +0.155 HD
ENDROOT
BRANCH   3   5
ATOM      5  C   UNL     1      -2.425  -2.458  -0.055  0.00  0.00    +0.051 A 
ATOM      6  C   UNL     1      -2.329  -3.751   0.435  0.00  0.00    +0.073 A 
ATOM      7  C   UNL     1      -1.128  -4.436   0.358  0.00  0.00    +0.163 A 
ATOM      8  C   UNL     1      -0.007  -3.829  -0.212  0.00  0.00    +0.162 A 
ATOM      9  C   UNL     1      -0.091  -2.545  -0.708  0.00  0.00    +0.066 A 
ATOM     10  C   UNL     1      -1.300  -1.844  -0.629  0.00  0.00    +0.084 A 
BRANCH  10  11
ATOM     11  C   UNL     1      -1.394  -0.472  -1.152  0.00  0.00    +0.341 C 
ATOM     12  O   UNL     1      -2.463   0.106  -1.153  0.00  0.00    -0.245 OA
BRANCH  11  13
ATOM     13  O   UNL     1      -0.294   0.143  -1.631  0.00  0.00    -0.464 OA
ATOM     14  C   UNL     1      -0.461   1.496  -2.131  0.00  0.00    +0.280 C 
ENDBRANCH  11  13
ENDBRANCH  10  11
BRANCH   8  15
ATOM     15  O   UNL     1       1.170  -4.508  -0.283  0.00  0.00    -0.491 OA
ATOM     16  C   UNL     1       2.276  -3.828  -0.879  0.00  0.00    +0.277 C 
ENDBRANCH   8  15
BRANCH   7  17
ATOM     17  O   UNL     1      -1.039  -5.702   0.840  0.00  0.00    -0.491 OA
ATOM     18  C   UNL     1      -2.223  -6.264   1.411  0.00  0.00    +0.277 C 
ENDBRANCH   7  17
ENDBRANCH   3   5
BRANCH   1  20
ATOM     19  C   UNL     1      -6.583  -1.458   1.167  0.00  0.00    +0.029 C 
ATOM     20  C   UNL     1      -6.087  -1.636  -0.270  0.00  0.00    +0.134 C 
BRANCH  20  21
ATOM     21  S   UNL     1      -7.326  -2.552  -1.228  0.00  0.00    -0.113 S 
BRANCH  21  22
ATOM     22  C   UNL     1      -8.744  -1.507  -1.200  0.00  0.00    +0.009 A 
ATOM     23  C   UNL     1      -9.688  -1.640  -0.189  0.00  0.00    +0.017 A 
ATOM     24  C   UNL     1     -10.795  -0.815  -0.167  0.00  0.00    +0.034 A 
ATOM     25  C   UNL     1     -10.972   0.135  -1.157  0.00  0.00    +0.126 A 
ATOM     26  C   UNL     1     -10.037   0.266  -2.169  0.00  0.00    +0.034 A 
ATOM     27  C   UNL     1      -8.925  -0.551  -2.193  0.00  0.00    +0.017 A 
BRANCH  25  28
ATOM     28  N   UNL     1     -12.163   1.013  -1.134  0.00  0.00    +0.056 N 
ATOM     29  O   UNL     1     -12.319   1.850  -2.005  0.00  0.00    -0.126 OA
ATOM     30  O   UNL     1     -12.986   0.899  -0.244  0.00  0.00    -0.126 OA
ENDBRANCH  25  28
ENDBRANCH  21  22
ENDBRANCH  20  21
ENDBRANCH   1  20
TORSDOF 9
