REMARK  Name = ZINC02654952
REMARK  11 active torsions:
REMARK  status: ('A' for Active; 'I' for Inactive)
REMARK    1  A    between atoms: C_1  and  C_2
REMARK    2  A    between atoms: C_2  and  C_3
REMARK    3  A    between atoms: C_2  and  O_4
REMARK    4  A    between atoms: O_4  and  C_5
REMARK    5  A    between atoms: C_8  and  C_11
REMARK    6  A    between atoms: N_13  and  N_14
REMARK    7  A    between atoms: C_15  and  C_16
REMARK    8  A    between atoms: C_19  and  C_21
REMARK    9  A    between atoms: C_24  and  S_27
REMARK   10  A    between atoms: S_27  and  N_30
REMARK   11  A    between atoms: N_30  and  C_31
REMARK                            x       y       z     vdW  Elec       q    Type
REMARK                         _______ _______ _______ _____ _____    ______ ____
ROOT
ATOM      1  C   UNL     1      10.491  -1.651  -3.000  0.00  0.00    +0.148 A 
ATOM      2  C   UNL     1      11.325  -1.967  -4.051  0.00  0.00    +0.051 A 
ATOM      3  C   UNL     1      12.633  -1.943  -3.550  0.00  0.00    +0.050 A 
ATOM      4  C   UNL     1      12.550  -1.617  -2.229  0.00  0.00    +0.136 A 
ATOM      5  O   UNL     1      11.254  -1.439  -1.909  0.00  0.00    -0.454 OA
ENDROOT
BRANCH   4   6
ATOM      6  C   UNL     1      13.692  -1.479  -1.303  0.00  0.00    +0.017 A 
ATOM      7  C   UNL     1      14.995  -1.681  -1.762  0.00  0.00    +0.013 A 
ATOM      8  C   UNL     1      16.057  -1.549  -0.891  0.00  0.00    +0.029 A 
ATOM      9  C   UNL     1      15.833  -1.218   0.433  0.00  0.00    +0.111 A 
ATOM     10  C   UNL     1      14.544  -1.017   0.895  0.00  0.00    +0.029 A 
ATOM     11  C   UNL     1      13.473  -1.139   0.034  0.00  0.00    +0.013 A 
BRANCH   9  12
ATOM     12  S   UNL     1      17.196  -1.053   1.538  0.00  0.00    +0.094 S 
ATOM     13  O   UNL     1      16.687  -1.273   2.847  0.00  0.00    -0.148 OA
ATOM     14  O   UNL     1      18.257  -1.826   0.994  0.00  0.00    -0.148 OA
BRANCH  12  15
ATOM     15  N   UNL     1      17.684   0.529   1.480  0.00  0.00    -0.058 NA
BRANCH  15  16
ATOM     16  C   UNL     1      18.749   0.953   2.256  0.00  0.00    +0.257 A 
ATOM     17  N   UNL     1      19.370   0.080   3.035  0.00  0.00    -0.220 NA
ATOM     18  C   UNL     1      20.392   0.452   3.788  0.00  0.00    +0.116 A 
ATOM     19  C   UNL     1      20.810   1.774   3.755  0.00  0.00    +0.039 A 
ATOM     20  C   UNL     1      20.138   2.660   2.929  0.00  0.00    +0.116 A 
ATOM     21  N   UNL     1      19.127   2.221   2.197  0.00  0.00    -0.220 NA
ENDBRANCH  15  16
ENDBRANCH  12  15
ENDBRANCH   9  12
ENDBRANCH   4   6
BRANCH   1  23
ATOM     22  N   UNL     1       8.355  -1.243  -1.993  0.00  0.00    -0.184 NA
ATOM     23  C   UNL     1       9.031  -1.557  -3.060  0.00  0.00    +0.176 C 
BRANCH  22  26
ATOM     24  C   UNL     1       6.258  -0.828  -0.945  0.00  0.00    +0.263 C 
ATOM     25  O   UNL     1       6.839  -0.613   0.102  0.00  0.00    -0.268 OA
ATOM     26  N   UNL     1       6.958  -1.153  -2.050  0.00  0.00    -0.203 N 
ATOM     27  H   UNL     1       6.495  -1.324  -2.885  0.00  0.00    +0.178 HD
BRANCH  24  31
ATOM     28  C   UNL     1       2.024  -0.553  -1.118  0.00  0.00    +0.121 A 
ATOM     29  C   UNL     1       2.686  -0.307   0.079  0.00  0.00    +0.046 A 
ATOM     30  C   UNL     1       4.059  -0.396   0.140  0.00  0.00    +0.016 A 
ATOM     31  C   UNL     1       4.787  -0.733  -1.005  0.00  0.00    +0.039 A 
ATOM     32  C   UNL     1       4.117  -0.979  -2.207  0.00  0.00    +0.016 A 
ATOM     33  C   UNL     1       2.744  -0.894  -2.258  0.00  0.00    +0.046 A 
BRANCH  28  34
ATOM     34  O   UNL     1       0.671  -0.465  -1.174  0.00  0.00    -0.489 OA
BRANCH  34  36
ATOM     35  C   UNL     1      -0.044   1.273   0.346  0.00  0.00    +0.051 C 
ATOM     36  C   UNL     1      -0.015  -0.229   0.058  0.00  0.00    +0.167 C 
ATOM     37  C   UNL     1      -1.447  -0.756  -0.048  0.00  0.00    +0.051 C 
ENDBRANCH  34  36
ENDBRANCH  28  34
ENDBRANCH  24  31
ENDBRANCH  22  26
ENDBRANCH   1  23
TORSDOF 9
