REMARK  Name = ZINC00930824
REMARK  10 active torsions:
REMARK  status: ('A' for Active; 'I' for Inactive)
REMARK    1  A    between atoms: C_1  and  O_2
REMARK    2  A    between atoms: O_2  and  C_3
REMARK    3  A    between atoms: C_6  and  N_11
REMARK    4  A    between atoms: C_8  and  O_9
REMARK    5  A    between atoms: O_9  and  C_10
REMARK    6  A    between atoms: N_11  and  C_12
REMARK    7  A    between atoms: C_12  and  C_14
REMARK    8  A    between atoms: C_12  and  C_21
REMARK    9  A    between atoms: N_23  and  C_24
REMARK   10  A    between atoms: C_30  and  C_32
REMARK                            x       y       z     vdW  Elec       q    Type
REMARK                         _______ _______ _______ _____ _____    ______ ____
ROOT
ATOM      1  N   UNL     1      -4.993  -3.208  -0.187  0.00  0.00    -0.252 N 
ATOM      2  C   UNL     1      -5.151  -4.431  -0.731  0.00  0.00    +0.265 C 
ATOM      3  O   UNL     1      -6.245  -4.954  -0.739  0.00  0.00    -0.271 OA
ENDROOT
BRANCH   2   4
ATOM      4  C   UNL     1      -3.968  -5.148  -1.330  0.00  0.00    +0.296 C 
ATOM      5  C   UNL     1      -3.604  -4.509  -2.677  0.00  0.00    +0.283 C 
ATOM      6  O   UNL     1      -2.489  -5.222  -3.224  0.00  0.00    -0.484 OA
ATOM      7  C   UNL     1      -2.557  -6.581  -3.195  0.00  0.00    +0.162 A 
ATOM      8  C   UNL     1      -1.715  -7.322  -4.009  0.00  0.00    +0.049 A 
ATOM      9  C   UNL     1      -1.770  -8.703  -3.989  0.00  0.00    +0.004 A 
ATOM     10  C   UNL     1      -2.666  -9.349  -3.156  0.00  0.00    +0.004 A 
ATOM     11  C   UNL     1      -3.510  -8.616  -2.343  0.00  0.00    +0.049 A 
ATOM     12  C   UNL     1      -3.459  -7.229  -2.360  0.00  0.00    +0.163 A 
ATOM     13  O   UNL     1      -4.302  -6.521  -1.559  0.00  0.00    -0.472 OA
ENDBRANCH   2   4
BRANCH   1  17
ATOM     14  C   UNL     1      -1.323  -1.246  -0.492  0.00  0.00    +0.162 A 
ATOM     15  C   UNL     1      -2.395  -0.836  -1.268  0.00  0.00    +0.051 A 
ATOM     16  C   UNL     1      -3.611  -1.486  -1.167  0.00  0.00    +0.027 A 
ATOM     17  C   UNL     1      -3.760  -2.550  -0.288  0.00  0.00    +0.041 A 
ATOM     18  C   UNL     1      -2.687  -2.963   0.491  0.00  0.00    +0.073 A 
ATOM     19  C   UNL     1      -1.467  -2.316   0.386  0.00  0.00    +0.163 A 
BRANCH  14  21
ATOM     20  C   UNL     1      -0.049   0.484  -1.514  0.00  0.00    +0.277 C 
ATOM     21  O   UNL     1      -0.126  -0.605  -0.593  0.00  0.00    -0.491 OA
ENDBRANCH  14  21
BRANCH  19  22
ATOM     22  O   UNL     1      -0.414  -2.722   1.144  0.00  0.00    -0.491 OA
ATOM     23  C   UNL     1      -0.604  -3.889   1.946  0.00  0.00    +0.277 C 
ENDBRANCH  19  22
ENDBRANCH   1  17
BRANCH   1  24
ATOM     24  C   UNL     1      -6.110  -2.566   0.510  0.00  0.00    +0.197 C 
BRANCH  24  25
ATOM     25  C   UNL     1      -5.710  -1.173   0.924  0.00  0.00    -0.018 A 
ATOM     26  C   UNL     1      -4.609  -0.984   1.738  0.00  0.00    +0.009 A 
ATOM     27  C   UNL     1      -4.242   0.293   2.118  0.00  0.00    +0.038 A 
ATOM     28  C   UNL     1      -4.977   1.383   1.683  0.00  0.00    +0.123 A 
ATOM     29  C   UNL     1      -6.079   1.192   0.868  0.00  0.00    +0.038 A 
ATOM     30  C   UNL     1      -6.442  -0.086   0.485  0.00  0.00    +0.009 A 
ATOM     31  F   UNL     1      -4.618   2.631   2.055  0.00  0.00    -0.205 F 
ENDBRANCH  24  25
BRANCH  24  32
ATOM     32  C   UNL     1      -6.468  -3.371   1.733  0.00  0.00    +0.239 C 
ATOM     33  O   UNL     1      -5.850  -4.381   1.996  0.00  0.00    -0.273 OA
ATOM     34  N   UNL     1      -7.474  -2.968   2.534  0.00  0.00    -0.311 N 
ATOM     35  H   UNL     1      -7.968  -2.160   2.324  0.00  0.00    +0.149 HD
BRANCH  34  36
ATOM     36  C   UNL     1      -7.822  -3.750   3.723  0.00  0.00    +0.073 C 
ATOM     37  C   UNL     1      -8.780  -4.876   3.331  0.00  0.00    +0.022 C 
ATOM     38  C   UNL     1      -9.143  -5.693   4.572  0.00  0.00    +0.002 C 
ATOM     39  C   UNL     1      -9.818  -4.784   5.601  0.00  0.00    +0.000 C 
ATOM     40  C   UNL     1      -8.859  -3.658   5.994  0.00  0.00    +0.002 C 
ATOM     41  C   UNL     1      -8.496  -2.841   4.752  0.00  0.00    +0.022 C 
ENDBRANCH  34  36
ENDBRANCH  24  32
ENDBRANCH   1  24
TORSDOF 8
