REMARK  Name = ZINC24161542
REMARK  10 active torsions:
REMARK  status: ('A' for Active; 'I' for Inactive)
REMARK    1  A    between atoms: C_1  and  C_2
REMARK    2  A    between atoms: C_7  and  N_8
REMARK    3  A    between atoms: N_8  and  S_9
REMARK    4  A    between atoms: S_9  and  C_12
REMARK    5  A    between atoms: C_15  and  C_18
REMARK    6  A    between atoms: C_18  and  O_20
REMARK    7  A    between atoms: O_20  and  C_21
REMARK    8  A    between atoms: C_21  and  C_23
REMARK    9  A    between atoms: C_21  and  C_24
REMARK   10  A    between atoms: C_24  and  C_26
REMARK                            x       y       z     vdW  Elec       q    Type
REMARK                         _______ _______ _______ _____ _____    ______ ____
ROOT
ATOM      1  C   UNL     1       2.500  -0.640   3.443  0.00  0.00    +0.109 A 
ATOM      2  C   UNL     1       3.114  -1.710   2.816  0.00  0.00    +0.029 A 
ATOM      3  C   UNL     1       4.473  -1.687   2.579  0.00  0.00    +0.017 A 
ATOM      4  C   UNL     1       5.229  -0.582   2.975  0.00  0.00    +0.059 A 
ATOM      5  C   UNL     1       4.603   0.494   3.608  0.00  0.00    +0.017 A 
ATOM      6  C   UNL     1       3.242   0.460   3.833  0.00  0.00    +0.029 A 
ENDROOT
BRANCH   1   7
ATOM      7  S   UNL     1       0.764  -0.678   3.741  0.00  0.00    +0.072 S 
ATOM      8  O   UNL     1       0.519   0.207   4.826  0.00  0.00    -0.150 OA
ATOM      9  O   UNL     1       0.387  -2.047   3.775  0.00  0.00    -0.150 OA
BRANCH   7  10
ATOM     10  N   UNL     1       0.025  -0.016   2.415  0.00  0.00    -0.216 N 
ATOM     11  H   UNL     1      -0.522   0.779   2.511  0.00  0.00    +0.174 HD
BRANCH  10  18
ATOM     12  C   UNL     1       0.153   1.691   0.143  0.00  0.00    +0.046 C 
ATOM     13  C   UNL     1       0.258   0.193   0.022  0.00  0.00    -0.028 A 
ATOM     14  C   UNL     1       0.426  -0.391  -1.218  0.00  0.00    +0.005 A 
ATOM     15  C   UNL     1       0.522  -1.765  -1.331  0.00  0.00    +0.000 A 
ATOM     16  C   UNL     1       0.450  -2.561  -0.202  0.00  0.00    +0.002 A 
ATOM     17  C   UNL     1       0.282  -1.984   1.042  0.00  0.00    +0.025 A 
ATOM     18  C   UNL     1       0.190  -0.603   1.159  0.00  0.00    +0.051 A 
ENDBRANCH  10  18
ENDBRANCH   7  10
ENDBRANCH   1   7
BRANCH   4  19
ATOM     19  C   UNL     1       6.685  -0.551   2.726  0.00  0.00    +0.340 C 
ATOM     20  O   UNL     1       7.227  -1.488   2.175  0.00  0.00    -0.245 OA
BRANCH  19  21
ATOM     21  O   UNL     1       7.411   0.517   3.109  0.00  0.00    -0.450 OA
BRANCH  21  22
ATOM     22  C   UNL     1       8.813   0.479   2.836  0.00  0.00    +0.244 C 
ATOM     23  C   UNL     1       9.081   1.085   1.457  0.00  0.00    +0.061 C 
BRANCH  22  24
ATOM     24  C   UNL     1       9.550   1.273   3.884  0.00  0.00    +0.205 C 
ATOM     25  O   UNL     1       8.942   2.033   4.609  0.00  0.00    -0.288 OA
BRANCH  24  26
ATOM     26  C   UNL     1      10.954   1.131   4.024  0.00  0.00    +0.046 A 
ATOM     27  C   UNL     1      11.782   0.318   3.279  0.00  0.00    +0.095 A 
ATOM     28  N   UNL     1      13.052   0.455   3.705  0.00  0.00    -0.360 N 
ATOM     29  H   UNL     1      13.812  -0.018   3.332  0.00  0.00    +0.165 HD
ATOM     30  C   UNL     1      13.123   1.358   4.747  0.00  0.00    +0.047 A 
ATOM     31  C   UNL     1      11.823   1.827   4.992  0.00  0.00    +0.010 A 
ATOM     32  C   UNL     1      11.596   2.764   5.996  0.00  0.00    +0.011 A 
ATOM     33  C   UNL     1      12.654   3.231   6.746  0.00  0.00    +0.001 A 
ATOM     34  C   UNL     1      13.940   2.771   6.503  0.00  0.00    +0.002 A 
ATOM     35  C   UNL     1      14.177   1.838   5.517  0.00  0.00    +0.026 A 
ENDBRANCH  24  26
ENDBRANCH  22  24
ENDBRANCH  21  22
ENDBRANCH  19  21
ENDBRANCH   4  19
TORSDOF 8
