REMARK  Name = ZINC39557790
REMARK  6 active torsions:
REMARK  status: ('A' for Active; 'I' for Inactive)
REMARK    1  A    between atoms: C_1  and  C_2
REMARK    2  A    between atoms: C_2  and  C_3
REMARK    3  A    between atoms: C_3  and  C_4
REMARK    4  A    between atoms: C_4  and  N_5
REMARK    5  A    between atoms: C_14  and  N_20
REMARK    6  A    between atoms: C_23  and  C_26
REMARK                            x       y       z     vdW  Elec       q    Type
REMARK                         _______ _______ _______ _____ _____    ______ ____
ROOT
ATOM      1  N   UNL     1       1.425  -2.500  -2.470  0.00  0.00    -0.259 N 
ATOM      2  C   UNL     1       0.707  -2.725  -3.618  0.00  0.00    +0.186 C 
ATOM      3  N   UNL     1       1.059  -3.542  -4.556  0.00  0.00    -0.257 NA
ATOM      4  C   UNL     1       2.312  -4.287  -4.419  0.00  0.00    +0.199 C 
ATOM      5  C   UNL     1       3.277  -3.340  -3.706  0.00  0.00    +0.049 C 
ATOM      6  C   UNL     1       4.415  -3.049  -4.284  0.00  0.00    -0.046 C 
ATOM      7  C   UNL     1       5.440  -2.077  -3.694  0.00  0.00    +0.031 C 
ATOM      8  C   UNL     1       5.659  -0.983  -4.748  0.00  0.00    -0.011 C 
ATOM      9  C   UNL     1       6.029  -1.603  -6.093  0.00  0.00    -0.067 C 
ATOM     10  C   UNL     1       4.891  -2.480  -6.625  0.00  0.00    +0.003 C 
ATOM     11  C   UNL     1       4.692  -3.651  -5.660  0.00  0.00    +0.074 C 
ATOM     12  S   UNL     1       3.120  -4.546  -6.040  0.00  0.00    -0.122 S 
ATOM     13  C   UNL     1       2.772  -2.707  -2.445  0.00  0.00    +0.250 C 
ATOM     14  O   UNL     1       3.483  -2.414  -1.503  0.00  0.00    -0.270 OA
ENDROOT
BRANCH   9  15
ATOM     15  N   UNL     1       7.235  -2.426  -5.930  0.00  0.00    +0.382 N 
ATOM     16  C   UNL     1       8.337  -1.586  -5.445  0.00  0.00    -0.078 C 
ATOM     17  C   UNL     1       9.573  -2.453  -5.196  0.00  0.00    -0.008 C 
ATOM     18  C   UNL     1       9.985  -3.133  -6.505  0.00  0.00    +0.052 C 
ATOM     19  C   UNL     1       8.803  -3.947  -7.040  0.00  0.00    -0.008 C 
ATOM     20  C   UNL     1       7.595  -3.024  -7.221  0.00  0.00    -0.078 C 
ATOM     21  H   UNL     1       7.053  -3.158  -5.260  0.00  0.00    -0.081 HD
BRANCH  18  22
ATOM     22  C   UNL     1      11.154  -4.049  -6.250  0.00  0.00    +0.111 A 
ATOM     23  N   UNL     1      12.403  -3.727  -6.418  0.00  0.00    -0.232 NA
ATOM     24  C   UNL     1      13.194  -4.784  -6.098  0.00  0.00    +0.089 A 
ATOM     25  C   UNL     1      14.576  -4.987  -6.094  0.00  0.00    +0.030 A 
ATOM     26  C   UNL     1      15.085  -6.196  -5.710  0.00  0.00    +0.002 A 
ATOM     27  C   UNL     1      14.243  -7.228  -5.322  0.00  0.00    +0.002 A 
ATOM     28  C   UNL     1      12.876  -7.050  -5.318  0.00  0.00    +0.028 A 
ATOM     29  C   UNL     1      12.340  -5.829  -5.705  0.00  0.00    +0.066 A 
ATOM     30  N   UNL     1      11.056  -5.332  -5.807  0.00  0.00    -0.342 N 
ATOM     31  H   UNL     1      10.237  -5.808  -5.602  0.00  0.00    +0.167 HD
ENDBRANCH  18  22
ENDBRANCH   9  15
BRANCH   1  32
ATOM     32  C   UNL     1       0.739  -2.027  -1.265  0.00  0.00    +0.115 C 
BRANCH  32  33
ATOM     33  C   UNL     1       0.718  -0.497  -1.257  0.00  0.00    +0.019 C 
BRANCH  33  35
ATOM     34  C   UNL     1      -0.019   1.526   0.010  0.00  0.00    +0.004 C 
ATOM     35  C   UNL     1       0.002  -0.004   0.002  0.00  0.00    -0.002 C 
ENDBRANCH  33  35
ENDBRANCH  32  33
ENDBRANCH   1  32
TORSDOF 5
