REMARK  Name = ZINC35695390
REMARK  11 active torsions:
REMARK  status: ('A' for Active; 'I' for Inactive)
REMARK    1  A    between atoms: C_1  and  C_2
REMARK    2  A    between atoms: C_6  and  N_8
REMARK    3  A    between atoms: C_10  and  C_30
REMARK    4  A    between atoms: C_14  and  C_16
REMARK    5  A    between atoms: C_16  and  N_17
REMARK    6  A    between atoms: N_17  and  C_18
REMARK    7  A    between atoms: C_18  and  C_19
REMARK    8  A    between atoms: C_19  and  N_20
REMARK    9  A    between atoms: N_20  and  C_21
REMARK   10  A    between atoms: N_20  and  C_22
REMARK   11  A    between atoms: C_23  and  C_25
REMARK                            x       y       z     vdW  Elec       q    Type
REMARK                         _______ _______ _______ _____ _____    ______ ____
ROOT
ATOM      1  N   UNL     1       0.381  -3.174   2.056  0.00  0.00    -0.287 N 
ATOM      2  C   UNL     1       1.378  -3.110   2.998  0.00  0.00    +0.122 A 
ATOM      3  C   UNL     1       1.101  -4.059   3.928  0.00  0.00    +0.091 A 
ATOM      4  N   UNL     1      -0.037  -4.685   3.560  0.00  0.00    -0.214 NA
ATOM      5  C   UNL     1      -0.478  -4.160   2.444  0.00  0.00    +0.207 A 
ATOM      6  N   UNL     1      -1.628  -4.544   1.767  0.00  0.00    -0.254 N 
ATOM      7  C   UNL     1      -2.398  -5.537   2.256  0.00  0.00    +0.237 C 
ATOM      8  O   UNL     1      -2.086  -6.094   3.287  0.00  0.00    -0.274 OA
ATOM      9  H   UNL     1      -1.878  -4.098   0.943  0.00  0.00    +0.158 HD
ENDROOT
BRANCH   1  15
ATOM     10  C   UNL     1       0.368   1.294  -0.001  0.00  0.00    +0.044 C 
ATOM     11  C   UNL     1       0.254  -0.205  -0.113  0.00  0.00    -0.048 A 
ATOM     12  C   UNL     1       0.035  -0.790  -1.347  0.00  0.00    +0.003 A 
ATOM     13  C   UNL     1      -0.071  -2.165  -1.454  0.00  0.00    +0.002 A 
ATOM     14  C   UNL     1       0.044  -2.957  -0.328  0.00  0.00    +0.026 A 
ATOM     15  C   UNL     1       0.265  -2.373   0.911  0.00  0.00    +0.049 A 
ATOM     16  C   UNL     1       0.375  -0.992   1.015  0.00  0.00    +0.029 A 
ENDBRANCH   1  15
BRANCH   3  17
ATOM     17  C   UNL     1       1.907  -4.356   5.137  0.00  0.00    +0.002 A 
ATOM     18  C   UNL     1       3.065  -3.626   5.403  0.00  0.00    +0.011 A 
ATOM     19  C   UNL     1       3.811  -3.907   6.529  0.00  0.00    +0.020 A 
ATOM     20  C   UNL     1       3.413  -4.912   7.393  0.00  0.00    +0.041 A 
ATOM     21  C   UNL     1       2.264  -5.640   7.134  0.00  0.00    +0.020 A 
ATOM     22  C   UNL     1       1.507  -5.363   6.014  0.00  0.00    +0.011 A 
ATOM     23 CL   UNL     1       4.358  -5.261   8.807  0.00  0.00    -0.084 Cl
ENDBRANCH   3  17
BRANCH   7  24
ATOM     24  C   UNL     1      -3.646  -5.953   1.522  0.00  0.00    +0.204 C 
BRANCH  24  25
ATOM     25  N   UNL     1      -4.301  -7.043   2.250  0.00  0.00    -0.288 N 
ATOM     26  C   UNL     1      -3.908  -8.317   2.053  0.00  0.00    +0.282 C 
ATOM     27  O   UNL     1      -4.513  -9.229   2.585  0.00  0.00    -0.267 OA
BRANCH  26  28
ATOM     28  C   UNL     1      -2.751  -8.604   1.199  0.00  0.00    +0.189 A 
ATOM     29  C   UNL     1      -2.315  -9.844   0.828  0.00  0.00    +0.054 A 
ATOM     30  C   UNL     1      -1.188  -9.649   0.015  0.00  0.00    +0.042 A 
ATOM     31  C   UNL     1      -0.988  -8.315  -0.074  0.00  0.00    +0.196 A 
ATOM     32  O   UNL     1      -1.934  -7.689   0.637  0.00  0.00    -0.458 OA
ENDBRANCH  26  28
BRANCH  25  33
ATOM     33  C   UNL     1      -5.382  -6.747   3.193  0.00  0.00    +0.090 C 
BRANCH  33  34
ATOM     34  C   UNL     1      -6.723  -6.777   2.457  0.00  0.00    -0.060 C 
BRANCH  34  35
ATOM     35  N   UNL     1      -7.808  -6.481   3.402  0.00  0.00    +0.377 N 
ATOM     36  C   UNL     1      -9.081  -6.391   2.675  0.00  0.00    -0.097 C 
ATOM     37  C   UNL     1      -7.890  -7.552   4.404  0.00  0.00    -0.097 C 
ATOM     38  H   UNL     1      -7.621  -5.603   3.863  0.00  0.00    -0.083 HD
ENDBRANCH  34  35
ENDBRANCH  33  34
ENDBRANCH  25  33
ENDBRANCH  24  25
ENDBRANCH   7  24
TORSDOF 8
