REMARK  Name = ZINC38597655
REMARK  7 active torsions:
REMARK  status: ('A' for Active; 'I' for Inactive)
REMARK    1  A    between atoms: C_10  and  C_11
REMARK    2  A    between atoms: C_11  and  C_12
REMARK    3  A    between atoms: N_14  and  C_15
REMARK    4  A    between atoms: C_15  and  C_16
REMARK    5  A    between atoms: C_16  and  C_18
REMARK    6  A    between atoms: C_16  and  N_23
REMARK    7  A    between atoms: N_26  and  C_29
REMARK                            x       y       z     vdW  Elec       q    Type
REMARK                         _______ _______ _______ _____ _____    ______ ____
ROOT
ATOM      1  C   UNL     1       7.938   2.370   3.021  0.00  0.00    +0.017 C 
ENDROOT
BRANCH   1   2
ATOM      2  N   UNL     1       9.161   1.870   2.378  0.00  0.00    +0.389 N 
ATOM      3  C   UNL     1      10.181   2.927   2.382  0.00  0.00    -0.059 C 
ATOM      4  C   UNL     1      11.415   2.447   1.611  0.00  0.00    +0.086 C 
ATOM      5  N   UNL     1      11.861   1.171   2.193  0.00  0.00    -0.333 N 
ATOM      6  C   UNL     1      10.862   0.107   2.378  0.00  0.00    +0.086 C 
ATOM      7  C   UNL     1       9.653   0.698   3.112  0.00  0.00    -0.059 C 
ATOM      8  H   UNL     1       8.956   1.608   1.426  0.00  0.00    -0.081 HD
BRANCH   5   9
ATOM      9  C   UNL     1      13.195   0.976   2.560  0.00  0.00    +0.030 A 
ATOM     10  C   UNL     1      13.622  -0.273   2.992  0.00  0.00    +0.026 A 
ATOM     11  C   UNL     1      14.942  -0.464   3.353  0.00  0.00    +0.040 A 
ATOM     12  C   UNL     1      15.838   0.589   3.285  0.00  0.00    +0.124 A 
ATOM     13  C   UNL     1      15.415   1.835   2.855  0.00  0.00    +0.040 A 
ATOM     14  C   UNL     1      14.098   2.029   2.488  0.00  0.00    +0.026 A 
ATOM     15  F   UNL     1      17.128   0.400   3.640  0.00  0.00    -0.205 F 
ENDBRANCH   5   9
ENDBRANCH   1   2
BRANCH   1  16
ATOM     16  C   UNL     1       8.262   2.852   4.411  0.00  0.00    +0.093 A 
ATOM     17  C   UNL     1       7.895   4.033   4.940  0.00  0.00    +0.043 A 
ATOM     18  C   UNL     1       8.408   4.070   6.257  0.00  0.00    +0.041 A 
ATOM     19  C   UNL     1       9.059   2.909   6.454  0.00  0.00    +0.195 A 
ATOM     20  O   UNL     1       8.962   2.173   5.335  0.00  0.00    -0.469 OA
ENDBRANCH   1  16
BRANCH   1  21
ATOM     21  C   UNL     1       6.906   1.243   3.099  0.00  0.00    +0.096 C 
BRANCH  21  24
ATOM     22  C   UNL     1       5.845  -0.346   1.587  0.00  0.00    +0.217 C 
ATOM     23  O   UNL     1       5.346  -0.886   2.551  0.00  0.00    -0.275 OA
ATOM     24  N   UNL     1       6.642   0.728   1.753  0.00  0.00    -0.316 N 
ATOM     25  H   UNL     1       7.041   1.160   0.982  0.00  0.00    +0.149 HD
BRANCH  22  26
ATOM     26  C   UNL     1       5.574  -0.876   0.203  0.00  0.00    +0.131 C 
BRANCH  26  36
ATOM     27  C   UNL     1       0.513  -1.595   0.466  0.00  0.00    +0.001 A 
ATOM     28  C   UNL     1       1.341  -0.478   0.384  0.00  0.00    +0.001 A 
ATOM     29  C   UNL     1       2.695  -0.611   0.326  0.00  0.00    +0.009 A 
ATOM     30  C   UNL     1       3.268  -1.894   0.350  0.00  0.00    -0.014 A 
ATOM     31  C   UNL     1       2.426  -3.031   0.433  0.00  0.00    -0.018 A 
ATOM     32  C   UNL     1       1.033  -2.853   0.491  0.00  0.00    +0.008 A 
ATOM     33  C   UNL     1       2.999  -4.313   0.457  0.00  0.00    +0.008 A 
ATOM     34  C   UNL     1       4.353  -4.447   0.400  0.00  0.00    +0.001 A 
ATOM     35  C   UNL     1       5.181  -3.329   0.318  0.00  0.00    +0.005 A 
ATOM     36  C   UNL     1       4.661  -2.071   0.292  0.00  0.00    -0.031 A 
ENDBRANCH  26  36
ENDBRANCH  22  26
ENDBRANCH  21  24
ENDBRANCH   1  21
TORSDOF 7
