REMARK  Name = ZINC35107188
REMARK  9 active torsions:
REMARK  status: ('A' for Active; 'I' for Inactive)
REMARK    1  A    between atoms: C_1  and  C_2
REMARK    2  A    between atoms: C_2  and  C_3
REMARK    3  A    between atoms: C_3  and  C_4
REMARK    4  A    between atoms: C_7  and  C_37
REMARK    5  A    between atoms: C_9  and  C_31
REMARK    6  A    between atoms: C_11  and  C_23
REMARK    7  A    between atoms: C_23  and  C_25
REMARK    8  A    between atoms: C_37  and  C_38
REMARK    9  A    between atoms: C_37  and  C_39
REMARK                            x       y       z     vdW  Elec       q    Type
REMARK                         _______ _______ _______ _____ _____    ______ ____
ROOT
ATOM      1  C   UNL     1       0.912  -0.155  -2.110  0.00  0.00    +0.217 C 
ATOM      2  O   UNL     1       0.185  -0.299  -1.150  0.00  0.00    -0.276 OA
ATOM      3  N   UNL     1       1.621  -1.201  -2.580  0.00  0.00    -0.279 N 
ATOM      4  C   UNL     1       2.534  -1.173  -3.741  0.00  0.00    +0.088 C 
ATOM      5  C   UNL     1       3.520  -2.344  -3.499  0.00  0.00    +0.053 C 
ATOM      6  C   UNL     1       2.590  -3.409  -2.857  0.00  0.00    +0.106 C 
ATOM      7  C   UNL     1       1.622  -2.554  -2.024  0.00  0.00    +0.151 C 
ATOM      8  C   UNL     1       2.021  -2.551  -0.573  0.00  0.00    +0.007 A 
ATOM      9  C   UNL     1       3.151  -2.135   0.095  0.00  0.00    +0.008 A 
ATOM     10  C   UNL     1       3.228  -2.266   1.470  0.00  0.00    +0.000 A 
ATOM     11  C   UNL     1       2.169  -2.814   2.171  0.00  0.00    +0.002 A 
ATOM     12  C   UNL     1       1.035  -3.231   1.505  0.00  0.00    +0.023 A 
ATOM     13  C   UNL     1       0.949  -3.103   0.121  0.00  0.00    +0.039 A 
ATOM     14  N   UNL     1      -0.075  -3.444  -0.765  0.00  0.00    -0.283 N 
ATOM     15  C   UNL     1       0.239  -3.153  -2.041  0.00  0.00    +0.246 C 
ATOM     16  O   UNL     1      -0.457  -3.339  -3.017  0.00  0.00    -0.273 OA
ATOM     17  H   UNL     1      -0.916  -3.843  -0.492  0.00  0.00    +0.155 HD
ENDROOT
BRANCH   5  18
ATOM     18  C   UNL     1       4.096  -2.842  -4.799  0.00  0.00    -0.042 A 
ATOM     19  C   UNL     1       4.745  -1.965  -5.648  0.00  0.00    +0.004 A 
ATOM     20  C   UNL     1       5.273  -2.422  -6.841  0.00  0.00    +0.000 A 
ATOM     21  C   UNL     1       5.153  -3.756  -7.185  0.00  0.00    +0.000 A 
ATOM     22  C   UNL     1       4.505  -4.632  -6.335  0.00  0.00    +0.000 A 
ATOM     23  C   UNL     1       3.980  -4.176  -5.140  0.00  0.00    +0.004 A 
ENDBRANCH   5  18
BRANCH   4  24
ATOM     24  C   UNL     1       1.752  -1.391  -5.038  0.00  0.00    +0.004 C 
ATOM     25  C   UNL     1       0.606  -0.382  -5.119  0.00  0.00    +0.009 C 
ATOM     26  C   UNL     1       2.686  -1.200  -6.234  0.00  0.00    +0.009 C 
ENDBRANCH   4  24
BRANCH   6  27
ATOM     27  C   UNL     1       1.855  -4.186  -3.918  0.00  0.00    +0.170 C 
ATOM     28  O   UNL     1       1.941  -3.854  -5.081  0.00  0.00    -0.292 OA
BRANCH  27  29
ATOM     29  C   UNL     1       1.031  -5.346  -3.543  0.00  0.00    +0.018 A 
ATOM     30  C   UNL     1       0.924  -5.729  -2.202  0.00  0.00    +0.011 A 
ATOM     31  C   UNL     1       0.151  -6.817  -1.859  0.00  0.00    +0.001 A 
ATOM     32  C   UNL     1      -0.519  -7.531  -2.838  0.00  0.00    +0.000 A 
ATOM     33  C   UNL     1      -0.418  -7.159  -4.167  0.00  0.00    +0.001 A 
ATOM     34  C   UNL     1       0.347  -6.069  -4.526  0.00  0.00    +0.011 A 
ENDBRANCH  27  29
ENDBRANCH   6  27
BRANCH   1  35
ATOM     35  C   UNL     1       1.024   1.192  -2.776  0.00  0.00    +0.096 C 
BRANCH  35  37
ATOM     36  C   UNL     1       0.290   3.578  -2.687  0.00  0.00    +0.004 C 
ATOM     37  C   UNL     1       0.177   2.211  -2.010  0.00  0.00    +0.006 C 
ENDBRANCH  35  37
ENDBRANCH   1  35
TORSDOF 6
