REMARK  Name = ZINC13499273
REMARK  13 active torsions:
REMARK  status: ('A' for Active; 'I' for Inactive)
REMARK    1  A    between atoms: C_1  and  C_2
REMARK    2  A    between atoms: C_2  and  C_3
REMARK    3  A    between atoms: C_3  and  C_4
REMARK    4  A    between atoms: C_4  and  C_6
REMARK    5  A    between atoms: C_4  and  N_68
REMARK    6  A    between atoms: N_10  and  C_11
REMARK    7  A    between atoms: C_11  and  C_12
REMARK    8  A    between atoms: C_11  and  C_13
REMARK    9  A    between atoms: C_11  and  C_14
REMARK   10  A    between atoms: C_15  and  C_16
REMARK   11  A    between atoms: C_15  and  N_68
REMARK   12  A    between atoms: C_21  and  C_28
REMARK   13  A    between atoms: C_29  and  N_68
REMARK                            x       y       z     vdW  Elec       q    Type
REMARK                         _______ _______ _______ _____ _____    ______ ____
ROOT
ATOM      1  N   UNL     1      -2.111   0.738   1.439  0.00  0.00    +0.391 N 
ATOM      2  H   UNL     1      -2.398  -0.229   1.630  0.00  0.00    -0.080 HD
ENDROOT
BRANCH   1   3
ATOM      3  C   UNL     1      -2.378   1.564   2.635  0.00  0.00    -0.067 C 
ATOM      4  C   UNL     1      -1.618   0.979   3.844  0.00  0.00    -0.015 C 
ATOM      5  C   UNL     1      -2.596   1.164   5.032  0.00  0.00    -0.002 C 
ATOM      6  C   UNL     1      -3.975   0.873   4.389  0.00  0.00    -0.002 C 
ATOM      7  C   UNL     1      -3.875   1.497   2.982  0.00  0.00    -0.015 C 
ENDBRANCH   1   3
BRANCH   1   8
ATOM      8  C   UNL     1      -0.666   0.757   1.125  0.00  0.00    +0.003 C 
BRANCH   8   9
ATOM      9  C   UNL     1      -0.067   2.092   1.483  0.00  0.00    +0.139 A 
ATOM     10  N   UNL     1      -0.077   2.663   2.663  0.00  0.00    -0.115 NA
ATOM     11  N   UNL     1       0.534   3.793   2.563  0.00  0.00    -0.023 NA
ATOM     12  N   UNL     1       0.934   3.958   1.350  0.00  0.00    -0.043 NA
ATOM     13  N   UNL     1       0.586   2.928   0.654  0.00  0.00    -0.226 N 
BRANCH  13  14
ATOM     14  C   UNL     1       0.851   2.711  -0.770  0.00  0.00    +0.059 C 
ATOM     15  C   UNL     1      -0.476   2.604  -1.524  0.00  0.00    +0.036 C 
ATOM     16  C   UNL     1       1.659   3.886  -1.324  0.00  0.00    +0.036 C 
ATOM     17  C   UNL     1       1.645   1.415  -0.950  0.00  0.00    +0.036 C 
ENDBRANCH  13  14
ENDBRANCH   8   9
BRANCH   8  18
ATOM     18  C   UNL     1       0.023  -0.344   1.934  0.00  0.00    -0.008 C 
BRANCH  18  20
ATOM     19  C   UNL     1       0.095  -2.803   2.374  0.00  0.00    +0.004 C 
ATOM     20  C   UNL     1      -0.670  -1.682   1.667  0.00  0.00    -0.005 C 
ENDBRANCH  18  20
ENDBRANCH   8  18
ENDBRANCH   1   8
BRANCH   1  21
ATOM     21  C   UNL     1      -2.884   1.251   0.289  0.00  0.00    -0.036 C 
BRANCH  21  22
ATOM     22  C   UNL     1      -4.263   0.644   0.329  0.00  0.00    +0.001 A 
ATOM     23  C   UNL     1      -5.347   1.440   0.505  0.00  0.00    +0.017 A 
ATOM     24  C   UNL     1      -6.673   0.820   0.533  0.00  0.00    -0.001 A 
ATOM     25  C   UNL     1      -7.828   1.589   0.707  0.00  0.00    +0.010 A 
ATOM     26  C   UNL     1      -9.050   0.979   0.735  0.00  0.00    +0.004 A 
ATOM     27  C   UNL     1      -9.156  -0.398   0.593  0.00  0.00    -0.048 A 
ATOM     28  C   UNL     1      -8.031  -1.175   0.419  0.00  0.00    +0.029 A 
ATOM     29  C   UNL     1      -6.776  -0.577   0.388  0.00  0.00    +0.049 A 
ATOM     30  N   UNL     1      -5.635  -1.331   0.218  0.00  0.00    -0.322 N 
ATOM     31  H   UNL     1      -5.708  -2.293   0.118  0.00  0.00    +0.169 HD
ATOM     32  C   UNL     1      -4.421  -0.752   0.188  0.00  0.00    +0.251 A 
ATOM     33  O   UNL     1      -3.434  -1.449   0.036  0.00  0.00    -0.268 OA
ATOM     34  C   UNL     1     -10.515  -1.048   0.627  0.00  0.00    +0.044 C 
ENDBRANCH  21  22
ENDBRANCH   1  21
TORSDOF 8
