REMARK  Name = ZINC13030926
REMARK  14 active torsions:
REMARK  status: ('A' for Active; 'I' for Inactive)
REMARK    1  A    between atoms: C_1  and  C_2
REMARK    2  A    between atoms: C_2  and  O_3
REMARK    3  A    between atoms: O_3  and  C_4
REMARK    4  A    between atoms: C_9  and  N_10
REMARK    5  A    between atoms: N_10  and  C_11
REMARK    6  A    between atoms: C_11  and  C_13
REMARK    7  A    between atoms: C_11  and  C_19
REMARK    8  A    between atoms: N_21  and  C_22
REMARK    9  A    between atoms: C_22  and  C_23
REMARK   10  A    between atoms: C_23  and  C_24
REMARK   11  A    between atoms: C_24  and  C_25
REMARK   12  A    between atoms: C_24  and  C_26
REMARK   13  A    between atoms: C_27  and  C_29
REMARK   14  A    between atoms: C_29  and  N_30
REMARK                            x       y       z     vdW  Elec       q    Type
REMARK                         _______ _______ _______ _____ _____    ______ ____
ROOT
ATOM      1  N   UNL     1      -5.498   3.429  -1.646  0.00  0.00    -0.250 N 
ATOM      2  C   UNL     1      -4.197   3.674  -1.393  0.00  0.00    +0.242 C 
ATOM      3  O   UNL     1      -3.442   3.941  -2.304  0.00  0.00    -0.273 OA
ENDROOT
BRANCH   1   9
ATOM      4  C   UNL     1      -6.580   1.794  -0.225  0.00  0.00    +0.142 A 
ATOM      5  C   UNL     1      -7.441   1.496   0.819  0.00  0.00    +0.047 A 
ATOM      6  C   UNL     1      -8.096   2.514   1.486  0.00  0.00    +0.004 A 
ATOM      7  C   UNL     1      -7.893   3.831   1.118  0.00  0.00    +0.002 A 
ATOM      8  C   UNL     1      -7.032   4.137   0.081  0.00  0.00    +0.027 A 
ATOM      9  C   UNL     1      -6.370   3.121  -0.594  0.00  0.00    +0.079 A 
BRANCH   4  10
ATOM     10  O   UNL     1      -5.939   0.794  -0.886  0.00  0.00    -0.490 OA
BRANCH  10  12
ATOM     11  C   UNL     1      -5.397  -1.523  -1.309  0.00  0.00    +0.048 C 
ATOM     12  C   UNL     1      -6.202  -0.543  -0.454  0.00  0.00    +0.226 C 
ENDBRANCH  10  12
ENDBRANCH   4  10
ENDBRANCH   1   9
BRANCH   1  13
ATOM     13  C   UNL     1      -6.000   3.483  -3.021  0.00  0.00    +0.199 C 
BRANCH  13  14
ATOM     14  C   UNL     1      -6.710   2.195  -3.348  0.00  0.00    +0.000 A 
ATOM     15  C   UNL     1      -7.887   1.857  -2.696  0.00  0.00    +0.009 A 
ATOM     16  C   UNL     1      -8.506   0.662  -3.029  0.00  0.00    +0.020 A 
ATOM     17  C   UNL     1      -7.934  -0.147  -3.993  0.00  0.00    +0.111 A 
ATOM     18  N   UNL     1      -6.814   0.206  -4.592  0.00  0.00    -0.263 NA
ATOM     19  C   UNL     1      -6.201   1.338  -4.305  0.00  0.00    +0.116 A 
ENDBRANCH  13  14
BRANCH  13  20
ATOM     20  C   UNL     1      -6.960   4.636  -3.160  0.00  0.00    +0.238 C 
ATOM     21  O   UNL     1      -7.202   5.342  -2.205  0.00  0.00    -0.273 OA
ATOM     22  N   UNL     1      -7.551   4.881  -4.347  0.00  0.00    -0.313 N 
ATOM     23  H   UNL     1      -7.357   4.316  -5.111  0.00  0.00    +0.149 HD
BRANCH  22  24
ATOM     24  C   UNL     1      -8.485   6.002  -4.482  0.00  0.00    +0.104 C 
BRANCH  24  25
ATOM     25  C   UNL     1      -9.009   6.059  -5.918  0.00  0.00    +0.022 C 
BRANCH  25  26
ATOM     26  C   UNL     1      -9.984   7.229  -6.060  0.00  0.00    -0.016 C 
ATOM     27  C   UNL     1      -9.234   8.546  -5.850  0.00  0.00    +0.007 C 
ATOM     28  C   UNL     1     -10.602   7.212  -7.459  0.00  0.00    +0.007 C 
ENDBRANCH  25  26
ENDBRANCH  24  25
ENDBRANCH  22  24
ENDBRANCH  13  20
ENDBRANCH   1  13
BRANCH   2  29
ATOM     29  C   UNL     1      -3.681   3.619   0.022  0.00  0.00    +0.242 C 
BRANCH  29  30
ATOM     30  N   UNL     1      -2.248   3.921   0.031  0.00  0.00    -0.235 N 
ATOM     31  C   UNL     1      -1.216   3.020  -0.089  0.00  0.00    +0.090 A 
ATOM     32  C   UNL     1      -1.152   1.640  -0.252  0.00  0.00    +0.029 A 
ATOM     33  C   UNL     1       0.064   1.022  -0.339  0.00  0.00    +0.002 A 
ATOM     34  C   UNL     1       1.238   1.761  -0.275  0.00  0.00    +0.002 A 
ATOM     35  C   UNL     1       1.202   3.116  -0.121  0.00  0.00    +0.032 A 
ATOM     36  C   UNL     1      -0.031   3.774  -0.025  0.00  0.00    +0.113 A 
ATOM     37  N   UNL     1      -0.377   5.067   0.128  0.00  0.00    -0.129 NA
ATOM     38  N   UNL     1      -1.657   5.186   0.164  0.00  0.00    -0.064 NA
ENDBRANCH  29  30
ENDBRANCH   2  29
TORSDOF 11
