REMARK  Name = ZINC35525947
REMARK  6 active torsions:
REMARK  status: ('A' for Active; 'I' for Inactive)
REMARK    1  A    between atoms: C_1  and  C_2
REMARK    2  A    between atoms: C_3  and  C_37
REMARK    3  A    between atoms: C_7  and  N_18
REMARK    4  A    between atoms: C_9  and  C_11
REMARK    5  A    between atoms: C_11  and  C_12
REMARK    6  A    between atoms: N_26  and  C_27
REMARK                            x       y       z     vdW  Elec       q    Type
REMARK                         _______ _______ _______ _____ _____    ______ ____
ROOT
ATOM      1  N   UNL     1       0.029   1.039   3.099  0.00  0.00    -0.312 N 
ATOM      2  C   UNL     1      -0.213   2.023   2.034  0.00  0.00    +0.125 C 
ATOM      3  C   UNL     1      -1.396   2.908   2.444  0.00  0.00    +0.128 C 
ATOM      4  N   UNL     1      -1.171   3.389   3.815  0.00  0.00    -0.283 N 
ATOM      5  C   UNL     1      -0.929   2.405   4.880  0.00  0.00    +0.128 C 
ATOM      6  C   UNL     1       0.249   1.519   4.471  0.00  0.00    +0.125 C 
ATOM      7  C   UNL     1      -1.185   4.708   4.090  0.00  0.00    +0.303 C 
ATOM      8  O   UNL     1      -1.478   5.507   3.222  0.00  0.00    -0.253 OA
ATOM      9  N   UNL     1      -0.873   5.141   5.328  0.00  0.00    -0.294 N 
ATOM     10  H   UNL     1      -0.710   4.502   6.039  0.00  0.00    +0.151 HD
ENDROOT
BRANCH   1  17
ATOM     11  C   UNL     1       2.890   0.989   2.851  0.00  0.00    +0.045 C 
ATOM     12  C   UNL     1       2.630  -0.468   2.570  0.00  0.00    -0.028 A 
ATOM     13  C   UNL     1       3.649  -1.303   2.318  0.00  0.00    -0.008 A 
ATOM     14  S   UNL     1       2.846  -2.873   2.056  0.00  0.00    -0.074 S 
ATOM     15  C   UNL     1       1.164  -2.366   2.292  0.00  0.00    +0.114 A 
ATOM     16  C   UNL     1       1.273  -0.987   2.575  0.00  0.00    +0.051 A 
ATOM     17  C   UNL     1       0.043  -0.315   2.816  0.00  0.00    +0.133 A 
ATOM     18  N   UNL     1      -1.087  -1.001   2.767  0.00  0.00    -0.216 NA
ATOM     19  C   UNL     1      -1.114  -2.294   2.501  0.00  0.00    +0.137 A 
ATOM     20  N   UNL     1      -0.007  -2.970   2.259  0.00  0.00    -0.224 NA
ATOM     21  C   UNL     1       5.122  -0.988   2.268  0.00  0.00    +0.052 C 
BRANCH  19  22
ATOM     22  C   UNL     1      -2.439  -3.011   2.462  0.00  0.00    +0.111 C 
BRANCH  22  23
ATOM     23  C   UNL     1      -2.995  -2.962   1.062  0.00  0.00    -0.040 A 
ATOM     24  C   UNL     1      -3.808  -1.912   0.677  0.00  0.00    +0.004 A 
ATOM     25  C   UNL     1      -4.318  -1.867  -0.607  0.00  0.00    +0.000 A 
ATOM     26  C   UNL     1      -4.015  -2.873  -1.506  0.00  0.00    +0.000 A 
ATOM     27  C   UNL     1      -3.202  -3.922  -1.122  0.00  0.00    +0.000 A 
ATOM     28  C   UNL     1      -2.688  -3.965   0.161  0.00  0.00    +0.004 A 
ENDBRANCH  22  23
ENDBRANCH  19  22
ENDBRANCH   1  17
BRANCH   9  29
ATOM     29  C   UNL     1      -0.781   6.578   5.599  0.00  0.00    +0.037 C 
ATOM     30  C   UNL     1       0.297   7.197   4.709  0.00  0.00    +0.029 C 
ATOM     31  C   UNL     1       0.393   8.698   4.992  0.00  0.00    -0.008 C 
ATOM     32  C   UNL     1       0.758   8.917   6.462  0.00  0.00    +0.007 C 
ATOM     33  C   UNL     1      -0.321   8.297   7.353  0.00  0.00    -0.008 C 
ATOM     34  C   UNL     1      -0.417   6.797   7.069  0.00  0.00    +0.029 C 
ATOM     35  C   UNL     1      -1.668   8.959   7.058  0.00  0.00    +0.007 C 
ATOM     36  C   UNL     1      -2.033   8.740   5.588  0.00  0.00    -0.008 C 
ATOM     37  C   UNL     1      -0.954   9.360   4.697  0.00  0.00    +0.007 C 
ATOM     38  C   UNL     1      -2.129   7.240   5.304  0.00  0.00    +0.029 C 
ENDBRANCH   9  29
TORSDOF 4
