REMARK  Name = ZINC59384386
REMARK  3 active torsions:
REMARK  status: ('A' for Active; 'I' for Inactive)
REMARK    1  A    between atoms: C_4  and  C_7
REMARK    2  A    between atoms: C_7  and  C_9
REMARK    3  A    between atoms: C_7  and  N_18
REMARK                            x       y       z     vdW  Elec       q    Type
REMARK                         _______ _______ _______ _____ _____    ______ ____
ROOT
ATOM      1  C   UNL     1       3.711  -0.707  -0.038  0.00  0.00    +0.168 C 
ENDROOT
BRANCH   1   2
ATOM      2  N   UNL     1       3.611  -1.865  -0.930  0.00  0.00    -0.315 N 
ATOM      3  C   UNL     1       3.830  -1.712  -2.290  0.00  0.00    +0.126 A 
ATOM      4  C   UNL     1       4.152  -0.461  -2.819  0.00  0.00    +0.083 A 
ATOM      5  C   UNL     1       4.363  -0.355  -4.181  0.00  0.00    +0.136 A 
ATOM      6  N   UNL     1       4.254  -1.438  -4.940  0.00  0.00    -0.203 NA
ATOM      7  C   UNL     1       3.947  -2.612  -4.409  0.00  0.00    +0.216 A 
ATOM      8  N   UNL     1       3.743  -2.756  -3.108  0.00  0.00    -0.200 NA
ATOM      9  N   UNL     1       3.841  -3.719  -5.234  0.00  0.00    -0.327 N 
ATOM     10 CL   UNL     1       4.765   1.177  -4.892  0.00  0.00    -0.062 Cl
ATOM     11  H   UNL     1       3.392  -2.738  -0.569  0.00  0.00    +0.148 HD
ATOM     12  H   UNL     1       3.992  -3.628  -6.188  0.00  0.00    +0.145 HD
ATOM     13  H   UNL     1       3.617  -4.584  -4.859  0.00  0.00    +0.145 HD
ENDBRANCH   1   2
BRANCH   1  14
ATOM     14  C   UNL     1       4.044  -1.175   1.356  0.00  0.00    +0.131 A 
ATOM     15  C   UNL     1       4.893  -0.558   2.189  0.00  0.00    +0.055 A 
ATOM     16  C   UNL     1       4.907  -1.356   3.422  0.00  0.00    +0.020 A 
ATOM     17  C   UNL     1       5.572  -1.252   4.643  0.00  0.00    +0.011 A 
ATOM     18  C   UNL     1       5.358  -2.191   5.613  0.00  0.00    +0.001 A 
ATOM     19  C   UNL     1       4.485  -3.246   5.390  0.00  0.00    +0.004 A 
ATOM     20  C   UNL     1       3.819  -3.365   4.189  0.00  0.00    +0.047 A 
ATOM     21  C   UNL     1       4.022  -2.422   3.190  0.00  0.00    +0.135 A 
ATOM     22  O   UNL     1       3.527  -2.267   1.945  0.00  0.00    -0.457 OA
ENDBRANCH   1  14
BRANCH   1  26
ATOM     23  C   UNL     1      -0.017   1.378   0.010  0.00  0.00    +0.000 A 
ATOM     24  C   UNL     1       1.171   2.086   0.002  0.00  0.00    +0.000 A 
ATOM     25  C   UNL     1       2.377   1.411  -0.013  0.00  0.00    +0.006 A 
ATOM     26  C   UNL     1       2.396   0.029  -0.020  0.00  0.00    -0.020 A 
ATOM     27  C   UNL     1       1.208  -0.679  -0.012  0.00  0.00    +0.006 A 
ATOM     28  C   UNL     1       0.002  -0.004   0.002  0.00  0.00    +0.000 A 
ENDBRANCH   1  26
TORSDOF 3
