REMARK  Name = ZINC24498792
REMARK  4 active torsions:
REMARK  status: ('A' for Active; 'I' for Inactive)
REMARK    1  A    between atoms: C_8  and  N_13
REMARK    2  A    between atoms: C_14  and  C_16
REMARK    3  A    between atoms: C_16  and  N_17
REMARK    4  A    between atoms: C_19  and  C_24
REMARK                            x       y       z     vdW  Elec       q    Type
REMARK                         _______ _______ _______ _____ _____    ______ ____
ROOT
ATOM      1  N   UNL     1       0.002  -0.004   0.002  0.00  0.00    -0.307 N 
ATOM      2  C   UNL     1       0.102  -0.670  -1.165  0.00  0.00    +0.233 C 
ATOM      3  O   UNL     1       0.175  -0.057  -2.209  0.00  0.00    -0.274 OA
ATOM      4  H   UNL     1      -0.064  -0.560   0.949  0.00  0.00    +0.149 HD
ENDROOT
BRANCH   1  12
ATOM      5  C   UNL     1       4.070   2.740  -0.170  0.00  0.00    +0.039 A 
ATOM      6  C   UNL     1       3.170   3.488   0.557  0.00  0.00    +0.018 A 
ATOM      7  C   UNL     1       1.834   3.098   0.651  0.00  0.00    +0.013 A 
ATOM      8  C   UNL     1       1.397   1.959  -0.001  0.00  0.00    -0.011 A 
ATOM      9  C   UNL     1       2.317   1.208  -0.728  0.00  0.00    +0.045 A 
ATOM     10  C   UNL     1       3.640   1.591  -0.812  0.00  0.00    +0.124 A 
ATOM     11  F   UNL     1       4.515   0.846  -1.522  0.00  0.00    -0.205 F 
ATOM     12  C   UNL     1      -0.018   1.461   0.010  0.00  0.00    +0.105 C 
ATOM     13  C   UNL     1      -0.821   1.929   1.211  0.00  0.00    +0.038 C 
ATOM     14  C   UNL     1      -0.898   3.462   1.196  0.00  0.00    +0.076 C 
ATOM     15  S   UNL     1       0.751   4.086   1.634  0.00  0.00    -0.125 S 
ENDBRANCH   1  12
BRANCH   2  16
ATOM     16  C   UNL     1       0.122  -2.177  -1.174  0.00  0.00    +0.220 C 
BRANCH  16  17
ATOM     17  N   UNL     1       0.236  -2.656  -2.553  0.00  0.00    -0.306 N 
ATOM     18  C   UNL     1       1.465  -2.860  -3.094  0.00  0.00    +0.102 A 
ATOM     19  C   UNL     1       1.595  -3.303  -4.366  0.00  0.00    +0.071 A 
ATOM     20  C   UNL     1       0.454  -3.555  -5.140  0.00  0.00    +0.019 A 
ATOM     21  C   UNL     1      -0.780  -3.349  -4.596  0.00  0.00    +0.071 A 
ATOM     22  C   UNL     1      -0.879  -2.895  -3.269  0.00  0.00    +0.252 A 
ATOM     23  O   UNL     1      -1.977  -2.712  -2.768  0.00  0.00    -0.268 OA
BRANCH  19  24
ATOM     24  C   UNL     1       2.967  -3.525  -4.950  0.00  0.00    +0.419 C 
ATOM     25  F   UNL     1       3.326  -4.868  -4.800  0.00  0.00    -0.166 F 
ATOM     26  F   UNL     1       2.953  -3.195  -6.310  0.00  0.00    -0.166 F 
ATOM     27  F   UNL     1       3.894  -2.716  -4.284  0.00  0.00    -0.166 F 
ENDBRANCH  19  24
ENDBRANCH  16  17
ENDBRANCH   2  16
TORSDOF 4
