REMARK  Name = ZINC41098409
REMARK  11 active torsions:
REMARK  status: ('A' for Active; 'I' for Inactive)
REMARK    1  A    between atoms: C_1  and  C_2
REMARK    2  A    between atoms: C_2  and  C_3
REMARK    3  A    between atoms: C_3  and  N_4
REMARK    4  A    between atoms: N_4  and  C_5
REMARK    5  A    between atoms: C_5  and  C_6
REMARK    6  A    between atoms: C_9  and  C_11
REMARK    7  A    between atoms: C_11  and  N_12
REMARK    8  A    between atoms: C_18  and  C_21
REMARK    9  A    between atoms: C_21  and  C_22
REMARK   10  A    between atoms: C_21  and  C_23
REMARK   11  A    between atoms: C_21  and  C_24
REMARK                            x       y       z     vdW  Elec       q    Type
REMARK                         _______ _______ _______ _____ _____    ______ ____
ROOT
ATOM      1  N   UNL     1      -1.402  -4.654  -2.558  0.00  0.00    -0.215 N 
ATOM      2  C   UNL     1      -2.521  -4.913  -3.265  0.00  0.00    +0.247 C 
ATOM      3  O   UNL     1      -3.668  -4.797  -2.892  0.00  0.00    -0.273 OA
ATOM      4  C   UNL     1      -2.042  -5.378  -4.622  0.00  0.00    +0.113 C 
ATOM      5  C   UNL     1      -2.509  -6.804  -4.890  0.00  0.00    +0.035 C 
ATOM      6  C   UNL     1      -1.989  -7.266  -6.254  0.00  0.00    +0.006 C 
ATOM      7  C   UNL     1      -2.513  -6.327  -7.342  0.00  0.00    -0.005 C 
ATOM      8  C   UNL     1      -2.017  -4.905  -7.073  0.00  0.00    +0.006 C 
ATOM      9  C   UNL     1      -2.537  -4.434  -5.712  0.00  0.00    +0.035 C 
ATOM     10  N   UNL     1      -0.579  -5.325  -4.521  0.00  0.00    -0.285 N 
ATOM     11  C   UNL     1      -0.298  -4.885  -3.279  0.00  0.00    +0.310 C 
ATOM     12  O   UNL     1       0.831  -4.720  -2.860  0.00  0.00    -0.252 OA
ATOM     13  H   UNL     1       0.060  -5.558  -5.213  0.00  0.00    +0.151 HD
ENDROOT
BRANCH   7  14
ATOM     14  C   UNL     1      -2.003  -6.795  -8.707  0.00  0.00    -0.035 C 
ATOM     15  C   UNL     1      -2.499  -8.216  -8.977  0.00  0.00    +0.011 C 
ATOM     16  C   UNL     1      -2.527  -5.856  -9.796  0.00  0.00    +0.011 C 
ATOM     17  C   UNL     1      -0.473  -6.779  -8.713  0.00  0.00    +0.011 C 
ENDBRANCH   7  14
BRANCH   1  18
ATOM     18  C   UNL     1      -1.395  -4.173  -1.174  0.00  0.00    +0.213 C 
BRANCH  18  20
ATOM     19  N   UNL     1      -1.413  -1.998   0.005  0.00  0.00    -0.300 N 
ATOM     20  C   UNL     1      -1.415  -2.666  -1.166  0.00  0.00    +0.234 C 
ATOM     21  O   UNL     1      -1.434  -2.054  -2.213  0.00  0.00    -0.274 OA
BRANCH  19  22
ATOM     22  C   UNL     1      -1.433  -0.534   0.013  0.00  0.00    +0.107 C 
BRANCH  22  24
ATOM     23  C   UNL     1      -0.019   1.526   0.010  0.00  0.00    +0.005 C 
ATOM     24  C   UNL     1       0.002  -0.004   0.002  0.00  0.00    +0.016 C 
ENDBRANCH  22  24
ENDBRANCH  19  22
BRANCH  19  25
ATOM     25  C   UNL     1      -1.391  -2.738   1.269  0.00  0.00    +0.111 C 
BRANCH  25  26
ATOM     26  C   UNL     1      -2.826  -3.015   1.723  0.00  0.00    +0.006 C 
ATOM     27  C   UNL     1      -3.287  -2.377   3.035  0.00  0.00    +0.005 C 
ATOM     28  C   UNL     1      -3.018  -3.882   2.969  0.00  0.00    +0.005 C 
ENDBRANCH  25  26
ENDBRANCH  19  25
ENDBRANCH  18  20
ENDBRANCH   1  18
TORSDOF 7
