REMARK  Name = ZINC44709858
REMARK  9 active torsions:
REMARK  status: ('A' for Active; 'I' for Inactive)
REMARK    1  A    between atoms: C_1  and  C_2
REMARK    2  A    between atoms: C_3  and  C_17
REMARK    3  A    between atoms: N_5  and  C_7
REMARK    4  A    between atoms: C_10  and  C_13
REMARK    5  A    between atoms: C_18  and  C_19
REMARK    6  A    between atoms: C_20  and  C_21
REMARK    7  A    between atoms: C_23  and  C_37
REMARK    8  A    between atoms: N_25  and  C_28
REMARK    9  A    between atoms: C_31  and  C_34
REMARK                            x       y       z     vdW  Elec       q    Type
REMARK                         _______ _______ _______ _____ _____    ______ ____
ROOT
ATOM      1  C   UNL     1       0.902  -0.479  -4.717  0.00  0.00    +0.000 C 
ATOM      2  C   UNL     1       1.828  -0.990  -5.620  0.00  0.00    +0.001 C 
ENDROOT
BRANCH   2   3
ATOM      3  C   UNL     1       1.816  -0.568  -6.934  0.00  0.00    +0.015 C 
ATOM      4  C   UNL     1       2.754  -1.086  -7.850  0.00  0.00    +0.061 C 
ATOM      5  C   UNL     1       2.873  -0.749  -9.224  0.00  0.00    +0.069 C 
ATOM      6  N   UNL     1       3.855  -1.437  -9.731  0.00  0.00    -0.177 NA
ATOM      7  N   UNL     1       4.422  -2.244  -8.740  0.00  0.00    -0.156 N 
ATOM      8  C   UNL     1       3.758  -2.032  -7.578  0.00  0.00    +0.272 C 
ATOM      9  O   UNL     1       4.007  -2.615  -6.398  0.00  0.00    -0.268 OA
ATOM     10  C   UNL     1       2.008   0.235  -9.969  0.00  0.00    +0.068 C 
BRANCH   7  11
ATOM     11  C   UNL     1       5.497  -3.117  -8.916  0.00  0.00    +0.060 A 
ATOM     12  C   UNL     1       5.962  -3.871  -7.843  0.00  0.00    +0.026 A 
ATOM     13  C   UNL     1       7.021  -4.734  -8.013  0.00  0.00    +0.017 A 
ATOM     14  C   UNL     1       7.630  -4.852  -9.267  0.00  0.00    +0.063 A 
ATOM     15  C   UNL     1       7.159  -4.092 -10.343  0.00  0.00    +0.017 A 
ATOM     16  C   UNL     1       6.097  -3.236 -10.166  0.00  0.00    +0.026 A 
BRANCH  14  17
ATOM     17  C   UNL     1       8.764  -5.773  -9.453  0.00  0.00    +0.387 C 
ATOM     18  O   UNL     1       9.174  -6.436  -8.511  0.00  0.00    -0.241 OA
ATOM     19  O   UNL     1       9.295  -5.875 -10.550  0.00  0.00    -0.241 OA
ENDBRANCH  14  17
ENDBRANCH   7  11
ENDBRANCH   2   3
BRANCH   1  21
ATOM     20  C   UNL     1      -0.004  -0.397  -2.496  0.00  0.00    +0.015 C 
ATOM     21  C   UNL     1       0.914  -0.905  -3.392  0.00  0.00    +0.001 C 
BRANCH  20  24
ATOM     22  C   UNL     1      -0.018   1.503   0.010  0.00  0.00    +0.068 C 
ATOM     23  C   UNL     1       0.002  -0.004   0.002  0.00  0.00    +0.071 A 
ATOM     24  C   UNL     1       0.008  -0.829  -1.153  0.00  0.00    +0.064 A 
ATOM     25  C   UNL     1       0.028  -2.159  -0.700  0.00  0.00    +0.281 A 
ATOM     26  N   UNL     1       0.034  -2.112   0.654  0.00  0.00    -0.196 N 
ATOM     27  N   UNL     1       0.023  -0.772   1.053  0.00  0.00    -0.168 NA
ATOM     28  O   UNL     1       0.040  -3.262  -1.460  0.00  0.00    -0.265 OA
BRANCH  26  29
ATOM     29  C   UNL     1       0.052  -3.216   1.508  0.00  0.00    +0.069 A 
ATOM     30  C   UNL     1      -0.621  -4.381   1.151  0.00  0.00    +0.029 A 
ATOM     31  C   UNL     1      -0.605  -5.472   1.990  0.00  0.00    +0.017 A 
ATOM     32  C   UNL     1       0.090  -5.409   3.203  0.00  0.00    +0.063 A 
ATOM     33  C   UNL     1       0.765  -4.237   3.558  0.00  0.00    +0.017 A 
ATOM     34  C   UNL     1       0.749  -3.152   2.711  0.00  0.00    +0.029 A 
BRANCH  32  35
ATOM     35  C   UNL     1       0.109  -6.574   4.103  0.00  0.00    +0.387 C 
ATOM     36  O   UNL     1      -0.483  -7.598   3.791  0.00  0.00    -0.241 OA
ATOM     37  O   UNL     1       0.717  -6.518   5.163  0.00  0.00    -0.241 OA
ENDBRANCH  32  35
ENDBRANCH  26  29
ENDBRANCH  20  24
ENDBRANCH   1  21
TORSDOF 7
