REMARK  Name = ZINC25536770
REMARK  7 active torsions:
REMARK  status: ('A' for Active; 'I' for Inactive)
REMARK    1  A    between atoms: C_1  and  C_2
REMARK    2  A    between atoms: C_2  and  C_3
REMARK    3  A    between atoms: C_2  and  C_4
REMARK    4  A    between atoms: C_2  and  C_5
REMARK    5  A    between atoms: C_12  and  C_14
REMARK    6  A    between atoms: N_16  and  N_17
REMARK    7  A    between atoms: C_18  and  C_20
REMARK                            x       y       z     vdW  Elec       q    Type
REMARK                         _______ _______ _______ _____ _____    ______ ____
ROOT
ATOM      1  N   UNL     1       6.195   8.600   1.743  0.00  0.00    -0.234 N 
ATOM      2  C   UNL     1       5.268   8.223   0.840  0.00  0.00    +0.232 C 
ATOM      3  O   UNL     1       5.021   8.936  -0.110  0.00  0.00    -0.274 OA
ATOM      4  H   UNL     1       6.419   7.953   2.604  0.00  0.00    +0.173 HD
ENDROOT
BRANCH   2   5
ATOM      5  C   UNL     1       4.539   6.915   1.010  0.00  0.00    +0.079 C 
ATOM      6  C   UNL     1       3.548   6.728  -0.142  0.00  0.00    +0.032 C 
ATOM      7  C   UNL     1       2.853   5.372   0.004  0.00  0.00    +0.107 C 
ATOM      8  N   UNL     1       3.859   4.301  -0.012  0.00  0.00    -0.314 N 
ATOM      9  C   UNL     1       4.793   4.433   1.113  0.00  0.00    +0.107 C 
ATOM     10  C   UNL     1       5.545   5.761   1.000  0.00  0.00    +0.032 C 
ATOM     11  C   UNL     1       3.254   3.050  -0.013  0.00  0.00    +0.144 A 
ATOM     12  C   UNL     1       4.051   1.891  -0.027  0.00  0.00    +0.049 A 
ATOM     13  C   UNL     1       3.469   0.662  -0.028  0.00  0.00    +0.055 A 
ATOM     14  C   UNL     1       2.066   0.568  -0.015  0.00  0.00    +0.200 A 
ATOM     15  N   UNL     1       1.210  -0.445  -0.012  0.00  0.00    -0.107 NA
ATOM     16  N   UNL     1       0.002  -0.004   0.002  0.00  0.00    -0.021 NA
ATOM     17  N   UNL     1      -0.015   1.286   0.009  0.00  0.00    -0.021 NA
ATOM     18  N   UNL     1       1.318   1.714  -0.001  0.00  0.00    -0.108 N 
ATOM     19  N   UNL     1       1.942   2.961  -0.000  0.00  0.00    -0.131 NA
ENDBRANCH   2   5
BRANCH   1  22
ATOM     20  C   UNL     1       7.800  10.193   2.487  0.00  0.00    +0.267 C 
ATOM     21  O   UNL     1       8.048   9.477   3.440  0.00  0.00    -0.268 OA
ATOM     22  N   UNL     1       6.873   9.816   1.584  0.00  0.00    -0.230 N 
ATOM     23  H   UNL     1       6.649  10.462   0.723  0.00  0.00    +0.173 HD
BRANCH  20  30
ATOM     24  C   UNL     1      11.096  15.453   3.158  0.00  0.00    -0.001 C 
ATOM     25  C   UNL     1      11.222  15.582   1.638  0.00  0.00    +0.009 C 
ATOM     26  C   UNL     1       9.906  15.123   0.993  0.00  0.00    +0.043 C 
ATOM     27  C   UNL     1       9.510  13.816   1.605  0.00  0.00    -0.006 A 
ATOM     28  C   UNL     1      10.006  13.258   2.749  0.00  0.00    -0.036 A 
ATOM     29  C   UNL     1       9.480  12.033   3.126  0.00  0.00    +0.024 A 
ATOM     30  C   UNL     1       8.509  11.465   2.321  0.00  0.00    +0.076 A 
ATOM     31  S   UNL     1       8.341  12.688   1.033  0.00  0.00    -0.088 S 
ATOM     32  C   UNL     1      11.083  13.977   3.558  0.00  0.00    +0.040 C 
BRANCH  24  34
ATOM     33  C   UNL     1      12.290  17.630   3.438  0.00  0.00    +0.011 C 
ATOM     34  C   UNL     1      12.282  16.150   3.827  0.00  0.00    -0.035 C 
ATOM     35  C   UNL     1      12.157  16.023   5.347  0.00  0.00    +0.011 C 
ATOM     36  C   UNL     1      13.585  15.495   3.366  0.00  0.00    +0.011 C 
ENDBRANCH  24  34
ENDBRANCH  20  30
ENDBRANCH   1  22
TORSDOF 4
