REMARK  Name = ZINC36309254
REMARK  16 active torsions:
REMARK  status: ('A' for Active; 'I' for Inactive)
REMARK    1  A    between atoms: C_1  and  C_2
REMARK    2  A    between atoms: C_2  and  C_3
REMARK    3  A    between atoms: C_2  and  C_4
REMARK    4  A    between atoms: C_7  and  O_10
REMARK    5  A    between atoms: O_10  and  C_11
REMARK    6  A    between atoms: C_11  and  C_12
REMARK    7  A    between atoms: C_22  and  C_24
REMARK    8  A    between atoms: C_24  and  N_25
REMARK    9  A    between atoms: N_25  and  C_26
REMARK   10  A    between atoms: N_25  and  C_30
REMARK   11  A    between atoms: C_26  and  C_27
REMARK   12  A    between atoms: C_30  and  C_31
REMARK   13  A    between atoms: C_31  and  C_33
REMARK   14  A    between atoms: C_31  and  O_36
REMARK   15  A    between atoms: C_33  and  O_34
REMARK   16  A    between atoms: O_34  and  C_35
REMARK                            x       y       z     vdW  Elec       q    Type
REMARK                         _______ _______ _______ _____ _____    ______ ____
ROOT
ATOM      1  C   UNL     1      -6.464  -2.196  -2.332  0.00  0.00    +0.144 C 
ATOM      2  C   UNL     1      -6.157  -3.008  -1.075  0.00  0.00    -0.014 A 
ATOM      3  C   UNL     1      -5.320  -4.122  -1.071  0.00  0.00    +0.013 A 
ATOM      4  C   UNL     1      -5.089  -4.791   0.082  0.00  0.00    +0.046 A 
ATOM      5  S   UNL     1      -6.067  -3.859   1.250  0.00  0.00    -0.101 S 
ATOM      6  C   UNL     1      -6.709  -2.655   0.118  0.00  0.00    -0.004 A 
ATOM      7  C   UNL     1      -7.640  -1.520   0.399  0.00  0.00    +0.061 C 
ATOM      8  C   UNL     1      -7.589  -0.537  -0.781  0.00  0.00    +0.113 C 
ATOM      9  N   UNL     1      -7.600  -1.313  -2.031  0.00  0.00    -0.292 N 
ATOM     10  C   UNL     1      -8.636  -1.217  -2.888  0.00  0.00    +0.200 C 
ATOM     11  O   UNL     1      -8.635  -1.862  -3.915  0.00  0.00    -0.278 OA
ENDROOT
BRANCH   1  12
ATOM     12  C   UNL     1      -5.244  -1.357  -2.718  0.00  0.00    +0.256 C 
BRANCH  12  13
ATOM     13  O   UNL     1      -4.838  -0.565  -1.600  0.00  0.00    -0.490 OA
BRANCH  13  17
ATOM     14  C   UNL     1      -1.565   1.890  -2.136  0.00  0.00    -0.045 A 
ATOM     15  C   UNL     1      -2.215   1.862  -0.916  0.00  0.00    +0.007 A 
ATOM     16  C   UNL     1      -3.311   1.041  -0.734  0.00  0.00    +0.046 A 
ATOM     17  C   UNL     1      -3.760   0.244  -1.777  0.00  0.00    +0.121 A 
ATOM     18  C   UNL     1      -3.107   0.274  -3.000  0.00  0.00    +0.046 A 
ATOM     19  C   UNL     1      -2.014   1.101  -3.179  0.00  0.00    +0.007 A 
BRANCH  14  21
ATOM     20  C   UNL     1      -0.778   4.241  -2.090  0.00  0.00    +0.012 C 
ATOM     21  C   UNL     1      -0.370   2.786  -2.331  0.00  0.00    +0.013 C 
ATOM     22  C   UNL     1       0.729   2.393  -1.341  0.00  0.00    +0.012 C 
ENDBRANCH  14  21
ENDBRANCH  13  17
ENDBRANCH  12  13
ENDBRANCH   1  12
BRANCH  10  23
ATOM     23  C   UNL     1      -9.795  -0.309  -2.569  0.00  0.00    +0.019 C 
BRANCH  23  24
ATOM     24  N   UNL     1     -10.786  -0.382  -3.651  0.00  0.00    +0.387 N 
ATOM     25  H   UNL     1     -10.334  -0.200  -4.535  0.00  0.00    -0.081 HD
BRANCH  24  26
ATOM     26  C   UNL     1     -11.387  -1.722  -3.676  0.00  0.00    -0.075 C 
BRANCH  26  27
ATOM     27  C   UNL     1     -12.346  -1.830  -4.863  0.00  0.00    -0.028 C 
ATOM     28  C   UNL     1     -13.839  -1.953  -4.556  0.00  0.00    +0.002 C 
ATOM     29  C   UNL     1     -13.062  -3.165  -5.074  0.00  0.00    +0.002 C 
ENDBRANCH  26  27
ENDBRANCH  24  26
BRANCH  24  30
ATOM     30  C   UNL     1     -11.835   0.621  -3.423  0.00  0.00    -0.044 C 
BRANCH  30  31
ATOM     31  C   UNL     1     -11.248   2.022  -3.600  0.00  0.00    +0.124 C 
BRANCH  31  32
ATOM     32  O   UNL     1     -10.361   2.308  -2.518  0.00  0.00    -0.391 OA
ATOM     33  H   UNL     1     -10.781   2.282  -1.647  0.00  0.00    +0.210 HD
ENDBRANCH  31  32
BRANCH  31  34
ATOM     34  C   UNL     1     -12.381   3.051  -3.615  0.00  0.00    +0.188 C 
BRANCH  34  35
ATOM     35  O   UNL     1     -11.845   4.346  -3.897  0.00  0.00    -0.381 OA
ATOM     36  C   UNL     1     -12.825   5.385  -3.934  0.00  0.00    +0.194 C 
ENDBRANCH  34  35
ENDBRANCH  31  34
ENDBRANCH  30  31
ENDBRANCH  24  30
ENDBRANCH  23  24
ENDBRANCH  10  23
TORSDOF 13
