REMARK  Name = ZINC28724462
REMARK  11 active torsions:
REMARK  status: ('A' for Active; 'I' for Inactive)
REMARK    1  A    between atoms: C_1  and  C_2
REMARK    2  A    between atoms: C_2  and  C_3
REMARK    3  A    between atoms: C_6  and  N_9
REMARK    4  A    between atoms: N_11  and  C_32
REMARK    5  A    between atoms: C_14  and  C_17
REMARK    6  A    between atoms: C_17  and  C_18
REMARK    7  A    between atoms: N_20  and  C_21
REMARK    8  A    between atoms: C_23  and  N_29
REMARK    9  A    between atoms: C_26  and  O_27
REMARK   10  A    between atoms: O_27  and  C_28
REMARK   11  A    between atoms: C_32  and  C_33
REMARK                            x       y       z     vdW  Elec       q    Type
REMARK                         _______ _______ _______ _____ _____    ______ ____
ROOT
ATOM      1  N   UNL     1       2.680  -1.854  -4.667  0.00  0.00    -0.226 NA
ATOM      2  C   UNL     1       3.809  -1.293  -5.032  0.00  0.00    +0.164 C 
ATOM      3  N   UNL     1       4.594  -1.592  -6.126  0.00  0.00    -0.246 N 
ATOM      4  C   UNL     1       5.719  -0.950  -6.389  0.00  0.00    +0.235 C 
ATOM      5  O   UNL     1       6.403  -1.219  -7.353  0.00  0.00    -0.274 OA
ATOM      6  C   UNL     1       6.100   0.147  -5.408  0.00  0.00    +0.149 C 
ATOM      7  S   UNL     1       4.686   0.043  -4.234  0.00  0.00    -0.077 S 
ENDROOT
BRANCH   1  11
ATOM      8  C   UNL     1       0.718  -0.536  -1.269  0.00  0.00    -0.047 A 
ATOM      9  C   UNL     1       0.003  -0.767  -2.431  0.00  0.00    +0.006 A 
ATOM     10  C   UNL     1       0.651  -1.207  -3.567  0.00  0.00    +0.028 A 
ATOM     11  C   UNL     1       2.031  -1.417  -3.543  0.00  0.00    +0.067 A 
ATOM     12  C   UNL     1       2.746  -1.181  -2.367  0.00  0.00    +0.028 A 
ATOM     13  C   UNL     1       2.087  -0.737  -1.240  0.00  0.00    +0.006 A 
BRANCH   8  15
ATOM     14  C   UNL     1      -0.028   1.474  -0.023  0.00  0.00    +0.009 C 
ATOM     15  C   UNL     1       0.004  -0.056  -0.033  0.00  0.00    +0.032 C 
ENDBRANCH   8  15
ENDBRANCH   1  11
BRANCH   6  16
ATOM     16  C   UNL     1       6.146   1.513  -6.094  0.00  0.00    +0.120 C 
BRANCH  16  17
ATOM     17  C   UNL     1       6.646   2.548  -5.119  0.00  0.00    +0.219 C 
ATOM     18  O   UNL     1       6.935   2.225  -3.987  0.00  0.00    -0.275 OA
ATOM     19  N   UNL     1       6.770   3.834  -5.505  0.00  0.00    -0.282 N 
ATOM     20  H   UNL     1       6.600   4.081  -6.428  0.00  0.00    +0.155 HD
BRANCH  19  21
ATOM     21  C   UNL     1       7.144   4.812  -4.575  0.00  0.00    +0.078 A 
ATOM     22  C   UNL     1       8.033   4.500  -3.557  0.00  0.00    +0.059 A 
ATOM     23  C   UNL     1       8.401   5.466  -2.640  0.00  0.00    +0.128 A 
ATOM     24  C   UNL     1       7.884   6.745  -2.734  0.00  0.00    +0.036 A 
ATOM     25  C   UNL     1       6.997   7.064  -3.745  0.00  0.00    +0.050 A 
ATOM     26  C   UNL     1       6.628   6.102  -4.672  0.00  0.00    +0.141 A 
BRANCH  23  27
ATOM     27  N   UNL     1       9.350   5.131  -1.555  0.00  0.00    +0.056 N 
ATOM     28  O   UNL     1       9.803   4.013  -1.471  0.00  0.00    -0.126 OA
ATOM     29  O   UNL     1       9.672   5.976  -0.752  0.00  0.00    -0.126 OA
ENDBRANCH  23  27
BRANCH  26  30
ATOM     30  O   UNL     1       5.760   6.416  -5.671  0.00  0.00    -0.493 OA
ATOM     31  C   UNL     1       5.272   7.758  -5.708  0.00  0.00    +0.277 C 
ENDBRANCH  26  30
ENDBRANCH  19  21
ENDBRANCH  16  17
ENDBRANCH   6  16
BRANCH   3  32
ATOM     32  C   UNL     1       4.165  -2.663  -7.030  0.00  0.00    +0.142 C 
BRANCH  32  33
ATOM     33  C   UNL     1       3.296  -2.084  -8.117  0.00  0.00    -0.015 C 
ATOM     34  C   UNL     1       3.602  -2.283  -9.375  0.00  0.00    +0.005 C 
ENDBRANCH  32  33
ENDBRANCH   3  32
TORSDOF 9
