REMARK  Name = ZINC32850863
REMARK  9 active torsions:
REMARK  status: ('A' for Active; 'I' for Inactive)
REMARK    1  A    between atoms: C_1  and  C_2
REMARK    2  A    between atoms: C_2  and  O_3
REMARK    3  A    between atoms: O_3  and  C_4
REMARK    4  A    between atoms: C_4  and  C_6
REMARK    5  A    between atoms: C_6  and  C_8
REMARK    6  A    between atoms: C_6  and  N_15
REMARK    7  A    between atoms: C_21  and  C_23
REMARK    8  A    between atoms: C_23  and  C_24
REMARK    9  A    between atoms: C_24  and  N_25
REMARK                            x       y       z     vdW  Elec       q    Type
REMARK                         _______ _______ _______ _____ _____    ______ ____
ROOT
ATOM      1  N   UNL     1      -2.341   0.875   0.062  0.00  0.00    +0.393 N 
ATOM      2  C   UNL     1      -2.212   0.077   1.289  0.00  0.00    -0.058 C 
ATOM      3  C   UNL     1      -3.389  -0.901   1.383  0.00  0.00    +0.089 C 
ATOM      4  N   UNL     1      -3.451  -1.680   0.138  0.00  0.00    -0.305 N 
ATOM      5  C   UNL     1      -3.444  -0.951  -1.140  0.00  0.00    +0.089 C 
ATOM      6  C   UNL     1      -2.265   0.028  -1.135  0.00  0.00    -0.058 C 
ATOM      7  C   UNL     1      -3.511  -3.026   0.166  0.00  0.00    +0.217 C 
ATOM      8  O   UNL     1      -3.562  -3.653  -0.871  0.00  0.00    -0.276 OA
ATOM      9  H   UNL     1      -3.333   1.349   0.074  0.00  0.00    -0.080 HD
ENDROOT
BRANCH   1  10
ATOM     10  C   UNL     1      -1.329   1.940   0.019  0.00  0.00    +0.073 C 
BRANCH  10  11
ATOM     11  C   UNL     1      -1.514   2.756  -1.234  0.00  0.00    -0.050 A 
ATOM     12  C   UNL     1      -2.778   3.167  -1.612  0.00  0.00    +0.004 A 
ATOM     13  C   UNL     1      -2.947   3.921  -2.758  0.00  0.00    +0.020 A 
ATOM     14  C   UNL     1      -1.851   4.255  -3.533  0.00  0.00    +0.041 A 
ATOM     15  C   UNL     1      -0.586   3.839  -3.158  0.00  0.00    +0.020 A 
ATOM     16  C   UNL     1      -0.418   3.090  -2.008  0.00  0.00    +0.004 A 
ATOM     17 CL   UNL     1      -2.063   5.196  -4.977  0.00  0.00    -0.084 Cl
ENDBRANCH  10  11
BRANCH  10  18
ATOM     18  C   UNL     1      -1.484   2.829   1.226  0.00  0.00    +0.298 C 
ATOM     19  O   UNL     1      -2.566   2.952   1.751  0.00  0.00    -0.252 OA
BRANCH  18  20
ATOM     20  O   UNL     1      -0.420   3.480   1.720  0.00  0.00    -0.466 OA
BRANCH  20  22
ATOM     21  C   UNL     1       0.676   4.971   3.304  0.00  0.00    +0.048 C 
ATOM     22  C   UNL     1      -0.642   4.315   2.888  0.00  0.00    +0.228 C 
ENDBRANCH  20  22
ENDBRANCH  18  20
ENDBRANCH  10  18
ENDBRANCH   1  10
BRANCH   7  23
ATOM     23  C   UNL     1      -3.517  -3.752   1.486  0.00  0.00    +0.117 C 
BRANCH  23  24
ATOM     24  C   UNL     1      -3.591  -5.260   1.238  0.00  0.00    +0.135 C 
BRANCH  24  25
ATOM     25  N   UNL     1      -3.597  -5.967   2.522  0.00  0.00    -0.298 N 
ATOM     26  C   UNL     1      -2.421  -6.350   3.084  0.00  0.00    +0.202 A 
ATOM     27  N   UNL     1      -2.343  -6.974   4.220  0.00  0.00    -0.237 NA
ATOM     28  C   UNL     1      -3.452  -7.301   4.930  0.00  0.00    +0.078 A 
ATOM     29  C   UNL     1      -3.369  -7.978   6.148  0.00  0.00    +0.028 A 
ATOM     30  C   UNL     1      -4.521  -8.291   6.834  0.00  0.00    +0.002 A 
ATOM     31  C   UNL     1      -5.766  -7.941   6.330  0.00  0.00    +0.001 A 
ATOM     32  C   UNL     1      -5.874  -7.273   5.130  0.00  0.00    +0.015 A 
ATOM     33  C   UNL     1      -4.721  -6.948   4.420  0.00  0.00    +0.065 A 
ATOM     34  C   UNL     1      -4.774  -6.236   3.134  0.00  0.00    +0.262 A 
ATOM     35  O   UNL     1      -5.835  -5.903   2.639  0.00  0.00    -0.267 OA
ENDBRANCH  24  25
ENDBRANCH  23  24
ENDBRANCH   7  23
TORSDOF 8
