REMARK  Name = ZINC66610066
REMARK  10 active torsions:
REMARK  status: ('A' for Active; 'I' for Inactive)
REMARK    1  A    between atoms: C_1  and  C_2
REMARK    2  A    between atoms: C_5  and  C_9
REMARK    3  A    between atoms: C_11  and  C_14
REMARK    4  A    between atoms: C_14  and  C_16
REMARK    5  A    between atoms: C_14  and  N_17
REMARK    6  A    between atoms: N_17  and  C_18
REMARK    7  A    between atoms: C_18  and  C_20
REMARK    8  A    between atoms: C_18  and  C_21
REMARK    9  A    between atoms: C_24  and  O_28
REMARK   10  A    between atoms: O_28  and  C_29
REMARK                            x       y       z     vdW  Elec       q    Type
REMARK                         _______ _______ _______ _____ _____    ______ ____
ROOT
ATOM      1  C   UNL     1       0.104  -7.547   1.690  0.00  0.00    +0.016 C 
ATOM      2  C   UNL     1      -1.287  -8.175   1.584  0.00  0.00    -0.004 C 
ENDROOT
BRANCH   1   5
ATOM      3  C   UNL     1       0.156  -4.142   0.436  0.00  0.00    +0.202 A 
ATOM      4  N   UNL     1       0.118  -5.060   1.419  0.00  0.00    -0.193 NA
ATOM      5  C   UNL     1       0.135  -6.259   0.910  0.00  0.00    +0.213 A 
ATOM      6  O   UNL     1       0.185  -6.153  -0.424  0.00  0.00    -0.339 OA
ATOM      7  N   UNL     1       0.192  -4.763  -0.716  0.00  0.00    -0.056 NA
BRANCH   3  12
ATOM      8  C   UNL     1       0.137   1.573   1.169  0.00  0.00    +0.047 C 
ATOM      9  C   UNL     1       0.142   0.078   0.978  0.00  0.00    -0.015 A 
ATOM     10  C   UNL     1       0.183  -0.454  -0.298  0.00  0.00    +0.007 A 
ATOM     11  C   UNL     1       0.188  -1.822  -0.479  0.00  0.00    +0.012 A 
ATOM     12  C   UNL     1       0.151  -2.670   0.627  0.00  0.00    +0.025 A 
ATOM     13  C   UNL     1       0.110  -2.131   1.910  0.00  0.00    +0.050 A 
ATOM     14  C   UNL     1       0.111  -0.759   2.082  0.00  0.00    +0.127 A 
ATOM     15  F   UNL     1       0.076  -0.234   3.326  0.00  0.00    -0.205 F 
ENDBRANCH   3  12
ENDBRANCH   1   5
BRANCH   1  16
ATOM     16  N   UNL     1       1.103  -8.475   1.143  0.00  0.00    +0.391 N 
ATOM     17  H   UNL     1       1.022  -9.368   1.605  0.00  0.00    -0.084 HD
ATOM     18  H   UNL     1       0.946  -8.593   0.153  0.00  0.00    -0.084 HD
BRANCH  16  19
ATOM     19  C   UNL     1       2.450  -7.931   1.363  0.00  0.00    -0.043 C 
ATOM     20  C   UNL     1       2.747  -7.898   2.864  0.00  0.00    -0.009 C 
BRANCH  19  21
ATOM     21  C   UNL     1       3.464  -8.803   0.670  0.00  0.00    -0.059 A 
ATOM     22  C   UNL     1       3.320 -10.178   0.689  0.00  0.00    +0.006 A 
ATOM     23  C   UNL     1       4.248 -10.982   0.055  0.00  0.00    +0.049 A 
ATOM     24  C   UNL     1       5.326 -10.408  -0.603  0.00  0.00    +0.155 A 
ATOM     25  C   UNL     1       5.469  -9.027  -0.622  0.00  0.00    +0.165 A 
ATOM     26  C   UNL     1       4.534  -8.227   0.011  0.00  0.00    +0.044 A 
ATOM     27  F   UNL     1       6.518  -8.464  -1.261  0.00  0.00    -0.202 F 
BRANCH  24  28
ATOM     28  O   UNL     1       6.240 -11.197  -1.227  0.00  0.00    -0.492 OA
ATOM     29  C   UNL     1       6.029 -12.609  -1.166  0.00  0.00    +0.277 C 
ENDBRANCH  24  28
ENDBRANCH  19  21
ENDBRANCH  16  19
ENDBRANCH   1  16
TORSDOF 6
