REMARK  Name = ZINC59462016
REMARK  6 active torsions:
REMARK  status: ('A' for Active; 'I' for Inactive)
REMARK    1  A    between atoms: C_1  and  C_2
REMARK    2  A    between atoms: C_5  and  O_8
REMARK    3  A    between atoms: O_8  and  C_9
REMARK    4  A    between atoms: C_12  and  C_15
REMARK    5  A    between atoms: N_19  and  C_26
REMARK    6  A    between atoms: N_22  and  C_25
REMARK                            x       y       z     vdW  Elec       q    Type
REMARK                         _______ _______ _______ _____ _____    ______ ____
ROOT
ATOM      1  C   UNL     1       0.265  -7.151   4.728  0.00  0.00    +0.093 C 
ATOM      2  C   UNL     1      -0.902  -8.104   4.768  0.00  0.00    +0.067 A 
ATOM      3  C   UNL     1      -0.762  -9.442   4.561  0.00  0.00    +0.116 A 
ATOM      4  N   UNL     1      -1.874 -10.253   4.606  0.00  0.00    -0.284 N 
ATOM      5  C   UNL     1      -3.089  -9.735   4.856  0.00  0.00    +0.333 A 
ATOM      6  O   UNL     1      -4.058 -10.469   4.892  0.00  0.00    -0.246 OA
ATOM      7  N   UNL     1      -3.248  -8.416   5.068  0.00  0.00    -0.264 N 
ATOM      8  C   UNL     1      -2.188  -7.587   5.030  0.00  0.00    +0.262 A 
ATOM      9  O   UNL     1      -2.338  -6.392   5.221  0.00  0.00    -0.267 OA
ATOM     10  C   UNL     1      -4.582  -7.878   5.341  0.00  0.00    +0.157 C 
ATOM     11  C   UNL     1      -1.732 -11.693   4.378  0.00  0.00    +0.155 C 
ATOM     12  N   UNL     1       0.464 -10.022   4.313  0.00  0.00    -0.299 N 
ATOM     13  C   UNL     1       1.601  -9.288   4.566  0.00  0.00    +0.048 C 
ATOM     14  C   UNL     1       1.552  -7.933   4.770  0.00  0.00    +0.034 C 
ATOM     15  H   UNL     1       0.524 -10.927   3.969  0.00  0.00    +0.154 HD
ATOM     16  C   UNL     1       2.855  -7.441   5.011  0.00  0.00    +0.193 C 
ATOM     17  O   UNL     1       3.158  -6.285   5.232  0.00  0.00    -0.287 OA
ATOM     18  C   UNL     1       3.783  -8.592   4.947  0.00  0.00    +0.031 A 
ATOM     19  C   UNL     1       2.994  -9.737   4.669  0.00  0.00    +0.007 A 
ATOM     20  C   UNL     1       3.575 -10.989   4.545  0.00  0.00    +0.010 A 
ATOM     21  C   UNL     1       4.961 -11.064   4.708  0.00  0.00    +0.001 A 
ATOM     22  C   UNL     1       5.723  -9.952   4.979  0.00  0.00    +0.001 A 
ATOM     23  C   UNL     1       5.152  -8.680   5.106  0.00  0.00    +0.012 A 
ENDROOT
BRANCH   1  27
ATOM     24  C   UNL     1       0.108  -4.858   1.125  0.00  0.00    +0.128 A 
ATOM     25  C   UNL     1       0.063  -4.221   2.357  0.00  0.00    +0.046 A 
ATOM     26  C   UNL     1       0.114  -4.965   3.520  0.00  0.00    +0.008 A 
ATOM     27  C   UNL     1       0.210  -6.343   3.457  0.00  0.00    -0.035 A 
ATOM     28  C   UNL     1       0.255  -6.980   2.231  0.00  0.00    +0.008 A 
ATOM     29  C   UNL     1       0.199  -6.242   1.065  0.00  0.00    +0.046 A 
BRANCH  24  30
ATOM     30  O   UNL     1       0.059  -4.129  -0.021  0.00  0.00    -0.456 OA
BRANCH  30  35
ATOM     31  C   UNL     1       4.924  -2.369  -2.247  0.00  0.00    +0.044 C 
ATOM     32  C   UNL     1       3.622  -2.840  -1.652  0.00  0.00    -0.050 A 
ATOM     33  C   UNL     1       3.626  -3.591  -0.491  0.00  0.00    +0.007 A 
ATOM     34  C   UNL     1       2.434  -4.024   0.058  0.00  0.00    +0.046 A 
ATOM     35  C   UNL     1       1.233  -3.704  -0.558  0.00  0.00    +0.128 A 
ATOM     36  C   UNL     1       1.232  -2.950  -1.723  0.00  0.00    +0.046 A 
ATOM     37  C   UNL     1       2.426  -2.516  -2.264  0.00  0.00    +0.007 A 
ENDBRANCH  30  35
ENDBRANCH  24  30
ENDBRANCH   1  27
TORSDOF 3
