REMARK  Name = ZINC11854744
REMARK  6 active torsions:
REMARK  status: ('A' for Active; 'I' for Inactive)
REMARK    1  A    between atoms: C_1  and  C_2
REMARK    2  A    between atoms: C_2  and  C_3
REMARK    3  A    between atoms: C_3  and  C_4
REMARK    4  A    between atoms: C_13  and  N_22
REMARK    5  A    between atoms: C_15  and  C_17
REMARK    6  A    between atoms: C_23  and  C_25
REMARK                            x       y       z     vdW  Elec       q    Type
REMARK                         _______ _______ _______ _____ _____    ______ ____
ROOT
ATOM      1  C   UNL     1       1.159  10.895   0.050  0.00  0.00    +0.050 A 
ATOM      2  C   UNL     1      -0.158  11.248   0.063  0.00  0.00    +0.093 A 
ATOM      3  C   UNL     1      -1.133  10.233   0.067  0.00  0.00    +0.253 A 
ATOM      4  O   UNL     1      -2.321  10.512   0.078  0.00  0.00    -0.268 OA
ATOM      5  N   UNL     1      -0.729   8.945   0.051  0.00  0.00    -0.291 N 
ATOM      6  H   UNL     1      -1.383   8.229   0.049  0.00  0.00    +0.172 HD
ATOM      7  C   UNL     1       0.600   8.655   0.043  0.00  0.00    +0.234 A 
ATOM      8  N   UNL     1       1.506   9.608   0.040  0.00  0.00    -0.217 NA
ATOM      9  N   UNL     1       1.005   7.335   0.032  0.00  0.00    -0.185 N 
ATOM     10  C   UNL     1       2.297   6.891   0.018  0.00  0.00    +0.132 A 
ATOM     11  C   UNL     1       2.267   5.534   0.010  0.00  0.00    +0.074 A 
ATOM     12  C   UNL     1       0.915   5.132   0.021  0.00  0.00    +0.102 A 
ATOM     13  N   UNL     1       0.164   6.215   0.028  0.00  0.00    -0.162 NA
ENDROOT
BRANCH  12  14
ATOM     14  C   UNL     1       0.425   3.737   0.017  0.00  0.00    +0.039 A 
ATOM     15  C   UNL     1      -0.864   3.276   0.027  0.00  0.00    +0.018 A 
ATOM     16  C   UNL     1      -1.080   1.915   0.017  0.00  0.00    +0.008 A 
ATOM     17  C   UNL     1      -0.013   1.076   0.008  0.00  0.00    +0.046 A 
ATOM     18  S   UNL     1       1.360   2.217   0.001  0.00  0.00    -0.095 S 
ENDBRANCH  12  14
BRANCH  10  19
ATOM     19  N   UNL     1       3.439   7.688   0.011  0.00  0.00    -0.266 N 
ATOM     20  C   UNL     1       4.659   7.116  -0.003  0.00  0.00    +0.255 C 
ATOM     21  O   UNL     1       4.763   5.904  -0.010  0.00  0.00    -0.270 OA
ATOM     22  H   UNL     1       3.356   8.654   0.017  0.00  0.00    +0.157 HD
BRANCH  20  23
ATOM     23  C   UNL     1       5.869   7.960  -0.010  0.00  0.00    +0.107 A 
ATOM     24  C   UNL     1       6.454   8.361   1.196  0.00  0.00    +0.138 A 
ATOM     25  C   UNL     1       7.591   9.147   1.180  0.00  0.00    +0.039 A 
ATOM     26  C   UNL     1       8.144   9.546  -0.023  0.00  0.00    +0.006 A 
ATOM     27  C   UNL     1       7.569   9.159  -1.220  0.00  0.00    +0.039 A 
ATOM     28  C   UNL     1       6.435   8.369  -1.223  0.00  0.00    +0.138 A 
ATOM     29  F   UNL     1       5.875   7.992  -2.393  0.00  0.00    -0.205 F 
ATOM     30  F   UNL     1       5.912   7.976   2.373  0.00  0.00    -0.205 F 
ENDBRANCH  20  23
ENDBRANCH  10  19
BRANCH   1  31
ATOM     31  C   UNL     1       2.224  11.961   0.046  0.00  0.00    +0.055 C 
BRANCH  31  33
ATOM     32  C   UNL     1       3.768  13.307   1.477  0.00  0.00    +0.004 C 
ATOM     33  C   UNL     1       2.686  12.225   1.480  0.00  0.00    +0.003 C 
ENDBRANCH  31  33
ENDBRANCH   1  31
TORSDOF 5
