REMARK  Name = ZINC38658092
REMARK  9 active torsions:
REMARK  status: ('A' for Active; 'I' for Inactive)
REMARK    1  A    between atoms: C_2  and  C_3
REMARK    2  A    between atoms: C_3  and  O_4
REMARK    3  A    between atoms: O_4  and  C_5
REMARK    4  A    between atoms: C_8  and  C_11
REMARK    5  A    between atoms: C_16  and  O_25
REMARK    6  A    between atoms: C_20  and  N_24
REMARK    7  A    between atoms: C_21  and  C_22
REMARK    8  A    between atoms: O_25  and  C_26
REMARK    9  A    between atoms: C_26  and  C_28
REMARK                            x       y       z     vdW  Elec       q    Type
REMARK                         _______ _______ _______ _____ _____    ______ ____
ROOT
ATOM      1  C   UNL     1      -5.730  -5.114  -1.390  0.00  0.00    +0.098 C 
ATOM      2  C   UNL     1      -5.360  -6.540  -1.076  0.00  0.00    +0.008 A 
ATOM      3  C   UNL     1      -5.093  -6.901   0.232  0.00  0.00    +0.012 A 
ATOM      4  C   UNL     1      -4.752  -8.204   0.539  0.00  0.00    +0.047 A 
ATOM      5  C   UNL     1      -4.677  -9.156  -0.468  0.00  0.00    +0.136 A 
ATOM      6  C   UNL     1      -4.944  -8.798  -1.779  0.00  0.00    +0.093 A 
ATOM      7  C   UNL     1      -5.287  -7.487  -2.086  0.00  0.00    +0.138 A 
ATOM      8  O   UNL     1      -5.545  -7.152  -3.374  0.00  0.00    -0.441 OA
ATOM      9  C   UNL     1      -6.237  -6.034  -3.650  0.00  0.00    +0.199 C 
ATOM     10  C   UNL     1      -6.361  -5.032  -2.752  0.00  0.00    +0.098 C 
ENDROOT
BRANCH   1  14
ATOM     11  C   UNL     1      -2.213  -2.689  -1.310  0.00  0.00    +0.121 A 
ATOM     12  C   UNL     1      -3.262  -2.421  -0.443  0.00  0.00    +0.046 A 
ATOM     13  C   UNL     1      -4.398  -3.206  -0.471  0.00  0.00    +0.008 A 
ATOM     14  C   UNL     1      -4.490  -4.259  -1.362  0.00  0.00    -0.034 A 
ATOM     15  C   UNL     1      -3.446  -4.529  -2.227  0.00  0.00    +0.008 A 
ATOM     16  C   UNL     1      -2.310  -3.743  -2.207  0.00  0.00    +0.046 A 
BRANCH  11  17
ATOM     17  O   UNL     1      -1.094  -1.918  -1.285  0.00  0.00    -0.488 OA
BRANCH  17  18
ATOM     18  C   UNL     1      -1.064  -0.850  -0.335  0.00  0.00    +0.256 C 
BRANCH  18  20
ATOM     19  C   UNL     1       0.257   1.199  -0.458  0.00  0.00    +0.007 C 
ATOM     20  C   UNL     1       0.244  -0.111  -0.452  0.00  0.00    +0.006 C 
ENDBRANCH  18  20
ENDBRANCH  17  18
ENDBRANCH  11  17
ENDBRANCH   1  14
BRANCH   9  21
ATOM     21  N   UNL     1      -6.834  -5.907  -4.879  0.00  0.00    -0.328 N 
ATOM     22  H   UNL     1      -6.753  -6.617  -5.534  0.00  0.00    +0.145 HD
ATOM     23  H   UNL     1      -7.337  -5.105  -5.093  0.00  0.00    +0.145 HD
ENDBRANCH   9  21
BRANCH  10  24
ATOM     24  C   UNL     1      -7.111  -3.866  -3.108  0.00  0.00    +0.101 C 
ATOM     25  N   UNL     1      -7.706  -2.941  -3.391  0.00  0.00    -0.191 NA
ENDBRANCH  10  24
BRANCH   5  26
ATOM     26  O   UNL     1      -4.341 -10.439  -0.168  0.00  0.00    -0.420 OA
BRANCH  26  27
ATOM     27  C   UNL     1      -5.227 -11.178   0.531  0.00  0.00    +0.380 C 
ATOM     28  O   UNL     1      -6.329 -10.730   0.782  0.00  0.00    -0.241 OA
BRANCH  27  29
ATOM     29  C   UNL     1      -4.861 -12.521   0.987  0.00  0.00    +0.212 A 
ATOM     30  C   UNL     1      -5.660 -13.374   1.695  0.00  0.00    +0.056 A 
ATOM     31  C   UNL     1      -4.910 -14.540   1.915  0.00  0.00    +0.042 A 
ATOM     32  C   UNL     1      -3.702 -14.350   1.339  0.00  0.00    +0.196 A 
ATOM     33  O   UNL     1      -3.678 -13.135   0.776  0.00  0.00    -0.456 OA
ENDBRANCH  27  29
ENDBRANCH  26  27
ENDBRANCH   5  26
TORSDOF 9
