REMARK  Name = ZINC35105984
REMARK  13 active torsions:
REMARK  status: ('A' for Active; 'I' for Inactive)
REMARK    1  A    between atoms: C_1  and  C_2
REMARK    2  A    between atoms: C_2  and  C_38
REMARK    3  A    between atoms: C_7  and  C_11
REMARK    4  A    between atoms: C_11  and  N_12
REMARK    5  A    between atoms: N_12  and  C_13
REMARK    6  A    between atoms: N_12  and  C_22
REMARK    7  A    between atoms: C_13  and  C_14
REMARK    8  A    between atoms: C_14  and  C_15
REMARK    9  A    between atoms: C_15  and  C_16
REMARK   10  A    between atoms: C_22  and  C_23
REMARK   11  A    between atoms: C_23  and  N_24
REMARK   12  A    between atoms: C_30  and  C_32
REMARK   13  A    between atoms: C_32  and  C_33
REMARK                            x       y       z     vdW  Elec       q    Type
REMARK                         _______ _______ _______ _____ _____    ______ ____
ROOT
ATOM      1  N   UNL     1       1.730  -0.613   4.281  0.00  0.00    +0.383 N 
ATOM      2  H   UNL     1       0.802  -0.846   4.600  0.00  0.00    -0.081 HD
ENDROOT
BRANCH   1   3
ATOM      3  C   UNL     1       1.675   0.604   3.461  0.00  0.00    -0.047 C 
BRANCH   3   9
ATOM      4  C   UNL     1       3.858   3.398   1.846  0.00  0.00    +0.012 C 
ATOM      5  C   UNL     1       4.793   2.712   2.845  0.00  0.00    -0.025 C 
ATOM      6  C   UNL     1       5.581   1.526   2.250  0.00  0.00    -0.000 C 
ATOM      7  C   UNL     1       4.761   0.817   1.164  0.00  0.00    +0.031 C 
ATOM      8  C   UNL     1       3.383   0.500   1.692  0.00  0.00    -0.029 C 
ATOM      9  C   UNL     1       3.044   0.893   2.899  0.00  0.00    -0.086 C 
ATOM     10  C   UNL     1       4.100   1.653   3.722  0.00  0.00    +0.019 C 
ATOM     11  C   UNL     1       5.444   0.887   3.643  0.00  0.00    +0.012 C 
ATOM     12  C   UNL     1       5.657   3.700   3.632  0.00  0.00    +0.012 C 
ENDBRANCH   3   9
ENDBRANCH   1   3
BRANCH   1  13
ATOM     13  C   UNL     1       2.603  -0.383   5.441  0.00  0.00    -0.078 C 
BRANCH  13  14
ATOM     14  C   UNL     1       1.982   0.686   6.342  0.00  0.00    -0.014 C 
BRANCH  14  15
ATOM     15  C   UNL     1       2.890   0.925   7.550  0.00  0.00    +0.033 C 
BRANCH  15  16
ATOM     16  C   UNL     1       2.278   1.978   8.438  0.00  0.00    -0.047 A 
ATOM     17  C   UNL     1       2.576   3.312   8.234  0.00  0.00    +0.003 A 
ATOM     18  C   UNL     1       2.015   4.278   9.049  0.00  0.00    +0.000 A 
ATOM     19  C   UNL     1       1.155   3.909  10.067  0.00  0.00    +0.000 A 
ATOM     20  C   UNL     1       0.857   2.575  10.270  0.00  0.00    +0.000 A 
ATOM     21  C   UNL     1       1.415   1.609   9.453  0.00  0.00    +0.003 A 
ENDBRANCH  15  16
ENDBRANCH  14  15
ENDBRANCH  13  14
ENDBRANCH   1  13
BRANCH   1  22
ATOM     22  C   UNL     1       2.265  -1.722   3.479  0.00  0.00    -0.063 C 
BRANCH  22  23
ATOM     23  C   UNL     1       1.280  -2.060   2.358  0.00  0.00    +0.066 C 
BRANCH  23  24
ATOM     24  N   UNL     1       1.865  -3.088   1.486  0.00  0.00    -0.301 NA
ATOM     25  C   UNL     1       1.906  -4.391   2.163  0.00  0.00    +0.103 C 
ATOM     26  C   UNL     1       2.683  -5.389   1.297  0.00  0.00    +0.123 C 
ATOM     27  N   UNL     1       2.086  -5.404  -0.048  0.00  0.00    -0.299 N 
ATOM     28  C   UNL     1       1.886  -4.119  -0.735  0.00  0.00    +0.123 C 
ATOM     29  C   UNL     1       1.140  -3.172   0.211  0.00  0.00    +0.103 C 
ATOM     30  C   UNL     1       1.732  -6.565  -0.634  0.00  0.00    +0.220 C 
ATOM     31  O   UNL     1       1.904  -7.615  -0.053  0.00  0.00    -0.275 OA
BRANCH  30  32
ATOM     32  C   UNL     1       1.122  -6.558  -2.012  0.00  0.00    +0.138 C 
BRANCH  32  33
ATOM     33  C   UNL     1       0.820  -7.972  -2.435  0.00  0.00    -0.001 A 
ATOM     34  C   UNL     1      -0.314  -8.694  -2.254  0.00  0.00    +0.011 A 
ATOM     35  C   UNL     1      -0.367  -9.989  -2.733  0.00  0.00    +0.008 A 
ATOM     36  C   UNL     1       0.715 -10.500  -3.369  0.00  0.00    +0.045 A 
ATOM     37  S   UNL     1       1.858  -9.130  -3.311  0.00  0.00    -0.101 S 
ENDBRANCH  32  33
ENDBRANCH  30  32
ENDBRANCH  23  24
ENDBRANCH  22  23
ENDBRANCH   1  22
TORSDOF 11
