REMARK  Name = ZINC33034068
REMARK  7 active torsions:
REMARK  status: ('A' for Active; 'I' for Inactive)
REMARK    1  A    between atoms: C_5  and  C_7
REMARK    2  A    between atoms: C_7  and  N_8
REMARK    3  A    between atoms: C_9  and  C_11
REMARK    4  A    between atoms: C_14  and  N_26
REMARK    5  A    between atoms: C_15  and  N_17
REMARK    6  A    between atoms: N_17  and  S_18
REMARK    7  A    between atoms: S_18  and  C_21
REMARK                            x       y       z     vdW  Elec       q    Type
REMARK                         _______ _______ _______ _____ _____    ______ ____
ROOT
ATOM      1  C   UNL     1       1.814  -4.501   2.932  0.00  0.00    +0.039 A 
ATOM      2  C   UNL     1       1.991  -3.597   3.983  0.00  0.00    +0.015 A 
ATOM      3  C   UNL     1       2.236  -4.060   5.257  0.00  0.00    +0.026 A 
ATOM      4  C   UNL     1       2.307  -5.427   5.501  0.00  0.00    +0.054 A 
ATOM      5  C   UNL     1       2.131  -6.336   4.455  0.00  0.00    +0.096 A 
ATOM      6  C   UNL     1       1.879  -5.876   3.176  0.00  0.00    +0.041 A 
ENDROOT
BRANCH   4   7
ATOM      7  N   UNL     1       2.555  -5.891   6.792  0.00  0.00    -0.332 N 
ATOM      8  C   UNL     1       3.931  -6.112   7.264  0.00  0.00    +0.086 C 
ATOM      9  C   UNL     1       4.101  -5.405   8.613  0.00  0.00    -0.063 C 
ATOM     10  N   UNL     1       3.060  -5.865   9.540  0.00  0.00    +0.381 N 
ATOM     11  C   UNL     1       1.737  -5.462   9.047  0.00  0.00    -0.063 C 
ATOM     12  C   UNL     1       1.450  -6.167   7.722  0.00  0.00    +0.086 C 
ATOM     13  H   UNL     1       3.098  -6.871   9.615  0.00  0.00    -0.086 HD
ATOM     14  H   UNL     1       3.217  -5.457  10.450  0.00  0.00    -0.086 HD
ENDBRANCH   4   7
BRANCH   1  16
ATOM     15  N   UNL     1       1.489  -2.679   1.333  0.00  0.00    -0.307 N 
ATOM     16  C   UNL     1       1.552  -4.005   1.567  0.00  0.00    +0.244 C 
ATOM     17  O   UNL     1       1.393  -4.792   0.654  0.00  0.00    -0.270 OA
ATOM     18  H   UNL     1       1.615  -2.051   2.062  0.00  0.00    +0.149 HD
BRANCH  15  19
ATOM     19  C   UNL     1       1.229  -2.186  -0.022  0.00  0.00    +0.141 C 
BRANCH  19  24
ATOM     20  C   UNL     1      -0.017   1.378   0.010  0.00  0.00    +0.000 A 
ATOM     21  C   UNL     1       1.171   2.086   0.002  0.00  0.00    +0.001 A 
ATOM     22  C   UNL     1       2.377   1.412  -0.013  0.00  0.00    +0.020 A 
ATOM     23  C   UNL     1       2.397   0.029  -0.021  0.00  0.00    +0.046 A 
ATOM     24  C   UNL     1       1.208  -0.679  -0.013  0.00  0.00    -0.012 A 
ATOM     25  C   UNL     1       0.002  -0.004   0.002  0.00  0.00    +0.006 A 
ATOM     26 CL   UNL     1       3.912  -0.818  -0.041  0.00  0.00    -0.083 Cl
ENDBRANCH  19  24
ENDBRANCH  15  19
ENDBRANCH   1  16
BRANCH   5  27
ATOM     27  N   UNL     1       2.205  -7.712   4.702  0.00  0.00    -0.095 NA
BRANCH  27  28
ATOM     28  S   UNL     1       1.996  -8.789   3.462  0.00  0.00    +0.098 S 
ATOM     29  O   UNL     1       0.647  -8.659   3.033  0.00  0.00    -0.148 OA
ATOM     30  O   UNL     1       3.096  -8.611   2.580  0.00  0.00    -0.148 OA
BRANCH  28  31
ATOM     31  C   UNL     1       2.154 -10.406   4.143  0.00  0.00    +0.148 A 
ATOM     32  C   UNL     1       1.195 -11.212   4.660  0.00  0.00    +0.037 A 
ATOM     33  C   UNL     1       1.554 -12.457   5.143  0.00  0.00    +0.010 A 
ATOM     34  C   UNL     1       2.854 -12.834   5.086  0.00  0.00    +0.047 A 
ATOM     35  S   UNL     1       3.619 -11.411   4.325  0.00  0.00    -0.077 S 
ENDBRANCH  28  31
ENDBRANCH  27  28
ENDBRANCH   5  27
TORSDOF 7
