REMARK  Name = ZINC32952663
REMARK  8 active torsions:
REMARK  status: ('A' for Active; 'I' for Inactive)
REMARK    1  A    between atoms: C_1  and  C_2
REMARK    2  A    between atoms: C_5  and  N_8
REMARK    3  A    between atoms: N_13  and  C_26
REMARK    4  A    between atoms: C_14  and  S_16
REMARK    5  A    between atoms: S_16  and  C_17
REMARK    6  A    between atoms: C_17  and  C_18
REMARK    7  A    between atoms: C_20  and  C_25
REMARK    8  A    between atoms: C_23  and  C_24
REMARK                            x       y       z     vdW  Elec       q    Type
REMARK                         _______ _______ _______ _____ _____    ______ ____
ROOT
ATOM      1  N   UNL     1       2.216   1.058  -0.013  0.00  0.00    -0.282 N 
ATOM      2  C   UNL     1       1.333   2.108   0.001  0.00  0.00    +0.161 A 
ATOM      3  C   UNL     1      -0.022   1.770   0.012  0.00  0.00    +0.122 A 
ATOM      4  C   UNL     1      -1.019   2.737   0.031  0.00  0.00    +0.270 A 
ATOM      5  O   UNL     1      -2.197   2.421   0.046  0.00  0.00    -0.266 OA
ATOM      6  N   UNL     1      -0.648   4.040   0.031  0.00  0.00    -0.290 N 
ATOM      7  C   UNL     1       0.680   4.348   0.020  0.00  0.00    +0.174 A 
ATOM      8  N   UNL     1       1.618   3.434   0.005  0.00  0.00    -0.204 NA
ATOM      9  C   UNL     1      -1.658   5.102   0.046  0.00  0.00    +0.154 C 
ATOM     10  S   UNL     1       0.002  -0.004   0.002  0.00  0.00    -0.055 S 
ATOM     11  C   UNL     1       1.776  -0.217  -0.016  0.00  0.00    +0.132 A 
ATOM     12  S   UNL     1       2.684  -1.669  -0.033  0.00  0.00    -0.024 S 
ENDROOT
BRANCH   1  17
ATOM     13  C   UNL     1       7.796   2.091  -0.059  0.00  0.00    +0.044 C 
ATOM     14  C   UNL     1       6.314   1.817  -0.047  0.00  0.00    -0.050 A 
ATOM     15  C   UNL     1       5.718   1.199  -1.131  0.00  0.00    +0.005 A 
ATOM     16  C   UNL     1       4.360   0.946  -1.123  0.00  0.00    +0.026 A 
ATOM     17  C   UNL     1       3.594   1.313  -0.025  0.00  0.00    +0.050 A 
ATOM     18  C   UNL     1       4.194   1.938   1.060  0.00  0.00    +0.026 A 
ATOM     19  C   UNL     1       5.554   2.183   1.048  0.00  0.00    +0.005 A 
ENDBRANCH   1  17
BRANCH   7  20
ATOM     20  S   UNL     1       1.155   6.045   0.025  0.00  0.00    -0.083 S 
BRANCH  20  21
ATOM     21  C   UNL     1       2.956   5.867   0.007  0.00  0.00    +0.112 C 
BRANCH  21  22
ATOM     22  C   UNL     1       3.595   7.232   0.010  0.00  0.00    -0.034 A 
ATOM     23  C   UNL     1       3.899   7.851   1.208  0.00  0.00    +0.008 A 
ATOM     24  C   UNL     1       4.486   9.102   1.210  0.00  0.00    -0.050 A 
ATOM     25  C   UNL     1       4.768   9.736   0.014  0.00  0.00    +0.003 A 
ATOM     26  C   UNL     1       4.463   9.117  -1.184  0.00  0.00    +0.004 A 
ATOM     27  C   UNL     1       3.882   7.863  -1.186  0.00  0.00    -0.046 A 
ATOM     28  C   UNL     1       3.556   7.186  -2.492  0.00  0.00    +0.044 C 
ATOM     29  C   UNL     1       4.818   9.777   2.516  0.00  0.00    +0.044 C 
ENDBRANCH  21  22
ENDBRANCH  20  21
ENDBRANCH   7  20
TORSDOF 4
