REMARK  Name = ZINC12648984
REMARK  7 active torsions:
REMARK  status: ('A' for Active; 'I' for Inactive)
REMARK    1  A    between atoms: C_1  and  C_2
REMARK    2  A    between atoms: C_2  and  O_3
REMARK    3  A    between atoms: O_3  and  C_4
REMARK    4  A    between atoms: C_7  and  N_13
REMARK    5  A    between atoms: C_8  and  N_10
REMARK    6  A    between atoms: C_14  and  C_16
REMARK    7  A    between atoms: C_25  and  N_28
REMARK                            x       y       z     vdW  Elec       q    Type
REMARK                         _______ _______ _______ _____ _____    ______ ____
ROOT
ATOM      1  N   UNL     1       4.836   3.953  -0.007  0.00  0.00    -0.283 N 
ATOM      2  C   UNL     1       5.956   3.211  -0.103  0.00  0.00    +0.224 C 
ATOM      3  O   UNL     1       5.877   2.013  -0.280  0.00  0.00    -0.275 OA
ATOM      4  H   UNL     1       4.906   5.048   0.065  0.00  0.00    +0.155 HD
ENDROOT
BRANCH   2   5
ATOM      5  C   UNL     1       7.308   3.868   0.007  0.00  0.00    +0.050 C 
ATOM      6  C   UNL     1       7.459   4.912  -1.101  0.00  0.00    +0.020 C 
ATOM      7  C   UNL     1       8.831   5.580  -0.989  0.00  0.00    -0.007 C 
ATOM      8  C   UNL     1       8.956   6.262   0.375  0.00  0.00    +0.007 C 
ATOM      9  C   UNL     1       8.805   5.218   1.484  0.00  0.00    -0.007 C 
ATOM     10  C   UNL     1       7.433   4.551   1.371  0.00  0.00    +0.020 C 
ATOM     11  C   UNL     1       9.900   4.160   1.341  0.00  0.00    +0.034 C 
ATOM     12  C   UNL     1       9.775   3.478  -0.023  0.00  0.00    +0.067 C 
ATOM     13  C   UNL     1       9.927   4.521  -1.131  0.00  0.00    +0.034 C 
ATOM     14  C   UNL     1       8.403   2.810  -0.136  0.00  0.00    +0.046 C 
BRANCH  12  15
ATOM     15  N   UNL     1      10.824   2.464  -0.160  0.00  0.00    -0.245 N 
ATOM     16  C   UNL     1      10.878   1.479  -1.073  0.00  0.00    +0.220 A 
ATOM     17  N   UNL     1      11.970   0.789  -0.862  0.00  0.00    -0.209 NA
ATOM     18  C   UNL     1      12.636   1.302   0.172  0.00  0.00    +0.217 A 
ATOM     19  N   UNL     1      11.976   2.333   0.632  0.00  0.00    -0.142 NA
ATOM     20 BR   UNL     1      14.273   0.649   0.858  0.00  0.00    -0.005 Br
ENDBRANCH  12  15
ENDBRANCH   2   5
BRANCH   1  24
ATOM     21  C   UNL     1       1.101   2.098   0.017  0.00  0.00    +0.123 A 
ATOM     22  C   UNL     1       2.185   1.482   0.626  0.00  0.00    +0.047 A 
ATOM     23  C   UNL     1       3.423   2.094   0.614  0.00  0.00    +0.029 A 
ATOM     24  C   UNL     1       3.581   3.330   0.001  0.00  0.00    +0.064 A 
ATOM     25  C   UNL     1       2.494   3.948  -0.604  0.00  0.00    +0.151 A 
ATOM     26  C   UNL     1       1.258   3.333  -0.595  0.00  0.00    +0.080 A 
BRANCH  25  27
ATOM     27  N   UNL     1       2.662   5.266  -1.256  0.00  0.00    +0.058 N 
ATOM     28  O   UNL     1       1.732   5.766  -1.864  0.00  0.00    -0.126 OA
ATOM     29  O   UNL     1       3.728   5.849  -1.186  0.00  0.00    -0.126 OA
ENDBRANCH  25  27
BRANCH  21  30
ATOM     30  O   UNL     1      -0.117   1.493   0.024  0.00  0.00    -0.492 OA
BRANCH  30  32
ATOM     31  C   UNL     1      -1.641  -0.298   0.579  0.00  0.00    +0.048 C 
ATOM     32  C   UNL     1      -0.206   0.223   0.672  0.00  0.00    +0.225 C 
ENDBRANCH  30  32
ENDBRANCH  21  30
ENDBRANCH   1  24
TORSDOF 6
