REMARK  Name = ZINC13065569
REMARK  8 active torsions:
REMARK  status: ('A' for Active; 'I' for Inactive)
REMARK    1  A    between atoms: C_1  and  C_2
REMARK    2  A    between atoms: C_12  and  C_14
REMARK    3  A    between atoms: C_14  and  N_60
REMARK    4  A    between atoms: C_15  and  C_16
REMARK    5  A    between atoms: C_15  and  N_60
REMARK    6  A    between atoms: N_20  and  C_21
REMARK    7  A    between atoms: C_21  and  C_22
REMARK    8  A    between atoms: C_29  and  N_60
REMARK                            x       y       z     vdW  Elec       q    Type
REMARK                         _______ _______ _______ _____ _____    ______ ____
ROOT
ATOM      1  N   UNL     1       3.936   6.328  -1.347  0.00  0.00    +0.389 N 
ATOM      2  H   UNL     1       3.677   5.394  -1.687  0.00  0.00    -0.080 HD
ENDROOT
BRANCH   1   3
ATOM      3  C   UNL     1       3.057   7.331  -1.985  0.00  0.00    -0.068 C 
ATOM      4  C   UNL     1       2.946   7.026  -3.493  0.00  0.00    -0.015 C 
ATOM      5  C   UNL     1       2.892   8.423  -4.160  0.00  0.00    -0.002 C 
ATOM      6  C   UNL     1       3.884   9.249  -3.305  0.00  0.00    -0.002 C 
ATOM      7  C   UNL     1       3.653   8.744  -1.865  0.00  0.00    -0.015 C 
ENDBRANCH   1   3
BRANCH   1   8
ATOM      8  C   UNL     1       3.766   6.369   0.120  0.00  0.00    -0.037 C 
BRANCH   8  20
ATOM      9  C   UNL     1      -2.607   5.401   1.403  0.00  0.00    +0.046 C 
ATOM     10  C   UNL     1      -1.436   4.453   1.410  0.00  0.00    -0.026 A 
ATOM     11  C   UNL     1      -1.623   3.124   1.723  0.00  0.00    +0.005 A 
ATOM     12  C   UNL     1      -0.551   2.242   1.738  0.00  0.00    +0.001 A 
ATOM     13  C   UNL     1       0.709   2.674   1.432  0.00  0.00    +0.010 A 
ATOM     14  C   UNL     1       0.921   4.017   1.107  0.00  0.00    -0.001 A 
ATOM     15  C   UNL     1      -0.162   4.915   1.095  0.00  0.00    +0.052 A 
ATOM     16  N   UNL     1       0.053   6.239   0.773  0.00  0.00    -0.322 N 
ATOM     17  H   UNL     1      -0.695   6.856   0.765  0.00  0.00    +0.169 HD
ATOM     18  C   UNL     1       1.284   6.685   0.470  0.00  0.00    +0.251 A 
ATOM     19  O   UNL     1       1.438   7.862   0.191  0.00  0.00    -0.268 OA
ATOM     20  C   UNL     1       2.404   5.826   0.467  0.00  0.00    +0.001 A 
ATOM     21  C   UNL     1       2.258   4.513   0.774  0.00  0.00    +0.017 A 
ENDBRANCH   8  20
ENDBRANCH   1   8
BRANCH   1  22
ATOM     22  C   UNL     1       5.346   6.595  -1.701  0.00  0.00    +0.001 C 
BRANCH  22  23
ATOM     23  C   UNL     1       5.547   6.283  -3.161  0.00  0.00    +0.135 A 
ATOM     24  N   UNL     1       5.543   7.141  -4.152  0.00  0.00    -0.115 NA
ATOM     25  N   UNL     1       5.749   6.489  -5.244  0.00  0.00    -0.023 NA
ATOM     26  N   UNL     1       5.885   5.237  -4.975  0.00  0.00    -0.044 NA
ATOM     27  N   UNL     1       5.773   5.071  -3.701  0.00  0.00    -0.227 N 
BRANCH  27  28
ATOM     28  C   UNL     1       5.868   3.801  -2.977  0.00  0.00    +0.182 C 
BRANCH  28  29
ATOM     29  C   UNL     1       4.501   3.173  -2.882  0.00  0.00    -0.026 A 
ATOM     30  C   UNL     1       3.686   3.455  -1.802  0.00  0.00    +0.008 A 
ATOM     31  C   UNL     1       2.430   2.884  -1.716  0.00  0.00    +0.038 A 
ATOM     32  C   UNL     1       1.994   2.020  -2.706  0.00  0.00    +0.123 A 
ATOM     33  C   UNL     1       2.814   1.734  -3.784  0.00  0.00    +0.038 A 
ATOM     34  C   UNL     1       4.066   2.311  -3.871  0.00  0.00    +0.008 A 
ATOM     35  F   UNL     1       0.768   1.458  -2.620  0.00  0.00    -0.205 F 
ENDBRANCH  28  29
ENDBRANCH  27  28
ENDBRANCH  22  23
ENDBRANCH   1  22
TORSDOF 7
