REMARK  Name = ZINC02391606
REMARK  3 active torsions:
REMARK  status: ('A' for Active; 'I' for Inactive)
REMARK    1  A    between atoms: C_5  and  C_7
REMARK    2  A    between atoms: N_22  and  C_25
REMARK    3  A    between atoms: C_25  and  C_26
REMARK                            x       y       z     vdW  Elec       q    Type
REMARK                         _______ _______ _______ _____ _____    ______ ____
ROOT
ATOM      1  C   UNL     1      -3.218   2.708   0.005  0.00  0.00    +0.184 A 
ATOM      2  N   UNL     1      -2.347   3.727   0.072  0.00  0.00    -0.200 NA
ATOM      3  C   UNL     1      -1.133   3.256   0.055  0.00  0.00    +0.200 A 
ATOM      4  N   UNL     1      -1.169   1.894  -0.031  0.00  0.00    -0.169 N 
ATOM      5  N   UNL     1      -2.556   1.580  -0.056  0.00  0.00    -0.141 NA
ATOM      6  C   UNL     1      -0.014   1.213  -0.056  0.00  0.00    +0.288 A 
ATOM      7  O   UNL     1       0.002   0.000  -0.127  0.00  0.00    -0.265 OA
ATOM      8  C   UNL     1       1.242   1.999   0.001  0.00  0.00    +0.095 A 
ATOM      9  C   UNL     1       2.553   1.563  -0.013  0.00  0.00    +0.065 C 
ATOM     10  C   UNL     1       3.039   0.172   0.083  0.00  0.00    +0.010 A 
ATOM     11  C   UNL     1       2.396  -1.057   0.209  0.00  0.00    +0.010 A 
ATOM     12  C   UNL     1       3.141  -2.216   0.277  0.00  0.00    +0.001 A 
ATOM     13  C   UNL     1       4.524  -2.156   0.219  0.00  0.00    +0.002 A 
ATOM     14  C   UNL     1       5.172  -0.944   0.086  0.00  0.00    +0.024 A 
ATOM     15  C   UNL     1       4.439   0.235   0.021  0.00  0.00    +0.045 A 
ATOM     16  N   UNL     1       4.834   1.563  -0.097  0.00  0.00    -0.258 N 
ATOM     17  C   UNL     1       3.774   2.389  -0.122  0.00  0.00    +0.253 C 
ATOM     18  O   UNL     1       3.813   3.601  -0.218  0.00  0.00    -0.270 OA
ATOM     19  S   UNL     1       0.597   3.663   0.093  0.00  0.00    -0.044 S 
ENDROOT
BRANCH   1  24
ATOM     20  C   UNL     1      -6.662   4.216   0.067  0.00  0.00    +0.001 A 
ATOM     21  C   UNL     1      -7.454   3.084  -0.006  0.00  0.00    +0.001 A 
ATOM     22  C   UNL     1      -6.875   1.830  -0.075  0.00  0.00    +0.016 A 
ATOM     23  C   UNL     1      -5.499   1.702  -0.072  0.00  0.00    +0.029 A 
ATOM     24  C   UNL     1      -4.696   2.839   0.001  0.00  0.00    +0.035 A 
ATOM     25  C   UNL     1      -5.287   4.099   0.076  0.00  0.00    +0.013 A 
ATOM     26 BR   UNL     1      -4.708  -0.013  -0.165  0.00  0.00    -0.050 Br
ENDBRANCH   1  24
BRANCH  16  27
ATOM     27  C   UNL     1       6.228   2.006  -0.182  0.00  0.00    +0.209 C 
BRANCH  27  28
ATOM     28  C   UNL     1       6.757   2.268   1.205  0.00  0.00    +0.228 C 
ATOM     29  O   UNL     1       6.040   2.101   2.169  0.00  0.00    -0.274 OA
ATOM     30  N   UNL     1       8.027   2.687   1.373  0.00  0.00    -0.328 N 
ATOM     31  H   UNL     1       8.600   2.820   0.602  0.00  0.00    +0.145 HD
ATOM     32  H   UNL     1       8.367   2.856   2.265  0.00  0.00    +0.145 HD
ENDBRANCH  27  28
ENDBRANCH  16  27
TORSDOF 3
