REMARK  Name = ZINC39931431
REMARK  11 active torsions:
REMARK  status: ('A' for Active; 'I' for Inactive)
REMARK    1  A    between atoms: C_1  and  C_2
REMARK    2  A    between atoms: C_2  and  C_4
REMARK    3  A    between atoms: C_2  and  C_15
REMARK    4  A    between atoms: C_4  and  C_5
REMARK    5  A    between atoms: C_5  and  C_6
REMARK    6  A    between atoms: C_21  and  C_45
REMARK    7  A    between atoms: C_32  and  C_44
REMARK    8  A    between atoms: C_35  and  O_38
REMARK    9  A    between atoms: O_38  and  C_39
REMARK   10  A    between atoms: C_39  and  C_40
REMARK   11  A    between atoms: C_40  and  C_41
REMARK                            x       y       z     vdW  Elec       q    Type
REMARK                         _______ _______ _______ _____ _____    ______ ____
ROOT
ATOM      1  C   UNL     1       0.687  -0.324  -1.372  0.00  0.00    -0.002 C 
ATOM      2  C   UNL     1       2.220  -0.087  -1.390  0.00  0.00    +0.004 C 
ATOM      3  C   UNL     1       2.857  -1.384  -1.969  0.00  0.00    +0.004 C 
ATOM      4  C   UNL     1       1.658  -2.034  -2.679  0.00  0.00    -0.001 C 
ATOM      5  C   UNL     1       0.546  -1.842  -1.625  0.00  0.00    -0.026 C 
ATOM      6  C   UNL     1      -0.784  -2.276  -2.174  0.00  0.00    +0.007 C 
ATOM      7  C   UNL     1      -0.697  -3.628  -2.895  0.00  0.00    +0.005 C 
ATOM      8  C   UNL     1       0.633  -4.327  -2.685  0.00  0.00    -0.001 C 
ATOM      9  C   UNL     1       1.805  -3.451  -3.127  0.00  0.00    -0.004 C 
ATOM     10  C   UNL     1       3.104  -4.113  -2.666  0.00  0.00    +0.004 C 
ATOM     11  C   UNL     1       3.229  -5.448  -3.411  0.00  0.00    +0.004 C 
ATOM     12  C   UNL     1       2.037  -6.346  -3.089  0.00  0.00    -0.002 C 
ATOM     13  C   UNL     1       0.710  -5.667  -3.433  0.00  0.00    -0.026 C 
ATOM     14  C   UNL     1       0.594  -5.446  -4.935  0.00  0.00    +0.010 C 
ATOM     15  C   UNL     1       0.736  -6.767  -5.690  0.00  0.00    +0.032 C 
ATOM     16  C   UNL     1       2.077  -7.418  -5.356  0.00  0.00    +0.119 C 
ATOM     17  C   UNL     1       2.179  -7.663  -3.852  0.00  0.00    +0.035 C 
ATOM     18  C   UNL     1      -0.443  -6.557  -2.948  0.00  0.00    +0.012 C 
ATOM     19  C   UNL     1       0.857  -2.534  -0.298  0.00  0.00    +0.012 C 
ENDROOT
BRANCH   1  21
ATOM     20  C   UNL     1       0.387   1.501   0.304  0.00  0.00    +0.008 C 
ATOM     21  C   UNL     1       0.106   0.029  -0.006  0.00  0.00    -0.010 C 
BRANCH  21  22
ATOM     22  C   UNL     1      -1.405  -0.210  -0.018  0.00  0.00    +0.013 C 
BRANCH  22  23
ATOM     23  C   UNL     1      -1.984   0.115   1.361  0.00  0.00    +0.096 C 
BRANCH  23  24
ATOM     24  C   UNL     1      -3.472  -0.120   1.349  0.00  0.00    +0.197 A 
ATOM     25  N   UNL     1      -4.049  -1.244   1.653  0.00  0.00    -0.213 NA
ATOM     26  C   UNL     1      -5.396  -1.092   1.534  0.00  0.00    +0.110 A 
ATOM     27  C   UNL     1      -6.485  -1.943   1.728  0.00  0.00    +0.031 A 
ATOM     28  C   UNL     1      -7.763  -1.475   1.520  0.00  0.00    +0.002 A 
ATOM     29  C   UNL     1      -7.974  -0.165   1.117  0.00  0.00    +0.004 A 
ATOM     30  C   UNL     1      -6.907   0.687   0.921  0.00  0.00    +0.048 A 
ATOM     31  C   UNL     1      -5.613   0.233   1.128  0.00  0.00    +0.155 A 
ATOM     32  O   UNL     1      -4.392   0.803   1.030  0.00  0.00    -0.440 OA
ENDBRANCH  23  24
ENDBRANCH  22  23
ENDBRANCH  21  22
ENDBRANCH   1  21
BRANCH  16  33
ATOM     33  O   UNL     1       2.182  -8.667  -6.048  0.00  0.00    -0.376 OA
BRANCH  33  34
ATOM     34  C   UNL     1       2.774  -8.565  -7.345  0.00  0.00    +0.171 C 
BRANCH  34  35
ATOM     35  C   UNL     1       2.835  -9.952  -7.987  0.00  0.00    +0.153 C 
BRANCH  35  36
ATOM     36  C   UNL     1       3.458  -9.845  -9.355  0.00  0.00    +0.358 C 
ATOM     37  O   UNL     1       3.820  -8.760  -9.777  0.00  0.00    -0.246 OA
ATOM     38  O   UNL     1       3.601 -10.844 -10.040  0.00  0.00    -0.246 OA
ENDBRANCH  35  36
ENDBRANCH  34  35
ENDBRANCH  33  34
ENDBRANCH  16  33
TORSDOF 8
