REMARK  Name = ZINC34829563
REMARK  13 active torsions:
REMARK  status: ('A' for Active; 'I' for Inactive)
REMARK    1  A    between atoms: C_1  and  C_2
REMARK    2  A    between atoms: C_2  and  C_3
REMARK    3  A    between atoms: C_3  and  N_4
REMARK    4  A    between atoms: N_4  and  C_5
REMARK    5  A    between atoms: N_4  and  S_26
REMARK    6  A    between atoms: C_5  and  C_6
REMARK    7  A    between atoms: C_7  and  C_25
REMARK    8  A    between atoms: N_9  and  C_19
REMARK    9  A    between atoms: C_10  and  N_11
REMARK   10  A    between atoms: N_14  and  C_17
REMARK   11  A    between atoms: C_17  and  C_18
REMARK   12  A    between atoms: S_26  and  C_29
REMARK   13  A    between atoms: C_32  and  C_35
REMARK                            x       y       z     vdW  Elec       q    Type
REMARK                         _______ _______ _______ _____ _____    ______ ____
ROOT
ATOM      1  C   UNL     1      -2.830  -2.719   2.209  0.00  0.00    +0.031 A 
ATOM      2  C   UNL     1      -3.349  -1.515   2.696  0.00  0.00    +0.067 A 
ATOM      3  N   UNL     1      -4.655  -1.570   2.632  0.00  0.00    -0.170 NA
ATOM      4  N   UNL     1      -5.021  -2.813   2.100  0.00  0.00    -0.218 N 
ATOM      5  C   UNL     1      -3.879  -3.506   1.840  0.00  0.00    +0.129 A 
ATOM      6  C   UNL     1      -2.540  -0.352   3.210  0.00  0.00    +0.068 C 
ENDROOT
BRANCH   5   7
ATOM      7  N   UNL     1      -3.797  -4.786   1.299  0.00  0.00    -0.318 N 
ATOM      8  C   UNL     1      -3.608  -5.961   2.163  0.00  0.00    +0.088 C 
ATOM      9  C   UNL     1      -4.665  -7.008   1.796  0.00  0.00    -0.060 C 
ATOM     10  N   UNL     1      -4.590  -7.295   0.358  0.00  0.00    +0.382 N 
ATOM     11  C   UNL     1      -4.941  -6.094  -0.410  0.00  0.00    -0.060 C 
ATOM     12  C   UNL     1      -3.904  -5.002  -0.152  0.00  0.00    +0.088 C 
ATOM     13  H   UNL     1      -3.652  -7.582   0.122  0.00  0.00    -0.082 HD
BRANCH  10  14
ATOM     14  C   UNL     1      -5.527  -8.377   0.026  0.00  0.00    -0.082 C 
ATOM     15  C   UNL     1      -5.361  -8.762  -1.445  0.00  0.00    -0.017 C 
ENDBRANCH  10  14
ENDBRANCH   5   7
BRANCH   4  16
ATOM     16  C   UNL     1      -6.329  -3.260   1.871  0.00  0.00    +0.067 A 
ATOM     17  C   UNL     1      -6.711  -3.673   0.602  0.00  0.00    +0.028 A 
ATOM     18  C   UNL     1      -8.001  -4.114   0.379  0.00  0.00    +0.002 A 
ATOM     19  C   UNL     1      -8.911  -4.145   1.419  0.00  0.00    +0.000 A 
ATOM     20  C   UNL     1      -8.534  -3.734   2.685  0.00  0.00    +0.002 A 
ATOM     21  C   UNL     1      -7.244  -3.298   2.915  0.00  0.00    +0.028 A 
ENDBRANCH   4  16
BRANCH   1  22
ATOM     22  C   UNL     1      -1.371  -3.079   2.105  0.00  0.00    +0.149 C 
BRANCH  22  23
ATOM     23  N   UNL     1      -0.821  -2.532   0.862  0.00  0.00    -0.172 NA
BRANCH  23  24
ATOM     24  S   UNL     1      -0.280  -3.554  -0.324  0.00  0.00    +0.061 S 
ATOM     25  O   UNL     1      -0.836  -4.832  -0.044  0.00  0.00    -0.153 OA
ATOM     26  O   UNL     1      -0.488  -2.887  -1.561  0.00  0.00    -0.153 OA
BRANCH  24  27
ATOM     27  C   UNL     1       1.464  -3.709  -0.122  0.00  0.00    +0.106 A 
ATOM     28  C   UNL     1       2.315  -2.832  -0.768  0.00  0.00    +0.029 A 
ATOM     29  C   UNL     1       3.683  -2.953  -0.610  0.00  0.00    +0.005 A 
ATOM     30  C   UNL     1       4.200  -3.952   0.194  0.00  0.00    -0.050 A 
ATOM     31  C   UNL     1       3.349  -4.829   0.841  0.00  0.00    +0.005 A 
ATOM     32  C   UNL     1       1.980  -4.704   0.686  0.00  0.00    +0.029 A 
ATOM     33  C   UNL     1       5.691  -4.085   0.366  0.00  0.00    +0.044 C 
ENDBRANCH  24  27
ENDBRANCH  23  24
BRANCH  23  34
ATOM     34  C   UNL     1      -0.750  -1.082   0.667  0.00  0.00    +0.109 C 
BRANCH  34  36
ATOM     35  C   UNL     1       0.611   0.969   1.097  0.00  0.00    +0.005 C 
ATOM     36  C   UNL     1       0.536  -0.545   1.300  0.00  0.00    +0.014 C 
ENDBRANCH  34  36
ENDBRANCH  23  34
ENDBRANCH  22  23
ENDBRANCH   1  22
TORSDOF 9
