REMARK  Name = ZINC55369086
REMARK  9 active torsions:
REMARK  status: ('A' for Active; 'I' for Inactive)
REMARK    1  A    between atoms: C_1  and  C_2
REMARK    2  A    between atoms: C_2  and  C_3
REMARK    3  A    between atoms: C_2  and  C_4
REMARK    4  A    between atoms: C_2  and  N_24
REMARK    5  A    between atoms: C_4  and  N_5
REMARK    6  A    between atoms: C_6  and  C_8
REMARK    7  A    between atoms: C_8  and  C_9
REMARK    8  A    between atoms: N_16  and  C_17
REMARK    9  A    between atoms: C_17  and  C_18
REMARK                            x       y       z     vdW  Elec       q    Type
REMARK                         _______ _______ _______ _____ _____    ______ ____
ROOT
ATOM      1  C   UNL     1      -4.138  -4.597  -0.309  0.00  0.00    +0.028 C 
ATOM      2  C   UNL     1      -4.728  -3.920  -1.513  0.00  0.00    +0.200 C 
ATOM      3  O   UNL     1      -4.019  -3.725  -2.477  0.00  0.00    -0.278 OA
ATOM      4  N   UNL     1      -6.005  -3.522  -1.565  0.00  0.00    -0.318 N 
ATOM      5  C   UNL     1      -6.927  -3.688  -0.444  0.00  0.00    +0.085 C 
ATOM      6  C   UNL     1      -6.371  -4.720   0.539  0.00  0.00    -0.058 C 
ATOM      7  N   UNL     1      -4.984  -4.358   0.867  0.00  0.00    +0.391 N 
ATOM      8  H   UNL     1      -6.331  -3.107  -2.378  0.00  0.00    +0.149 HD
ATOM      9  H   UNL     1      -4.939  -3.383   1.123  0.00  0.00    -0.080 HD
ENDROOT
BRANCH   1  10
ATOM     10  C   UNL     1      -2.737  -4.039  -0.049  0.00  0.00    +0.089 C 
BRANCH  10  12
ATOM     11  N   UNL     1      -1.683  -1.820   0.240  0.00  0.00    -0.317 N 
ATOM     12  C   UNL     1      -2.813  -2.541   0.096  0.00  0.00    +0.212 C 
ATOM     13  O   UNL     1      -3.890  -1.984   0.083  0.00  0.00    -0.276 OA
ATOM     14  H   UNL     1      -0.821  -2.266   0.250  0.00  0.00    +0.149 HD
BRANCH  11  15
ATOM     15  C   UNL     1      -1.756  -0.364   0.380  0.00  0.00    +0.092 C 
BRANCH  15  17
ATOM     16  C   UNL     1      -0.420   1.727   0.674  0.00  0.00    -0.008 C 
ATOM     17  C   UNL     1      -0.343   0.206   0.527  0.00  0.00    -0.055 C 
ATOM     18  C   UNL     1       0.322  -0.393   1.768  0.00  0.00    -0.008 C 
BRANCH  17  19
ATOM     19  N   UNL     1       0.447  -0.132  -0.664  0.00  0.00    +0.384 N 
ATOM     20  C   UNL     1      -0.138   0.513  -1.867  0.00  0.00    -0.078 C 
ATOM     21  C   UNL     1       1.049   0.549  -2.863  0.00  0.00    -0.020 C 
ATOM     22  C   UNL     1       2.258   0.851  -1.948  0.00  0.00    -0.020 C 
ATOM     23  C   UNL     1       1.816   0.413  -0.539  0.00  0.00    -0.078 C 
ATOM     24  H   UNL     1       0.481  -1.133  -0.787  0.00  0.00    -0.081 HD
ENDBRANCH  17  19
ENDBRANCH  15  17
ENDBRANCH  11  15
ENDBRANCH  10  12
ENDBRANCH   1  10
BRANCH   7  25
ATOM     25  C   UNL     1      -4.514  -5.185   1.987  0.00  0.00    -0.042 C 
BRANCH  25  26
ATOM     26  C   UNL     1      -5.288  -4.833   3.231  0.00  0.00    -0.064 A 
ATOM     27  C   UNL     1      -4.831  -3.836   4.071  0.00  0.00    +0.002 A 
ATOM     28  C   UNL     1      -5.541  -3.513   5.212  0.00  0.00    +0.000 A 
ATOM     29  C   UNL     1      -6.710  -4.188   5.513  0.00  0.00    +0.000 A 
ATOM     30  C   UNL     1      -7.168  -5.185   4.672  0.00  0.00    +0.000 A 
ATOM     31  C   UNL     1      -6.460  -5.505   3.529  0.00  0.00    +0.002 A 
ENDBRANCH  25  26
ENDBRANCH   7  25
TORSDOF 7
