REMARK  Name = ZINC52625341
REMARK  7 active torsions:
REMARK  status: ('A' for Active; 'I' for Inactive)
REMARK    1  A    between atoms: C_1  and  C_2
REMARK    2  A    between atoms: C_3  and  N_14
REMARK    3  A    between atoms: C_7  and  N_8
REMARK    4  A    between atoms: C_15  and  C_17
REMARK    5  A    between atoms: N_19  and  C_20
REMARK    6  A    between atoms: C_25  and  C_30
REMARK    7  A    between atoms: C_27  and  C_29
REMARK                            x       y       z     vdW  Elec       q    Type
REMARK                         _______ _______ _______ _____ _____    ______ ____
ROOT
ATOM      1  N   UNL     1      -0.010   0.010  -2.411  0.00  0.00    -0.277 N 
ATOM      2  C   UNL     1       0.095  -0.655  -3.579  0.00  0.00    +0.303 C 
ATOM      3  O   UNL     1       0.112  -1.869  -3.587  0.00  0.00    -0.265 OA
ATOM      4  H   UNL     1      -0.104   0.975  -2.409  0.00  0.00    +0.155 HD
ENDROOT
BRANCH   1   7
ATOM      5  C   UNL     1      -1.264   1.189  -0.146  0.00  0.00    +0.047 C 
ATOM      6  C   UNL     1      -0.583  -0.153  -0.073  0.00  0.00    -0.008 A 
ATOM      7  C   UNL     1       0.017  -0.692  -1.203  0.00  0.00    +0.038 A 
ATOM      8  C   UNL     1       0.643  -1.930  -1.131  0.00  0.00    +0.024 A 
ATOM      9  C   UNL     1       0.669  -2.625   0.063  0.00  0.00    +0.004 A 
ATOM     10  C   UNL     1       0.072  -2.092   1.189  0.00  0.00    +0.024 A 
ATOM     11  C   UNL     1      -0.550  -0.851   1.126  0.00  0.00    +0.041 A 
BRANCH  11  12
ATOM     12  N   UNL     1      -1.149  -0.309   2.268  0.00  0.00    -0.271 N 
ATOM     13  C   UNL     1      -2.545  -0.537   2.659  0.00  0.00    +0.114 C 
ATOM     14  C   UNL     1      -2.628  -0.132   4.148  0.00  0.00    +0.029 C 
ATOM     15  C   UNL     1      -1.464   0.879   4.264  0.00  0.00    +0.098 C 
ATOM     16  C   UNL     1      -0.518   0.483   3.152  0.00  0.00    +0.220 C 
ATOM     17  O   UNL     1       0.641   0.833   3.068  0.00  0.00    -0.275 OA
ENDBRANCH  11  12
ENDBRANCH   1   7
BRANCH   2  18
ATOM     18  C   UNL     1       0.191   0.102  -4.862  0.00  0.00    +0.300 C 
ATOM     19  O   UNL     1       0.174   1.315  -4.854  0.00  0.00    -0.265 OA
ATOM     20  N   UNL     1       0.296  -0.562  -6.030  0.00  0.00    -0.304 N 
ATOM     21  H   UNL     1       0.310  -1.532  -6.037  0.00  0.00    +0.149 HD
BRANCH  20  22
ATOM     22  C   UNL     1       0.390   0.180  -7.290  0.00  0.00    +0.076 C 
ATOM     23  C   UNL     1       1.848   0.566  -7.547  0.00  0.00    +0.022 C 
ATOM     24  C   UNL     1       1.946   1.341  -8.862  0.00  0.00    +0.002 C 
ATOM     25  C   UNL     1       1.441   0.465 -10.010  0.00  0.00    +0.003 C 
ATOM     26  C   UNL     1      -0.017   0.079  -9.753  0.00  0.00    -0.009 C 
ATOM     27  C   UNL     1      -0.115  -0.697  -8.437  0.00  0.00    +0.009 C 
ATOM     28  C   UNL     1      -1.573  -1.083  -8.181  0.00  0.00    +0.009 C 
ATOM     29  C   UNL     1      -0.522  -0.798 -10.900  0.00  0.00    +0.008 C 
ENDBRANCH  20  22
ENDBRANCH   2  18
TORSDOF 4
