REMARK  Name = ZINC09211142
REMARK  6 active torsions:
REMARK  status: ('A' for Active; 'I' for Inactive)
REMARK    1  A    between atoms: C_1  and  C_2
REMARK    2  A    between atoms: C_5  and  C_8
REMARK    3  A    between atoms: C_8  and  N_76
REMARK    4  A    between atoms: C_11  and  C_14
REMARK    5  A    between atoms: C_14  and  N_15
REMARK    6  A    between atoms: C_16  and  C_18
REMARK                            x       y       z     vdW  Elec       q    Type
REMARK                         _______ _______ _______ _____ _____    ______ ____
ROOT
ATOM      1  C   UNL     1       2.462   0.920  -0.017  0.00  0.00    +0.092 C 
ATOM      2  C   UNL     1       2.570   0.037   1.230  0.00  0.00    +0.016 C 
ATOM      3  C   UNL     1       3.933  -0.660   1.236  0.00  0.00    +0.020 C 
ATOM      4  C   UNL     1       5.040   0.396   1.194  0.00  0.00    +0.106 C 
ATOM      5  N   UNL     1       4.894   1.213  -0.017  0.00  0.00    -0.313 N 
ATOM      6  C   UNL     1       3.612   1.929  -0.022  0.00  0.00    +0.119 C 
ATOM      7  C   UNL     1       5.954   2.092  -0.153  0.00  0.00    +0.152 A 
ATOM      8  C   UNL     1       7.279   1.623  -0.174  0.00  0.00    +0.148 A 
ATOM      9  C   UNL     1       8.313   2.564  -0.314  0.00  0.00    +0.166 A 
ATOM     10  N   UNL     1       8.004   3.853  -0.422  0.00  0.00    -0.216 NA
ATOM     11  C   UNL     1       6.748   4.246  -0.398  0.00  0.00    +0.225 A 
ATOM     12  N   UNL     1       5.743   3.399  -0.273  0.00  0.00    -0.218 NA
ATOM     13  N   UNL     1       9.481   1.846  -0.299  0.00  0.00    -0.312 N 
ATOM     14  C   UNL     1       9.154   0.528  -0.165  0.00  0.00    +0.112 A 
ATOM     15  N   UNL     1       7.859   0.403  -0.087  0.00  0.00    -0.227 NA
ATOM     16  C   UNL     1      10.145  -0.611  -0.123  0.00  0.00    +0.074 C 
ATOM     17  C   UNL     1      11.280  -0.258   0.841  0.00  0.00    +0.008 C 
ATOM     18  C   UNL     1      12.376   0.489   0.089  0.00  0.00    +0.002 C 
ATOM     19  C   UNL     1      11.770   1.354  -1.016  0.00  0.00    +0.022 C 
ATOM     20  C   UNL     1      10.836   2.396  -0.398  0.00  0.00    +0.125 C 
ENDROOT
BRANCH   1  22
ATOM     21  N   UNL     1      -0.011   0.966   0.007  0.00  0.00    -0.315 N 
ATOM     22  C   UNL     1       1.147   1.655   0.000  0.00  0.00    +0.218 C 
ATOM     23  O   UNL     1       1.130   2.868   0.007  0.00  0.00    -0.275 OA
ATOM     24  H   UNL     1       0.002  -0.004   0.002  0.00  0.00    +0.149 HD
BRANCH  21  25
ATOM     25  C   UNL     1      -1.290   1.681   0.017  0.00  0.00    +0.105 C 
BRANCH  25  28
ATOM     26  C   UNL     1      -3.819   0.196   1.984  0.00  0.00    -0.078 C 
ATOM     27  C   UNL     1      -2.454  -0.124   1.339  0.00  0.00    -0.015 C 
ATOM     28  C   UNL     1      -2.439   0.671   0.017  0.00  0.00    -0.012 C 
ATOM     29  C   UNL     1      -3.797   1.404  -0.025  0.00  0.00    -0.073 C 
ATOM     30  N   UNL     1      -4.651   0.597   0.844  0.00  0.00    +0.383 N 
ATOM     31  H   UNL     1      -4.979  -0.234   0.338  0.00  0.00    -0.081 HD
BRANCH  30  32
ATOM     32  C   UNL     1      -5.833   1.387   1.310  0.00  0.00    -0.043 C 
BRANCH  32  37
ATOM     33  C   UNL     1      -3.994   6.564   3.104  0.00  0.00    +0.044 C 
ATOM     34  C   UNL     1      -4.474   5.214   2.636  0.00  0.00    -0.050 A 
ATOM     35  C   UNL     1      -4.840   5.030   1.316  0.00  0.00    +0.003 A 
ATOM     36  C   UNL     1      -5.280   3.792   0.887  0.00  0.00    +0.002 A 
ATOM     37  C   UNL     1      -5.353   2.737   1.778  0.00  0.00    -0.064 A 
ATOM     38  C   UNL     1      -4.992   2.922   3.099  0.00  0.00    +0.002 A 
ATOM     39  C   UNL     1      -4.547   4.159   3.527  0.00  0.00    +0.003 A 
ENDBRANCH  32  37
ENDBRANCH  30  32
ENDBRANCH  25  28
ENDBRANCH  21  25
ENDBRANCH   1  22
TORSDOF 5
