REMARK  Name = ZINC64438412
REMARK  5 active torsions:
REMARK  status: ('A' for Active; 'I' for Inactive)
REMARK    1  A    between atoms: C_3  and  C_8
REMARK    2  A    between atoms: C_11  and  C_14
REMARK    3  A    between atoms: C_14  and  C_15
REMARK    4  A    between atoms: C_15  and  C_16
REMARK    5  A    between atoms: C_16  and  N_17
REMARK                            x       y       z     vdW  Elec       q    Type
REMARK                         _______ _______ _______ _____ _____    ______ ____
ROOT
ATOM      1  C   UNL     1       8.639   3.711  -2.536  0.00  0.00    +0.130 C 
ENDROOT
BRANCH   1   2
ATOM      2  N   UNL     1       9.630   4.789  -2.496  0.00  0.00    -0.261 N 
ATOM      3  C   UNL     1       9.316   5.997  -3.013  0.00  0.00    +0.264 A 
ATOM      4  O   UNL     1       8.223   6.196  -3.510  0.00  0.00    -0.267 OA
ATOM      5  C   UNL     1      10.327   7.064  -2.961  0.00  0.00    +0.067 A 
ATOM      6  C   UNL     1      10.076   8.336  -3.476  0.00  0.00    +0.065 A 
ATOM      7  C   UNL     1      11.055   9.306  -3.406  0.00  0.00    +0.167 A 
ATOM      8  C   UNL     1      12.292   9.017  -2.821  0.00  0.00    +0.168 A 
ATOM      9  C   UNL     1      12.546   7.755  -2.308  0.00  0.00    +0.076 A 
ATOM     10  C   UNL     1      11.572   6.774  -2.374  0.00  0.00    +0.059 A 
ATOM     11  N   UNL     1      11.791   5.497  -1.871  0.00  0.00    -0.307 N 
ATOM     12  H   UNL     1      12.644   5.282  -1.463  0.00  0.00    +0.170 HD
ATOM     13  C   UNL     1      10.830   4.560  -1.940  0.00  0.00    +0.330 A 
ATOM     14  O   UNL     1      11.059   3.456  -1.485  0.00  0.00    -0.246 OA
ATOM     15  O   UNL     1      13.071  10.135  -2.878  0.00  0.00    -0.453 OA
ATOM     16  C   UNL     1      12.456  10.984  -3.865  0.00  0.00    +0.466 C 
ATOM     17  O   UNL     1      11.067  10.606  -3.826  0.00  0.00    -0.453 OA
ENDBRANCH   1   2
BRANCH   1  18
ATOM     18  C   UNL     1       7.783   3.758  -1.269  0.00  0.00    +0.027 C 
BRANCH  18  19
ATOM     19  C   UNL     1       6.748   2.632  -1.311  0.00  0.00    +0.069 C 
BRANCH  19  23
ATOM     20  C   UNL     1       3.658   2.163  -0.022  0.00  0.00    +0.168 C 
ATOM     21  N   UNL     1       3.742   3.453  -0.011  0.00  0.00    -0.067 NA
ATOM     22  O   UNL     1       5.093   3.872  -0.023  0.00  0.00    -0.369 OA
ATOM     23  C   UNL     1       5.891   2.679  -0.044  0.00  0.00    +0.292 C 
ATOM     24  N   UNL     1       4.912   1.581  -0.037  0.00  0.00    -0.289 N 
ATOM     25  H   UNL     1       5.108   0.631  -0.043  0.00  0.00    +0.151 HD
BRANCH  20  28
ATOM     26  C   UNL     1      -0.017   1.379   0.010  0.00  0.00    +0.002 A 
ATOM     27  C   UNL     1       1.167   2.088   0.002  0.00  0.00    +0.011 A 
ATOM     28  C   UNL     1       2.385   1.408  -0.013  0.00  0.00    +0.019 A 
ATOM     29  C   UNL     1       2.398   0.013  -0.021  0.00  0.00    +0.026 A 
ATOM     30  C   UNL     1       1.207  -0.685  -0.013  0.00  0.00    +0.019 A 
ATOM     31  C   UNL     1       0.002  -0.004   0.002  0.00  0.00    +0.015 A 
ATOM     32 BR   UNL     1       1.222  -2.576  -0.023  0.00  0.00    -0.050 Br
ENDBRANCH  20  28
ENDBRANCH  19  23
ENDBRANCH  18  19
ENDBRANCH   1  18
TORSDOF 5
