REMARK  Name = ZINC13213606
REMARK  8 active torsions:
REMARK  status: ('A' for Active; 'I' for Inactive)
REMARK    1  A    between atoms: C_1  and  O_2
REMARK    2  A    between atoms: O_2  and  C_3
REMARK    3  A    between atoms: C_8  and  C_9
REMARK    4  A    between atoms: C_9  and  C_11
REMARK    5  A    between atoms: N_15  and  C_27
REMARK    6  A    between atoms: C_16  and  C_18
REMARK    7  A    between atoms: C_23  and  N_24
REMARK    8  A    between atoms: C_31  and  C_33
REMARK                            x       y       z     vdW  Elec       q    Type
REMARK                         _______ _______ _______ _____ _____    ______ ____
ROOT
ATOM      1  C   UNL     1       0.115  -4.519   0.050  0.00  0.00    +0.077 C 
ATOM      2  C   UNL     1      -0.428  -5.475   0.841  0.00  0.00    +0.250 C 
ATOM      3  C   UNL     1      -0.152  -6.803   0.258  0.00  0.00    +0.292 C 
ATOM      4  O   UNL     1      -0.509  -7.862   0.734  0.00  0.00    -0.266 OA
ATOM      5  N   UNL     1       0.554  -6.668  -0.880  0.00  0.00    -0.253 N 
ATOM      6  C   UNL     1       0.773  -5.234  -1.107  0.00  0.00    +0.152 C 
ATOM      7  O   UNL     1      -1.115  -5.248   1.984  0.00  0.00    -0.282 OA
ENDROOT
BRANCH   6   8
ATOM      8  C   UNL     1       2.250  -4.936  -1.127  0.00  0.00    +0.008 A 
ATOM      9  C   UNL     1       3.139  -5.805  -0.524  0.00  0.00    +0.008 A 
ATOM     10  C   UNL     1       4.494  -5.532  -0.542  0.00  0.00    +0.000 A 
ATOM     11  C   UNL     1       4.960  -4.388  -1.165  0.00  0.00    +0.002 A 
ATOM     12  C   UNL     1       4.071  -3.519  -1.769  0.00  0.00    +0.033 A 
ATOM     13  C   UNL     1       2.716  -3.795  -1.754  0.00  0.00    +0.131 A 
BRANCH  13  14
ATOM     14  N   UNL     1       1.764  -2.867  -2.405  0.00  0.00    +0.057 N 
ATOM     15  O   UNL     1       2.165  -1.839  -2.899  0.00  0.00    -0.126 OA
ATOM     16  O   UNL     1       0.587  -3.138  -2.443  0.00  0.00    -0.126 OA
ENDBRANCH  13  14
ENDBRANCH   6   8
BRANCH   5  17
ATOM     17  C   UNL     1       0.995  -7.707  -1.703  0.00  0.00    +0.038 A 
ATOM     18  C   UNL     1       1.724  -7.423  -2.853  0.00  0.00    +0.023 A 
ATOM     19  C   UNL     1       2.163  -8.447  -3.670  0.00  0.00    +0.003 A 
ATOM     20  C   UNL     1       1.881  -9.760  -3.352  0.00  0.00    +0.015 A 
ATOM     21  C   UNL     1       1.150 -10.057  -2.200  0.00  0.00    +0.065 A 
ATOM     22  C   UNL     1       0.711  -9.023  -1.371  0.00  0.00    +0.038 A 
BRANCH  21  23
ATOM     23  C   UNL     1       0.846 -11.460  -1.857  0.00  0.00    +0.387 C 
ATOM     24  O   UNL     1       1.235 -12.365  -2.582  0.00  0.00    -0.241 OA
ATOM     25  O   UNL     1       0.206 -11.718  -0.847  0.00  0.00    -0.241 OA
ENDBRANCH  21  23
ENDBRANCH   5  17
BRANCH   1  26
ATOM     26  C   UNL     1       0.067  -3.071   0.271  0.00  0.00    +0.199 C 
ATOM     27  O   UNL     1       1.052  -2.485   0.680  0.00  0.00    -0.287 OA
BRANCH  26  33
ATOM     28  C   UNL     1      -1.263  -0.960   0.317  0.00  0.00    +0.131 A 
ATOM     29  C   UNL     1      -2.433  -0.266   0.048  0.00  0.00    +0.046 A 
ATOM     30  C   UNL     1      -3.507  -0.916  -0.527  0.00  0.00    +0.004 A 
ATOM     31  C   UNL     1      -3.426  -2.264  -0.841  0.00  0.00    +0.001 A 
ATOM     32  C   UNL     1      -2.272  -2.969  -0.581  0.00  0.00    +0.015 A 
ATOM     33  C   UNL     1      -1.175  -2.323  -0.004  0.00  0.00    +0.064 A 
BRANCH  28  35
ATOM     34  C   UNL     1      -0.371   1.065   1.180  0.00  0.00    +0.277 C 
ATOM     35  O   UNL     1      -0.207  -0.323   0.881  0.00  0.00    -0.494 OA
ENDBRANCH  28  35
ENDBRANCH  26  33
ENDBRANCH   1  26
TORSDOF 7
