REMARK  Name = ZINC09292280
REMARK  9 active torsions:
REMARK  status: ('A' for Active; 'I' for Inactive)
REMARK    1  A    between atoms: C_1  and  C_2
REMARK    2  A    between atoms: C_2  and  C_3
REMARK    3  A    between atoms: C_2  and  C_4
REMARK    4  A    between atoms: C_7  and  C_10
REMARK    5  A    between atoms: C_21  and  C_23
REMARK    6  A    between atoms: C_26  and  O_31
REMARK    7  A    between atoms: C_27  and  O_29
REMARK    8  A    between atoms: O_29  and  C_30
REMARK    9  A    between atoms: O_31  and  C_32
REMARK                            x       y       z     vdW  Elec       q    Type
REMARK                         _______ _______ _______ _____ _____    ______ ____
ROOT
ATOM      1  C   UNL     1      -5.779  -2.714   0.208  0.00  0.00    +0.159 C 
ATOM      2  C   UNL     1      -5.493  -4.063   0.829  0.00  0.00    +0.027 C 
ATOM      3  C   UNL     1      -5.940  -5.163   0.190  0.00  0.00    +0.083 C 
ATOM      4  C   UNL     1      -5.660  -6.480   0.817  0.00  0.00    +0.042 A 
ATOM      5  C   UNL     1      -5.787  -7.664   0.103  0.00  0.00    +0.013 A 
ATOM      6  C   UNL     1      -5.514  -8.868   0.725  0.00  0.00    +0.001 A 
ATOM      7  C   UNL     1      -5.117  -8.893   2.050  0.00  0.00    +0.004 A 
ATOM      8  C   UNL     1      -4.989  -7.718   2.768  0.00  0.00    +0.046 A 
ATOM      9  C   UNL     1      -5.260  -6.505   2.159  0.00  0.00    +0.131 A 
ATOM     10  O   UNL     1      -5.149  -5.338   2.841  0.00  0.00    -0.479 OA
ATOM     11  C   UNL     1      -4.726  -4.183   2.113  0.00  0.00    +0.234 C 
ATOM     12  N   UNL     1      -6.621  -5.077  -0.979  0.00  0.00    -0.213 NA
ATOM     13  C   UNL     1      -6.911  -3.949  -1.585  0.00  0.00    +0.237 C 
ATOM     14  N   UNL     1      -6.525  -2.737  -1.056  0.00  0.00    -0.208 N 
ATOM     15  N   UNL     1      -6.985  -1.755  -1.936  0.00  0.00    -0.251 N 
ATOM     16  C   UNL     1      -7.617  -2.410  -2.949  0.00  0.00    +0.203 C 
ATOM     17  N   UNL     1      -7.571  -3.687  -2.735  0.00  0.00    -0.205 NA
ATOM     18  H   UNL     1      -6.875  -0.796  -1.844  0.00  0.00    +0.171 HD
ENDROOT
BRANCH   1  22
ATOM     19  C   UNL     1      -2.052  -0.743  -0.482  0.00  0.00    -0.045 A 
ATOM     20  C   UNL     1      -2.475  -1.742  -1.340  0.00  0.00    +0.004 A 
ATOM     21  C   UNL     1      -3.681  -2.379  -1.116  0.00  0.00    +0.006 A 
ATOM     22  C   UNL     1      -4.464  -2.019  -0.035  0.00  0.00    -0.021 A 
ATOM     23  C   UNL     1      -4.040  -1.021   0.823  0.00  0.00    +0.006 A 
ATOM     24  C   UNL     1      -2.833  -0.387   0.602  0.00  0.00    +0.004 A 
BRANCH  19  26
ATOM     25  C   UNL     1       0.383  -1.087  -0.796  0.00  0.00    +0.012 C 
ATOM     26  C   UNL     1      -0.738  -0.048  -0.726  0.00  0.00    +0.013 C 
ATOM     27  C   UNL     1      -0.804   0.720  -2.047  0.00  0.00    +0.012 C 
ENDBRANCH  19  26
ENDBRANCH   1  22
BRANCH  11  28
ATOM     28  C   UNL     1      -3.255  -4.299   1.806  0.00  0.00    +0.001 A 
ATOM     29  C   UNL     1      -2.786  -5.373   1.073  0.00  0.00    +0.011 A 
ATOM     30  C   UNL     1      -1.438  -5.484   0.789  0.00  0.00    +0.050 A 
ATOM     31  C   UNL     1      -0.553  -4.518   1.239  0.00  0.00    +0.162 A 
ATOM     32  C   UNL     1      -1.025  -3.437   1.977  0.00  0.00    +0.162 A 
ATOM     33  C   UNL     1      -2.378  -3.329   2.254  0.00  0.00    +0.057 A 
BRANCH  32  34
ATOM     34  O   UNL     1      -0.160  -2.485   2.421  0.00  0.00    -0.491 OA
ATOM     35  C   UNL     1      -0.726  -1.354   3.086  0.00  0.00    +0.277 C 
ENDBRANCH  32  34
BRANCH  31  36
ATOM     36  O   UNL     1       0.774  -4.626   0.960  0.00  0.00    -0.491 OA
ATOM     37  C   UNL     1       1.186  -5.763   0.199  0.00  0.00    +0.277 C 
ENDBRANCH  31  36
ENDBRANCH  11  28
TORSDOF 5
