REMARK  Name = ZINC38687460
REMARK  12 active torsions:
REMARK  status: ('A' for Active; 'I' for Inactive)
REMARK    1  A    between atoms: C_1  and  C_2
REMARK    2  A    between atoms: C_2  and  O_3
REMARK    3  A    between atoms: O_3  and  C_4
REMARK    4  A    between atoms: C_9  and  C_10
REMARK    5  A    between atoms: C_15  and  O_24
REMARK    6  A    between atoms: C_19  and  N_23
REMARK    7  A    between atoms: C_20  and  C_21
REMARK    8  A    between atoms: O_24  and  C_25
REMARK    9  A    between atoms: C_25  and  C_27
REMARK   10  A    between atoms: C_28  and  C_38
REMARK   11  A    between atoms: C_30  and  C_37
REMARK   12  A    between atoms: C_32  and  C_36
REMARK                            x       y       z     vdW  Elec       q    Type
REMARK                         _______ _______ _______ _____ _____    ______ ____
ROOT
ATOM      1  C   UNL     1      -3.769  -1.449  -0.053  0.00  0.00    +0.101 C 
ATOM      2  C   UNL     1      -4.622  -1.710  -1.266  0.00  0.00    +0.008 A 
ATOM      3  C   UNL     1      -4.252  -1.174  -2.487  0.00  0.00    +0.012 A 
ATOM      4  C   UNL     1      -5.022  -1.402  -3.610  0.00  0.00    +0.047 A 
ATOM      5  C   UNL     1      -6.174  -2.171  -3.516  0.00  0.00    +0.136 A 
ATOM      6  C   UNL     1      -6.547  -2.710  -2.296  0.00  0.00    +0.093 A 
ATOM      7  C   UNL     1      -5.771  -2.480  -1.167  0.00  0.00    +0.138 A 
ATOM      8  O   UNL     1      -6.150  -3.013   0.020  0.00  0.00    -0.441 OA
ATOM      9  C   UNL     1      -5.665  -2.509   1.167  0.00  0.00    +0.199 C 
ATOM     10  C   UNL     1      -4.540  -1.761   1.198  0.00  0.00    +0.098 C 
ENDROOT
BRANCH   1  16
ATOM     11  C   UNL     1      -1.280  -1.740  -0.140  0.00  0.00    +0.125 A 
ATOM     12  C   UNL     1      -0.150  -2.545  -0.189  0.00  0.00    +0.046 A 
ATOM     13  C   UNL     1      -0.283  -3.919  -0.213  0.00  0.00    +0.004 A 
ATOM     14  C   UNL     1      -1.540  -4.494  -0.189  0.00  0.00    +0.001 A 
ATOM     15  C   UNL     1      -2.667  -3.695  -0.142  0.00  0.00    +0.008 A 
ATOM     16  C   UNL     1      -2.540  -2.320  -0.112  0.00  0.00    +0.007 A 
BRANCH  11  17
ATOM     17  O   UNL     1      -1.152  -0.388  -0.116  0.00  0.00    -0.492 OA
BRANCH  17  19
ATOM     18  C   UNL     1       0.120   1.667  -0.114  0.00  0.00    +0.048 C 
ATOM     19  C   UNL     1       0.176   0.139  -0.148  0.00  0.00    +0.225 C 
ENDBRANCH  17  19
ENDBRANCH  11  17
ENDBRANCH   1  16
BRANCH   9  20
ATOM     20  N   UNL     1      -6.331  -2.762   2.340  0.00  0.00    -0.328 N 
ATOM     21  H   UNL     1      -7.140  -3.298   2.333  0.00  0.00    +0.145 HD
ATOM     22  H   UNL     1      -5.994  -2.405   3.176  0.00  0.00    +0.145 HD
ENDBRANCH   9  20
BRANCH  10  23
ATOM     23  C   UNL     1      -4.075  -1.253   2.454  0.00  0.00    +0.101 C 
ATOM     24  N   UNL     1      -3.707  -0.851   3.450  0.00  0.00    -0.191 NA
ENDBRANCH  10  23
BRANCH   5  25
ATOM     25  O   UNL     1      -6.934  -2.396  -4.620  0.00  0.00    -0.420 OA
BRANCH  25  26
ATOM     26  C   UNL     1      -8.168  -1.853  -4.660  0.00  0.00    +0.380 C 
ATOM     27  O   UNL     1      -8.533  -1.108  -3.772  0.00  0.00    -0.241 OA
BRANCH  26  28
ATOM     28  C   UNL     1      -9.070  -2.163  -5.776  0.00  0.00    +0.216 A 
ATOM     29  C   UNL     1     -10.329  -1.673  -5.924  0.00  0.00    +0.010 A 
ATOM     30  C   UNL     1     -10.844  -2.246  -7.167  0.00  0.00    +0.027 A 
ATOM     31  C   UNL     1     -12.051  -2.139  -7.862  0.00  0.00    -0.039 A 
ATOM     32  C   UNL     1     -12.222  -2.825  -9.031  0.00  0.00    +0.007 A 
ATOM     33  C   UNL     1     -11.206  -3.627  -9.531  0.00  0.00    -0.047 A 
ATOM     34  C   UNL     1     -10.008  -3.747  -8.861  0.00  0.00    +0.050 A 
ATOM     35  C   UNL     1      -9.810  -3.058  -7.669  0.00  0.00    +0.137 A 
ATOM     36  O   UNL     1      -8.773  -2.974  -6.813  0.00  0.00    -0.448 OA
ATOM     37  C   UNL     1     -11.415  -4.376 -10.822  0.00  0.00    +0.044 C 
ATOM     38  C   UNL     1     -13.159  -1.270  -7.325  0.00  0.00    +0.044 C 
ATOM     39  C   UNL     1     -11.048  -0.729  -4.995  0.00  0.00    +0.048 C 
ENDBRANCH  26  28
ENDBRANCH  25  26
ENDBRANCH   5  25
TORSDOF 8
