REMARK  Name = ZINC12535374
REMARK  2 active torsions:
REMARK  status: ('A' for Active; 'I' for Inactive)
REMARK    1  A    between atoms: C_9  and  S_11
REMARK    2  A    between atoms: S_11  and  C_12
REMARK                            x       y       z     vdW  Elec       q    Type
REMARK                         _______ _______ _______ _____ _____    ______ ____
ROOT
ATOM      1  C   UNL     1      -3.394   2.571   0.029  0.00  0.00    +0.002 A 
ATOM      2  C   UNL     1      -2.938   3.881   0.034  0.00  0.00    +0.002 A 
ATOM      3  C   UNL     1      -1.588   4.150   0.038  0.00  0.00    +0.030 A 
ATOM      4  C   UNL     1      -0.670   3.097   0.024  0.00  0.00    +0.090 A 
ATOM      5  C   UNL     1      -1.137   1.772   0.016  0.00  0.00    +0.067 A 
ATOM      6  C   UNL     1      -2.501   1.519   0.021  0.00  0.00    +0.028 A 
ATOM      7  N   UNL     1      -0.011   0.966   0.007  0.00  0.00    -0.333 N 
ATOM      8  H   UNL     1       0.003  -0.034   0.006  0.00  0.00    +0.168 HD
ATOM      9  C   UNL     1       1.078   1.791   0.001  0.00  0.00    +0.168 A 
ATOM     10  N   UNL     1       0.688   3.042   0.011  0.00  0.00    -0.222 NA
ENDROOT
BRANCH   9  11
ATOM     11  S   UNL     1       2.756   1.254  -0.017  0.00  0.00    -0.075 S 
BRANCH  11  12
ATOM     12  C   UNL     1       3.599   2.856  -0.017  0.00  0.00    +0.140 C 
ATOM     13  C   UNL     1       5.110   2.641  -0.133  0.00  0.00    +0.024 C 
ATOM     14  C   UNL     1       5.532   1.382   0.603  0.00  0.00    +0.003 C 
ATOM     15  C   UNL     1       5.361   1.464   2.109  0.00  0.00    +0.019 C 
ATOM     16  C   UNL     1       3.880   1.539   2.486  0.00  0.00    +0.104 C 
ATOM     17  N   UNL     1       3.454   2.947   2.448  0.00  0.00    -0.314 N 
ATOM     18  C   UNL     1       3.314   3.580   1.282  0.00  0.00    +0.226 C 
ATOM     19  O   UNL     1       2.958   4.739   1.262  0.00  0.00    -0.275 OA
ATOM     20  H   UNL     1       3.275   3.419   3.277  0.00  0.00    +0.149 HD
ENDBRANCH  11  12
ENDBRANCH   9  11
TORSDOF 2
