REMARK  Name = ZINC39929742
REMARK  15 active torsions:
REMARK  status: ('A' for Active; 'I' for Inactive)
REMARK    1  A    between atoms: C_1  and  C_2
REMARK    2  A    between atoms: C_2  and  C_4
REMARK    3  A    between atoms: N_10  and  C_13
REMARK    4  A    between atoms: C_13  and  C_14
REMARK    5  A    between atoms: C_14  and  C_15
REMARK    6  A    between atoms: C_15  and  C_16
REMARK    7  A    between atoms: C_16  and  C_17
REMARK    8  A    between atoms: C_17  and  C_18
REMARK    9  A    between atoms: C_18  and  C_19
REMARK   10  A    between atoms: C_19  and  C_20
REMARK   11  A    between atoms: C_20  and  C_21
REMARK   12  A    between atoms: C_21  and  C_22
REMARK   13  A    between atoms: C_22  and  N_23
REMARK   14  A    between atoms: C_26  and  C_32
REMARK   15  A    between atoms: C_32  and  C_34
REMARK                            x       y       z     vdW  Elec       q    Type
REMARK                         _______ _______ _______ _____ _____    ______ ____
ROOT
ATOM      1  C   UNL     1       2.320  -8.280  -1.961  0.00  0.00    +0.000 C 
ENDROOT
BRANCH   1   2
ATOM      2  C   UNL     1       2.502  -6.761  -1.967  0.00  0.00    +0.000 C 
BRANCH   2   3
ATOM      3  C   UNL     1       1.183  -6.087  -1.587  0.00  0.00    +0.002 C 
BRANCH   3   4
ATOM      4  C   UNL     1       1.365  -4.568  -1.594  0.00  0.00    +0.022 C 
BRANCH   4   5
ATOM      5  C   UNL     1       0.045  -3.894  -1.214  0.00  0.00    +0.130 C 
BRANCH   5  12
ATOM      6  C   UNL     1       0.777  -0.418  -0.090  0.00  0.00    +0.146 A 
ATOM      7  C   UNL     1       0.515   0.293  -1.349  0.00  0.00    +0.268 A 
ATOM      8  O   UNL     1       0.643   1.502  -1.418  0.00  0.00    -0.267 OA
ATOM      9  N   UNL     1       0.131  -0.422  -2.426  0.00  0.00    -0.274 N 
ATOM     10  C   UNL     1      -0.010  -1.755  -2.352  0.00  0.00    +0.332 A 
ATOM     11  O   UNL     1      -0.358  -2.364  -3.344  0.00  0.00    -0.246 OA
ATOM     12  N   UNL     1       0.220  -2.440  -1.220  0.00  0.00    -0.260 N 
ATOM     13  C   UNL     1       0.618  -1.810  -0.078  0.00  0.00    +0.271 A 
ATOM     14  O   UNL     1       0.849  -2.515   1.044  0.00  0.00    -0.267 OA
ATOM     15  H   UNL     1      -0.046   0.033  -3.265  0.00  0.00    +0.173 HD
BRANCH   6  17
ATOM     16  C   UNL     1       1.213   1.785   1.073  0.00  0.00    +0.092 C 
ATOM     17  C   UNL     1       1.183   0.279   1.070  0.00  0.00    +0.171 C 
ATOM     18  O   UNL     1       1.508  -0.337   2.066  0.00  0.00    -0.292 OA
ENDBRANCH   6  17
ENDBRANCH   5  12
ENDBRANCH   4   5
ENDBRANCH   3   4
ENDBRANCH   2   3
ENDBRANCH   1   2
BRANCH   1  19
ATOM     19  C   UNL     1       3.640  -8.954  -2.341  0.00  0.00    +0.000 C 
BRANCH  19  20
ATOM     20  C   UNL     1       3.457 -10.473  -2.334  0.00  0.00    +0.000 C 
BRANCH  20  21
ATOM     21  C   UNL     1       4.777 -11.147  -2.714  0.00  0.00    +0.002 C 
BRANCH  21  22
ATOM     22  C   UNL     1       4.594 -12.666  -2.708  0.00  0.00    +0.022 C 
BRANCH  22  23
ATOM     23  C   UNL     1       5.914 -13.341  -3.088  0.00  0.00    +0.130 C 
BRANCH  23  24
ATOM     24  N   UNL     1       5.739 -14.795  -3.081  0.00  0.00    -0.260 N 
ATOM     25  C   UNL     1       5.968 -15.489  -1.931  0.00  0.00    +0.271 A 
ATOM     26  O   UNL     1       6.349 -14.849  -0.811  0.00  0.00    -0.267 OA
ATOM     27  C   UNL     1       5.798 -16.881  -1.932  0.00  0.00    +0.146 A 
ATOM     28  C   UNL     1       5.380 -17.521  -3.187  0.00  0.00    +0.268 A 
ATOM     29  O   UNL     1       5.217 -18.726  -3.245  0.00  0.00    -0.267 OA
ATOM     30  N   UNL     1       5.179 -16.745  -4.272  0.00  0.00    -0.274 N 
ATOM     31  C   UNL     1       5.352 -15.415  -4.207  0.00  0.00    +0.332 A 
ATOM     32  O   UNL     1       5.157 -14.749  -5.205  0.00  0.00    -0.246 OA
ATOM     33  H   UNL     1       4.902 -17.153  -5.108  0.00  0.00    +0.173 HD
BRANCH  27  34
ATOM     34  C   UNL     1       6.024 -17.643  -0.764  0.00  0.00    +0.171 C 
ATOM     35  O   UNL     1       6.209 -17.086   0.299  0.00  0.00    -0.292 OA
ATOM     36  C   UNL     1       6.035 -19.148  -0.837  0.00  0.00    +0.092 C 
ENDBRANCH  27  34
ENDBRANCH  23  24
ENDBRANCH  22  23
ENDBRANCH  21  22
ENDBRANCH  20  21
ENDBRANCH  19  20
ENDBRANCH   1  19
TORSDOF 13
