REMARK  Name = ZINC38571099
REMARK  13 active torsions:
REMARK  status: ('A' for Active; 'I' for Inactive)
REMARK    1  A    between atoms: CG2_1  and  CB_2
REMARK    2  A    between atoms: CB_2  and  CA_4
REMARK    3  A    between atoms: CB_2  and  OG1_35
REMARK    4  A    between atoms: CA_4  and  C_6
REMARK    5  A    between atoms: CA_4  and  N_9
REMARK    6  A    between atoms: C_10  and  CA_12
REMARK    7  A    between atoms: CA_12  and  CB_14
REMARK    8  A    between atoms: CA_12  and  N_17
REMARK    9  A    between atoms: CB_14  and  CG1_15
REMARK   10  A    between atoms: CB_14  and  CG2_16
REMARK   11  A    between atoms: C_30  and  C_32
REMARK   12  A    between atoms: C_32  and  C_33
REMARK   13  A    between atoms: C_32  and  C_34
REMARK                            x       y       z     vdW  Elec       q    Type
REMARK                         _______ _______ _______ _____ _____    ______ ____
ROOT
ATOM      1  N   VAL A   1       4.562   0.859   3.915  0.00  0.00    -0.287 N 
ATOM      2  C   UNK A   0       5.471   1.776   4.301  0.00  0.00    +0.308 C 
ATOM      3  O   UNK A   0       5.967   2.522   3.480  0.00  0.00    -0.252 OA
ATOM      4  N   UNK A   0       5.829   1.865   5.597  0.00  0.00    -0.242 N 
ATOM      5  C   UNK A   0       6.696   2.877   6.041  0.00  0.00    +0.060 A 
ATOM      6  C   UNK A   0       7.655   3.414   5.202  0.00  0.00    +0.025 A 
ATOM      7  C   UNK A   0       8.498   4.407   5.670  0.00  0.00    +0.002 A 
ATOM      8  C   UNK A   0       8.383   4.860   6.971  0.00  0.00    +0.002 A 
ATOM      9  C   UNK A   0       7.425   4.328   7.815  0.00  0.00    +0.025 A 
ATOM     10  C   UNK A   0       6.575   3.335   7.354  0.00  0.00    +0.055 A 
ATOM     11  N   UNK A   0       5.592   2.790   8.188  0.00  0.00    -0.282 N 
ATOM     12  C   UNK A   0       4.957   1.652   7.850  0.00  0.00    +0.238 C 
ATOM     13  O   UNK A   0       4.077   1.222   8.566  0.00  0.00    -0.273 OA
ATOM     14  C   UNK A   0       5.319   0.911   6.593  0.00  0.00    +0.171 C 
ATOM     15  H   VAL A   1       4.215   0.219   4.557  0.00  0.00    +0.151 HD
ATOM     16  H   UNK A   0       5.367   3.237   9.018  0.00  0.00    +0.155 HD
ENDROOT
BRANCH  14  17
ATOM     17  C   UNK A   0       6.400  -0.125   6.909  0.00  0.00    +0.013 C 
ATOM     18  C   UNK A   0       5.868  -1.117   7.945  0.00  0.00    +0.009 C 
ATOM     19  C   UNK A   0       6.777  -0.876   5.631  0.00  0.00    +0.009 C 
ENDBRANCH  14  17
BRANCH   1  20
ATOM     20  CA  VAL A   1       4.097   0.827   2.526  0.00  0.00    +0.163 C 
BRANCH  20  22
ATOM     21  N   VAL A   1       2.098   0.066   1.284  0.00  0.00    -0.299 N 
ATOM     22  C   VAL A   1       2.728   0.201   2.468  0.00  0.00    +0.234 C 
ATOM     23  O   VAL A   1       2.192  -0.182   3.487  0.00  0.00    -0.274 OA
ATOM     24  H   VAL A   1       2.526   0.372   0.469  0.00  0.00    +0.150 HD
BRANCH  21  25
ATOM     25  CA  VAL A   1       0.766  -0.543   1.228  0.00  0.00    +0.215 C 
BRANCH  25  26
ATOM     26  C   VAL A   1       0.902  -2.042   1.163  0.00  0.00    +0.378 C 
ATOM     27  O   VAL A   1       1.879  -2.544   0.633  0.00  0.00    -0.244 OA
ATOM     28  OXT VAL A   1       0.035  -2.755   1.641  0.00  0.00    -0.244 OA
ENDBRANCH  25  26
BRANCH  25  30
ATOM     29  CG2 VAL A   1       0.000   1.486  -0.011  0.00  0.00    +0.040 C 
ATOM     30  CB  VAL A   1       0.029  -0.043  -0.015  0.00  0.00    +0.143 C 
BRANCH  30  31
ATOM     31  OG1 VAL A   1       0.705  -0.504  -1.187  0.00  0.00    -0.390 OA
ATOM     32  HG1 VAL A   1       0.291  -0.224  -2.015  0.00  0.00    +0.210 HD
ENDBRANCH  30  31
ENDBRANCH  25  30
ENDBRANCH  21  25
ENDBRANCH  20  22
BRANCH  20  33
ATOM     33  CB  VAL A   1       5.071   0.004   1.681  0.00  0.00    +0.012 C 
ATOM     34  CG1 VAL A   1       6.461   0.640   1.739  0.00  0.00    +0.009 C 
ATOM     35  CG2 VAL A   1       5.139  -1.424   2.228  0.00  0.00    +0.009 C 
ENDBRANCH  20  33
ENDBRANCH   1  20
TORSDOF 8
