REMARK  Name = ZINC13958048
REMARK  11 active torsions:
REMARK  status: ('A' for Active; 'I' for Inactive)
REMARK    1  A    between atoms: C_1  and  C_2
REMARK    2  A    between atoms: C_2  and  N_3
REMARK    3  A    between atoms: C_6  and  C_8
REMARK    4  A    between atoms: C_11  and  C_31
REMARK    5  A    between atoms: C_19  and  C_20
REMARK    6  A    between atoms: C_23  and  O_26
REMARK    7  A    between atoms: O_26  and  C_27
REMARK    8  A    between atoms: C_27  and  C_28
REMARK    9  A    between atoms: C_34  and  O_37
REMARK   10  A    between atoms: O_37  and  C_38
REMARK   11  A    between atoms: C_38  and  C_39
REMARK                            x       y       z     vdW  Elec       q    Type
REMARK                         _______ _______ _______ _____ _____    ______ ____
ROOT
ATOM      1  C   UNL     1      -0.770   2.284  -0.198  0.00  0.00    +0.288 C 
ATOM      2  O   UNL     1      -0.606   3.482  -0.065  0.00  0.00    -0.266 OA
ATOM      3  N   UNL     1       0.232   1.431   0.091  0.00  0.00    -0.179 N 
ATOM      4  C   UNL     1       1.584   1.800   0.570  0.00  0.00    +0.140 C 
ATOM      5  C   UNL     1       2.044   0.492   1.238  0.00  0.00    +0.066 C 
ATOM      6  C   UNL     1       3.499   0.164   0.900  0.00  0.00    +0.012 C 
ATOM      7  C   UNL     1       3.816  -1.224   1.452  0.00  0.00    +0.005 C 
ATOM      8  C   UNL     1       2.986  -2.326   0.826  0.00  0.00    +0.037 C 
ATOM      9  C   UNL     1       1.597  -1.911   0.446  0.00  0.00    -0.024 C 
ATOM     10  C   UNL     1       0.714  -2.842   0.030  0.00  0.00    +0.013 C 
ATOM     11  C   UNL     1       1.200  -0.554   0.518  0.00  0.00    +0.068 C 
ATOM     12  N   UNL     1       0.186   0.036  -0.015  0.00  0.00    -0.181 NA
ENDROOT
BRANCH   1  16
ATOM     13  N   UNL     1      -3.593   0.403  -1.282  0.00  0.00    -0.270 N 
ATOM     14  C   UNL     1      -4.148   1.636  -1.393  0.00  0.00    +0.129 A 
ATOM     15  C   UNL     1      -3.209   2.533  -1.009  0.00  0.00    +0.091 A 
ATOM     16  C   UNL     1      -2.067   1.765  -0.674  0.00  0.00    +0.167 A 
ATOM     17  N   UNL     1      -2.383   0.499  -0.863  0.00  0.00    -0.165 NA
ATOM     18 CL   UNL     1      -3.369   4.260  -0.946  0.00  0.00    -0.080 Cl
BRANCH  13  20
ATOM     19  C   UNL     1      -3.449  -1.643  -2.614  0.00  0.00    +0.029 C 
ATOM     20  C   UNL     1      -4.275  -0.855  -1.595  0.00  0.00    +0.140 C 
ENDBRANCH  13  20
ENDBRANCH   1  16
BRANCH  10  21
ATOM     21  C   UNL     1       1.159  -4.224  -0.208  0.00  0.00    -0.024 A 
ATOM     22  C   UNL     1       2.359  -4.468  -0.885  0.00  0.00    +0.011 A 
ATOM     23  C   UNL     1       2.775  -5.763  -1.100  0.00  0.00    +0.046 A 
ATOM     24  C   UNL     1       1.999  -6.827  -0.656  0.00  0.00    +0.121 A 
ATOM     25  C   UNL     1       0.804  -6.590   0.012  0.00  0.00    +0.046 A 
ATOM     26  C   UNL     1       0.382  -5.299   0.237  0.00  0.00    +0.011 A 
BRANCH  24  27
ATOM     27  O   UNL     1       2.411  -8.103  -0.875  0.00  0.00    -0.492 OA
BRANCH  27  28
ATOM     28  C   UNL     1       3.649  -8.275  -1.568  0.00  0.00    +0.225 C 
ATOM     29  C   UNL     1       3.945  -9.769  -1.720  0.00  0.00    +0.048 C 
ENDBRANCH  27  28
ENDBRANCH  24  27
ENDBRANCH  10  21
BRANCH   4  30
ATOM     30  C   UNL     1       2.485   2.164  -0.582  0.00  0.00    -0.024 A 
ATOM     31  C   UNL     1       2.415   1.451  -1.764  0.00  0.00    +0.009 A 
ATOM     32  C   UNL     1       3.236   1.786  -2.824  0.00  0.00    +0.046 A 
ATOM     33  C   UNL     1       4.139   2.832  -2.696  0.00  0.00    +0.121 A 
ATOM     34  C   UNL     1       4.211   3.542  -1.507  0.00  0.00    +0.046 A 
ATOM     35  C   UNL     1       3.384   3.206  -0.452  0.00  0.00    +0.009 A 
BRANCH  33  36
ATOM     36  O   UNL     1       4.951   3.160  -3.735  0.00  0.00    -0.492 OA
BRANCH  36  37
ATOM     37  C   UNL     1       4.822   2.386  -4.929  0.00  0.00    +0.225 C 
ATOM     38  C   UNL     1       5.810   2.899  -5.979  0.00  0.00    +0.048 C 
ENDBRANCH  36  37
ENDBRANCH  33  36
ENDBRANCH   4  30
TORSDOF 8
