REMARK  Name = ZINC36146144
REMARK  15 active torsions:
REMARK  status: ('A' for Active; 'I' for Inactive)
REMARK    1  A    between atoms: C_1  and  C_2
REMARK    2  A    between atoms: C_2  and  C_3
REMARK    3  A    between atoms: C_2  and  C_4
REMARK    4  A    between atoms: C_4  and  O_5
REMARK    5  A    between atoms: O_5  and  C_6
REMARK    6  A    between atoms: C_6  and  C_7
REMARK    7  A    between atoms: C_7  and  C_9
REMARK    8  A    between atoms: C_7  and  O_36
REMARK    9  A    between atoms: C_9  and  N_10
REMARK   10  A    between atoms: N_10  and  C_11
REMARK   11  A    between atoms: N_10  and  C_22
REMARK   12  A    between atoms: C_11  and  C_12
REMARK   13  A    between atoms: C_16  and  C_18
REMARK   14  A    between atoms: C_22  and  C_23
REMARK   15  A    between atoms: C_26  and  C_29
REMARK                            x       y       z     vdW  Elec       q    Type
REMARK                         _______ _______ _______ _____ _____    ______ ____
ROOT
ATOM      1  N   UNL     1      -3.592  -6.026  -0.310  0.00  0.00    +0.387 N 
ATOM      2  H   UNL     1      -3.033  -6.297   0.484  0.00  0.00    -0.081 HD
ENDROOT
BRANCH   1   3
ATOM      3  C   UNL     1      -3.730  -4.563  -0.336  0.00  0.00    -0.044 C 
BRANCH   3   4
ATOM      4  C   UNL     1      -2.366  -3.918  -0.079  0.00  0.00    +0.124 C 
BRANCH   4   5
ATOM      5  O   UNL     1      -1.496  -4.188  -1.180  0.00  0.00    -0.391 OA
ATOM      6  H   UNL     1      -1.749  -3.740  -2.000  0.00  0.00    +0.210 HD
ENDBRANCH   4   5
BRANCH   4   7
ATOM      7  C   UNL     1      -2.538  -2.406   0.077  0.00  0.00    +0.189 C 
BRANCH   7   8
ATOM      8  O   UNL     1      -1.285  -1.818   0.431  0.00  0.00    -0.377 OA
BRANCH   8   9
ATOM      9  C   UNL     1      -1.336  -0.400   0.602  0.00  0.00    +0.163 C 
BRANCH   9  11
ATOM     10  C   UNL     1       0.028   1.647   1.039  0.00  0.00    +0.009 C 
ATOM     11  C   UNL     1       0.053   0.119   0.978  0.00  0.00    +0.009 C 
ATOM     12  C   UNL     1       0.453  -0.439   2.346  0.00  0.00    +0.009 C 
ENDBRANCH   9  11
ENDBRANCH   8   9
ENDBRANCH   7   8
ENDBRANCH   4   7
ENDBRANCH   3   4
ENDBRANCH   1   3
BRANCH   1  13
ATOM     13  C   UNL     1      -2.939  -6.478  -1.546  0.00  0.00    -0.043 C 
BRANCH  13  14
ATOM     14  C   UNL     1      -3.825  -6.166  -2.725  0.00  0.00    -0.063 A 
ATOM     15  C   UNL     1      -4.751  -7.097  -3.159  0.00  0.00    +0.002 A 
ATOM     16  C   UNL     1      -5.563  -6.812  -4.240  0.00  0.00    +0.001 A 
ATOM     17  C   UNL     1      -5.450  -5.595  -4.887  0.00  0.00    +0.012 A 
ATOM     18  C   UNL     1      -4.526  -4.664  -4.453  0.00  0.00    +0.055 A 
ATOM     19  C   UNL     1      -3.716  -4.948  -3.369  0.00  0.00    +0.014 A 
BRANCH  18  20
ATOM     20  C   UNL     1      -4.402  -3.339  -5.159  0.00  0.00    +0.417 C 
ATOM     21  F   UNL     1      -5.321  -3.284  -6.213  0.00  0.00    -0.166 F 
ATOM     22  F   UNL     1      -4.667  -2.303  -4.256  0.00  0.00    -0.166 F 
ATOM     23  F   UNL     1      -3.105  -3.198  -5.663  0.00  0.00    -0.166 F 
ENDBRANCH  18  20
ENDBRANCH  13  14
ENDBRANCH   1  13
BRANCH   1  24
ATOM     24  C   UNL     1      -4.922  -6.641  -0.206  0.00  0.00    -0.030 C 
BRANCH  24  25
ATOM     25  C   UNL     1      -4.773  -8.156  -0.054  0.00  0.00    +0.194 C 
ATOM     26  C   UNL     1      -6.157  -8.845   0.012  0.00  0.00    +0.104 C 
ATOM     27  C   UNL     1      -5.930  -9.944   1.031  0.00  0.00    +0.091 C 
ATOM     28  N   UNL     1      -4.836  -9.687   1.667  0.00  0.00    -0.089 NA
ATOM     29  O   UNL     1      -4.215  -8.493   1.232  0.00  0.00    -0.392 OA
BRANCH  27  30
ATOM     30  C   UNL     1      -6.808 -11.109   1.258  0.00  0.00    -0.000 A 
ATOM     31  C   UNL     1      -7.965 -11.273   0.493  0.00  0.00    +0.012 A 
ATOM     32  C   UNL     1      -8.781 -12.363   0.709  0.00  0.00    +0.039 A 
ATOM     33  C   UNL     1      -8.456 -13.294   1.682  0.00  0.00    +0.123 A 
ATOM     34  C   UNL     1      -7.309 -13.136   2.444  0.00  0.00    +0.039 A 
ATOM     35  C   UNL     1      -6.482 -12.053   2.233  0.00  0.00    +0.012 A 
ATOM     36  F   UNL     1      -9.260 -14.360   1.889  0.00  0.00    -0.205 F 
ENDBRANCH  27  30
ENDBRANCH  24  25
ENDBRANCH   1  24
TORSDOF 13
