REMARK  Name = ZINC03773473
REMARK  9 active torsions:
REMARK  status: ('A' for Active; 'I' for Inactive)
REMARK    1  A    between atoms: C_1  and  C_2
REMARK    2  A    between atoms: C_5  and  C_8
REMARK    3  A    between atoms: C_8  and  N_9
REMARK    4  A    between atoms: N_9  and  C_10
REMARK    5  A    between atoms: C_10  and  C_12
REMARK    6  A    between atoms: C_10  and  C_19
REMARK    7  A    between atoms: N_21  and  C_22
REMARK    8  A    between atoms: C_31  and  C_33
REMARK    9  A    between atoms: C_33  and  C_34
REMARK                            x       y       z     vdW  Elec       q    Type
REMARK                         _______ _______ _______ _____ _____    ______ ____
ROOT
ATOM      1  C   UNL     1       2.158  -5.132   1.536  0.00  0.00    +0.193 C 
ENDROOT
BRANCH   1   2
ATOM      2  C   UNL     1       3.097  -3.953   1.508  0.00  0.00    -0.018 A 
ATOM      3  C   UNL     1       2.690  -2.759   0.943  0.00  0.00    +0.007 A 
ATOM      4  C   UNL     1       3.550  -1.678   0.917  0.00  0.00    +0.020 A 
ATOM      5  C   UNL     1       4.819  -1.791   1.456  0.00  0.00    +0.041 A 
ATOM      6  C   UNL     1       5.226  -2.986   2.022  0.00  0.00    +0.020 A 
ATOM      7  C   UNL     1       4.363  -4.065   2.053  0.00  0.00    +0.007 A 
ATOM      8 CL   UNL     1       5.901  -0.433   1.423  0.00  0.00    -0.084 Cl
ENDBRANCH   1   2
BRANCH   1   9
ATOM      9  C   UNL     1       1.086  -4.895   2.568  0.00  0.00    +0.242 C 
ATOM     10  O   UNL     1      -0.082  -5.035   2.272  0.00  0.00    -0.273 OA
ATOM     11  N   UNL     1       1.425  -4.529   3.820  0.00  0.00    -0.284 N 
ATOM     12  H   UNL     1       2.355  -4.373   4.045  0.00  0.00    +0.155 HD
BRANCH  11  13
ATOM     13  C   UNL     1       0.433  -4.373   4.797  0.00  0.00    +0.037 A 
ATOM     14  C   UNL     1       0.615  -4.911   6.064  0.00  0.00    +0.027 A 
ATOM     15  C   UNL     1      -0.363  -4.758   7.028  0.00  0.00    +0.051 A 
ATOM     16  C   UNL     1      -1.527  -4.067   6.734  0.00  0.00    +0.166 A 
ATOM     17  C   UNL     1      -1.713  -3.526   5.465  0.00  0.00    +0.168 A 
ATOM     18  C   UNL     1      -0.730  -3.675   4.500  0.00  0.00    +0.072 A 
ATOM     19  O   UNL     1      -2.926  -2.902   5.429  0.00  0.00    -0.453 OA
ATOM     20  C   UNL     1      -3.656  -3.417   6.558  0.00  0.00    +0.466 C 
ATOM     21  O   UNL     1      -2.626  -3.782   7.495  0.00  0.00    -0.453 OA
ENDBRANCH  11  13
ENDBRANCH   1   9
BRANCH   1  22
ATOM     22  N   UNL     1       1.540  -5.295   0.218  0.00  0.00    -0.281 N 
ATOM     23  C   UNL     1       2.159  -6.026  -0.730  0.00  0.00    +0.221 C 
ATOM     24  O   UNL     1       3.249  -6.510  -0.509  0.00  0.00    -0.275 OA
BRANCH  22  25
ATOM     25  C   UNL     1       0.249  -4.664  -0.069  0.00  0.00    +0.144 C 
BRANCH  25  30
ATOM     26  C   UNL     1      -3.493  -8.672  -1.892  0.00  0.00    +0.044 C 
ATOM     27  C   UNL     1      -2.517  -7.627  -1.417  0.00  0.00    -0.050 A 
ATOM     28  C   UNL     1      -1.549  -7.957  -0.486  0.00  0.00    +0.003 A 
ATOM     29  C   UNL     1      -0.654  -6.999  -0.050  0.00  0.00    +0.005 A 
ATOM     30  C   UNL     1      -0.726  -5.710  -0.545  0.00  0.00    -0.030 A 
ATOM     31  C   UNL     1      -1.693  -5.380  -1.476  0.00  0.00    +0.005 A 
ATOM     32  C   UNL     1      -2.586  -6.340  -1.915  0.00  0.00    +0.003 A 
ENDBRANCH  25  30
ENDBRANCH  22  25
BRANCH  23  33
ATOM     33  C   UNL     1       1.496  -6.243  -2.066  0.00  0.00    +0.131 C 
BRANCH  33  34
ATOM     34  C   UNL     1       2.451  -6.951  -2.992  0.00  0.00    -0.039 A 
ATOM     35  C   UNL     1       3.310  -6.219  -3.791  0.00  0.00    +0.004 A 
ATOM     36  C   UNL     1       4.186  -6.868  -4.640  0.00  0.00    +0.000 A 
ATOM     37  C   UNL     1       4.204  -8.249  -4.690  0.00  0.00    +0.000 A 
ATOM     38  C   UNL     1       3.346  -8.981  -3.891  0.00  0.00    +0.000 A 
ATOM     39  C   UNL     1       2.473  -8.332  -3.039  0.00  0.00    +0.004 A 
ENDBRANCH  33  34
ENDBRANCH  23  33
ENDBRANCH   1  22
TORSDOF 8
