REMARK  Name = ZINC62255829
REMARK  3 active torsions:
REMARK  status: ('A' for Active; 'I' for Inactive)
REMARK    1  A    between atoms: C_3  and  C_17
REMARK    2  A    between atoms: C_6  and  N_7
REMARK    3  A    between atoms: C_17  and  N_19
REMARK                            x       y       z     vdW  Elec       q    Type
REMARK                         _______ _______ _______ _____ _____    ______ ____
ROOT
ATOM      1  C   UNL     1       1.215  -0.687  -0.052  0.00  0.00    +0.024 A 
ATOM      2  C   UNL     1       2.401   0.011  -0.061  0.00  0.00    +0.013 A 
ATOM      3  C   UNL     1       2.387   1.409  -0.015  0.00  0.00    +0.021 A 
ATOM      4  C   UNL     1       1.167   2.092   0.041  0.00  0.00    +0.052 A 
ATOM      5  C   UNL     1      -0.016   1.385   0.050  0.00  0.00    +0.043 A 
ATOM      6  C   UNL     1       0.003  -0.005   0.004  0.00  0.00    +0.032 A 
ATOM      7 CL   UNL     1       1.143   3.827   0.099  0.00  0.00    -0.083 Cl
ENDROOT
BRANCH   6   8
ATOM      8  N   UNL     1      -1.193  -0.716   0.012  0.00  0.00    -0.321 N 
ATOM      9  C   UNL     1      -1.201  -2.185   0.086  0.00  0.00    +0.127 C 
ATOM     10  C   UNL     1      -1.875  -2.619   1.391  0.00  0.00    +0.142 C 
ATOM     11  N   UNL     1      -3.108  -1.851   1.576  0.00  0.00    -0.333 N 
ATOM     12  C   UNL     1      -4.161  -2.152   2.390  0.00  0.00    +0.105 A 
ATOM     13  C   UNL     1      -5.062  -1.159   2.242  0.00  0.00    +0.102 A 
ATOM     14  N   UNL     1      -4.569  -0.277   1.358  0.00  0.00    -0.348 N 
ATOM     15  C   UNL     1      -3.403  -0.686   0.952  0.00  0.00    +0.105 A 
ATOM     16  C   UNL     1      -2.491  -0.018  -0.046  0.00  0.00    +0.177 C 
ATOM     17  H   UNL     1      -5.011   0.535   1.067  0.00  0.00    +0.166 HD
ENDBRANCH   6   8
BRANCH   3  18
ATOM     18  C   UNL     1       3.654   2.160  -0.024  0.00  0.00    +0.078 C 
ATOM     19  S   UNL     1       3.636   3.868  -0.138  0.00  0.00    -0.035 S 
BRANCH  18  20
ATOM     20  N   UNL     1       4.828   1.503   0.058  0.00  0.00    -0.352 N 
ATOM     21  H   UNL     1       4.842   0.533   0.049  0.00  0.00    +0.143 HD
ATOM     22  H   UNL     1       5.658   2.000   0.125  0.00  0.00    +0.143 HD
ENDBRANCH  18  20
ENDBRANCH   3  18
TORSDOF 3
