REMARK  Name = ZINC04330692
REMARK  11 active torsions:
REMARK  status: ('A' for Active; 'I' for Inactive)
REMARK    1  A    between atoms: C_1  and  C_2
REMARK    2  A    between atoms: C_2  and  C_3
REMARK    3  A    between atoms: C_3  and  N_56
REMARK    4  A    between atoms: C_9  and  N_16
REMARK    5  A    between atoms: C_10  and  C_11
REMARK    6  A    between atoms: C_11  and  O_13
REMARK    7  A    between atoms: O_13  and  C_14
REMARK    8  A    between atoms: C_14  and  C_15
REMARK    9  A    between atoms: C_17  and  C_19
REMARK   10  A    between atoms: C_22  and  C_26
REMARK   11  A    between atoms: C_24  and  C_25
REMARK                            x       y       z     vdW  Elec       q    Type
REMARK                         _______ _______ _______ _____ _____    ______ ____
ROOT
ATOM      1  C   UNL     1       7.376  -3.779  -2.107  0.00  0.00    -0.074 C 
ATOM      2  C   UNL     1       5.986  -3.846  -1.467  0.00  0.00    +0.018 C 
ATOM      3  C   UNL     1       5.492  -2.420  -1.255  0.00  0.00    -0.025 A 
ATOM      4  C   UNL     1       6.365  -1.388  -1.282  0.00  0.00    -0.021 A 
ATOM      5  S   UNL     1       5.374   0.051  -1.009  0.00  0.00    -0.079 S 
ATOM      6  C   UNL     1       3.822  -0.705  -0.848  0.00  0.00    +0.086 A 
ATOM      7  C   UNL     1       4.108  -2.055  -1.018  0.00  0.00    +0.091 A 
ATOM      8  C   UNL     1       7.843  -1.480  -1.503  0.00  0.00    -0.035 C 
ATOM      9  N   UNL     1       8.244  -2.894  -1.304  0.00  0.00    +0.383 N 
ATOM     10  H   UNL     1       8.139  -3.135  -0.311  0.00  0.00    -0.081 HD
ENDROOT
BRANCH   6  11
ATOM     11  N   UNL     1       2.595  -0.108  -0.613  0.00  0.00    -0.275 N 
ATOM     12  C   UNL     1       2.512   1.230  -0.472  0.00  0.00    +0.249 C 
ATOM     13  O   UNL     1       3.514   1.913  -0.553  0.00  0.00    -0.270 OA
ATOM     14  H   UNL     1       1.795  -0.653  -0.548  0.00  0.00    +0.156 HD
BRANCH  12  15
ATOM     15  C   UNL     1       1.202   1.867  -0.221  0.00  0.00    +0.040 A 
ATOM     16  C   UNL     1       0.033   1.104  -0.258  0.00  0.00    +0.013 A 
ATOM     17  C   UNL     1      -1.186   1.706  -0.028  0.00  0.00    +0.004 A 
ATOM     18  C   UNL     1      -1.252   3.060   0.250  0.00  0.00    -0.050 A 
ATOM     19  C   UNL     1      -0.097   3.821   0.288  0.00  0.00    +0.007 A 
ATOM     20  C   UNL     1       1.129   3.233   0.054  0.00  0.00    -0.038 A 
ATOM     21  C   UNL     1       2.385   4.064   0.096  0.00  0.00    +0.044 C 
ATOM     22  C   UNL     1      -2.587   3.709   0.507  0.00  0.00    +0.044 C 
ENDBRANCH  12  15
ENDBRANCH   6  11
BRANCH   7  23
ATOM     23  C   UNL     1       3.053  -3.068  -0.962  0.00  0.00    +0.342 C 
ATOM     24  O   UNL     1       2.463  -3.389  -1.977  0.00  0.00    -0.245 OA
BRANCH  23  25
ATOM     25  O   UNL     1       2.734  -3.646   0.214  0.00  0.00    -0.461 OA
BRANCH  25  26
ATOM     26  C   UNL     1       1.678  -4.642   0.195  0.00  0.00    +0.229 C 
ATOM     27  C   UNL     1       1.459  -5.181   1.610  0.00  0.00    +0.048 C 
ENDBRANCH  25  26
ENDBRANCH  23  25
ENDBRANCH   7  23
BRANCH   9  28
ATOM     28  C   UNL     1       9.657  -3.079  -1.697  0.00  0.00    -0.079 C 
BRANCH  28  30
ATOM     29  C   UNL     1      11.300  -3.031  -3.579  0.00  0.00    +0.002 C 
ATOM     30  C   UNL     1       9.832  -2.832  -3.197  0.00  0.00    -0.022 C 
ENDBRANCH  28  30
ENDBRANCH   9  28
TORSDOF 7
