REMARK  Name = ZINC40051954
REMARK  12 active torsions:
REMARK  status: ('A' for Active; 'I' for Inactive)
REMARK    1  A    between atoms: C_1  and  C_2
REMARK    2  A    between atoms: C_4  and  C_12
REMARK    3  A    between atoms: C_7  and  O_8
REMARK    4  A    between atoms: O_8  and  C_9
REMARK    5  A    between atoms: C_9  and  C_10
REMARK    6  A    between atoms: C_12  and  C_14
REMARK    7  A    between atoms: N_18  and  C_30
REMARK    8  A    between atoms: C_19  and  C_21
REMARK    9  A    between atoms: C_25  and  N_27
REMARK   10  A    between atoms: C_30  and  C_31
REMARK   11  A    between atoms: C_31  and  C_32
REMARK   12  A    between atoms: C_32  and  O_33
REMARK                            x       y       z     vdW  Elec       q    Type
REMARK                         _______ _______ _______ _____ _____    ______ ____
ROOT
ATOM      1  C   UNL     1       0.242  -4.442  -2.376  0.00  0.00    +0.076 C 
ATOM      2  C   UNL     1       0.184  -5.356  -3.371  0.00  0.00    +0.249 C 
ATOM      3  C   UNL     1       0.274  -6.713  -2.791  0.00  0.00    +0.288 C 
ATOM      4  O   UNL     1       0.249  -7.747  -3.428  0.00  0.00    -0.266 OA
ATOM      5  N   UNL     1       0.387  -6.633  -1.453  0.00  0.00    -0.283 N 
ATOM      6  C   UNL     1       0.383  -5.212  -1.084  0.00  0.00    +0.145 C 
ATOM      7  O   UNL     1       0.062  -5.074  -4.689  0.00  0.00    -0.282 OA
ENDROOT
BRANCH   6   8
ATOM      8  C   UNL     1       1.676  -4.848  -0.401  0.00  0.00    -0.020 A 
ATOM      9  C   UNL     1       2.881  -5.262  -0.937  0.00  0.00    +0.006 A 
ATOM     10  C   UNL     1       4.067  -4.928  -0.311  0.00  0.00    +0.003 A 
ATOM     11  C   UNL     1       4.048  -4.179   0.851  0.00  0.00    +0.033 A 
ATOM     12  C   UNL     1       2.844  -3.764   1.387  0.00  0.00    +0.127 A 
ATOM     13  C   UNL     1       1.657  -4.095   0.758  0.00  0.00    +0.038 A 
BRANCH  12  14
ATOM     14  N   UNL     1       2.823  -2.962   2.631  0.00  0.00    +0.056 N 
ATOM     15  O   UNL     1       3.861  -2.592   3.128  0.00  0.00    -0.126 OA
ATOM     16  O   UNL     1       1.769  -2.678   3.149  0.00  0.00    -0.126 OA
ENDBRANCH  12  14
ENDBRANCH   6   8
BRANCH   1  17
ATOM     17  C   UNL     1       0.187  -2.984  -2.523  0.00  0.00    +0.195 C 
ATOM     18  O   UNL     1       1.084  -2.395  -3.097  0.00  0.00    -0.287 OA
BRANCH  17  22
ATOM     19  C   UNL     1      -2.030   1.373  -1.537  0.00  0.00    +0.047 C 
ATOM     20  C   UNL     1      -2.028  -0.133  -1.499  0.00  0.00    -0.008 A 
ATOM     21  C   UNL     1      -0.959  -0.832  -2.011  0.00  0.00    +0.018 A 
ATOM     22  C   UNL     1      -0.958  -2.230  -1.975  0.00  0.00    +0.023 A 
ATOM     23  C   UNL     1      -2.045  -2.912  -1.418  0.00  0.00    +0.015 A 
ATOM     24  C   UNL     1      -3.110  -2.205  -0.909  0.00  0.00    +0.046 A 
ATOM     25  C   UNL     1      -3.104  -0.815  -0.941  0.00  0.00    +0.124 A 
BRANCH  25  26
ATOM     26  O   UNL     1      -4.154  -0.121  -0.433  0.00  0.00    -0.488 OA
BRANCH  26  27
ATOM     27  C   UNL     1      -5.177  -0.878   0.217  0.00  0.00    +0.256 C 
BRANCH  27  28
ATOM     28  C   UNL     1      -6.305   0.039   0.614  0.00  0.00    +0.006 C 
ATOM     29  C   UNL     1      -7.547  -0.315   0.391  0.00  0.00    +0.007 C 
ENDBRANCH  27  28
ENDBRANCH  26  27
ENDBRANCH  25  26
ENDBRANCH  17  22
ENDBRANCH   1  17
BRANCH   5  30
ATOM     30  C   UNL     1       0.499  -7.764  -0.528  0.00  0.00    +0.111 C 
BRANCH  30  31
ATOM     31  C   UNL     1       1.974  -8.115  -0.329  0.00  0.00    +0.047 C 
BRANCH  31  32
ATOM     32  C   UNL     1       2.091  -9.296   0.636  0.00  0.00    +0.157 C 
BRANCH  32  33
ATOM     33  O   UNL     1       3.470  -9.625   0.822  0.00  0.00    -0.395 OA
ATOM     34  H   UNL     1       3.620 -10.367   1.424  0.00  0.00    +0.209 HD
ENDBRANCH  32  33
ENDBRANCH  31  32
ENDBRANCH  30  31
ENDBRANCH   5  30
TORSDOF 11
