REMARK  Name = ZINC14551060
REMARK  5 active torsions:
REMARK  status: ('A' for Active; 'I' for Inactive)
REMARK    1  A    between atoms: C_5  and  O_7
REMARK    2  A    between atoms: O_7  and  C_8
REMARK    3  A    between atoms: C_8  and  C_9
REMARK    4  A    between atoms: C_16  and  C_25
REMARK    5  A    between atoms: C_28  and  N_31
REMARK                            x       y       z     vdW  Elec       q    Type
REMARK                         _______ _______ _______ _____ _____    ______ ____
ROOT
ATOM      1  C   UNL     1      -3.177   8.609   1.125  0.00  0.00    +0.004 A 
ATOM      2  C   UNL     1      -3.374   7.458   1.863  0.00  0.00    +0.006 A 
ATOM      3  C   UNL     1      -3.933   6.338   1.282  0.00  0.00    -0.016 A 
ATOM      4  C   UNL     1      -4.322   6.354  -0.058  0.00  0.00    +0.074 A 
ATOM      5  C   UNL     1      -4.111   7.525  -0.797  0.00  0.00    +0.142 A 
ATOM      6  C   UNL     1      -3.543   8.638  -0.208  0.00  0.00    +0.047 A 
ATOM      7  N   UNL     1      -4.915   5.274  -0.715  0.00  0.00    -0.334 N 
ATOM      8  C   UNL     1      -5.034   4.022   0.049  0.00  0.00    +0.105 C 
ATOM      9  C   UNL     1      -5.404   4.399   1.468  0.00  0.00    +0.029 C 
ATOM     10  C   UNL     1      -4.121   5.082   2.040  0.00  0.00    +0.049 C 
ATOM     11  C   UNL     1      -4.377   5.061   3.502  0.00  0.00    -0.023 C 
ATOM     12  C   UNL     1      -5.148   4.016   3.781  0.00  0.00    -0.030 C 
ATOM     13  C   UNL     1      -5.501   3.269   2.492  0.00  0.00    +0.033 C 
ATOM     14  H   UNL     1      -5.801   5.539  -1.117  0.00  0.00    +0.147 HD
ENDROOT
BRANCH   8  15
ATOM     15  C   UNL     1      -3.719   3.286   0.038  0.00  0.00    -0.027 A 
ATOM     16  C   UNL     1      -2.540   3.981  -0.156  0.00  0.00    +0.008 A 
ATOM     17  C   UNL     1      -1.333   3.306  -0.166  0.00  0.00    +0.033 A 
ATOM     18  C   UNL     1      -1.306   1.937   0.021  0.00  0.00    +0.126 A 
ATOM     19  C   UNL     1      -2.486   1.241   0.210  0.00  0.00    +0.033 A 
ATOM     20  C   UNL     1      -3.692   1.917   0.224  0.00  0.00    +0.008 A 
BRANCH  18  21
ATOM     21  N   UNL     1      -0.014   1.214   0.011  0.00  0.00    +0.056 N 
ATOM     22  O   UNL     1       1.024   1.826  -0.162  0.00  0.00    -0.126 OA
ATOM     23  O   UNL     1       0.010   0.008   0.180  0.00  0.00    -0.126 OA
ENDBRANCH  18  21
ENDBRANCH   8  15
BRANCH   5  24
ATOM     24  O   UNL     1      -4.468   7.566  -2.109  0.00  0.00    -0.488 OA
BRANCH  24  25
ATOM     25  C   UNL     1      -4.228   8.789  -2.809  0.00  0.00    +0.260 C 
BRANCH  25  26
ATOM     26  C   UNL     1      -4.691   8.646  -4.260  0.00  0.00    +0.156 C 
ATOM     27  C   UNL     1      -4.489   9.979  -5.023  0.00  0.00    +0.037 C 
ATOM     28  C   UNL     1      -4.381   9.468  -6.485  0.00  0.00    +0.031 C 
ATOM     29  C   UNL     1      -3.669   8.110  -6.306  0.00  0.00    +0.160 C 
ATOM     30  O   UNL     1      -3.873   7.689  -4.952  0.00  0.00    -0.373 OA
ENDBRANCH  25  26
ENDBRANCH  24  25
ENDBRANCH   5  24
TORSDOF 5
