REMARK  Name = ZINC62587473
REMARK  6 active torsions:
REMARK  status: ('A' for Active; 'I' for Inactive)
REMARK    1  A    between atoms: C_1  and  C_2
REMARK    2  A    between atoms: C_2  and  N_3
REMARK    3  A    between atoms: C_6  and  N_9
REMARK    4  A    between atoms: N_9  and  C_10
REMARK    5  A    between atoms: C_11  and  C_13
REMARK    6  A    between atoms: C_25  and  C_27
REMARK                            x       y       z     vdW  Elec       q    Type
REMARK                         _______ _______ _______ _____ _____    ______ ____
ROOT
ATOM      1  C   UNL     1       4.883  -3.838  -4.659  0.00  0.00    +0.163 C 
ATOM      2  C   UNL     1       4.012  -5.044  -5.107  0.00  0.00    +0.037 C 
ATOM      3  C   UNL     1       4.956  -6.228  -4.842  0.00  0.00    +0.012 C 
ATOM      4  C   UNL     1       4.705  -7.459  -5.696  0.00  0.00    +0.005 C 
ATOM      5  C   UNL     1       5.819  -8.470  -5.379  0.00  0.00    +0.000 C 
ATOM      6  C   UNL     1       7.201  -7.883  -5.653  0.00  0.00    +0.002 C 
ATOM      7  C   UNL     1       7.409  -6.561  -4.894  0.00  0.00    +0.023 C 
ATOM      8  C   UNL     1       6.306  -5.611  -5.300  0.00  0.00    +0.080 C 
ATOM      9  N   UNL     1       6.299  -4.270  -4.728  0.00  0.00    -0.282 N 
ATOM     10  C   UNL     1       7.373  -3.558  -4.335  0.00  0.00    +0.256 C 
ATOM     11  O   UNL     1       8.477  -4.069  -4.339  0.00  0.00    -0.269 OA
ENDROOT
BRANCH  10  12
ATOM     12  C   UNL     1       7.211  -2.164  -3.902  0.00  0.00    +0.094 A 
ATOM     13  C   UNL     1       8.138  -1.335  -3.349  0.00  0.00    +0.068 A 
ATOM     14  C   UNL     1       7.782  -0.019  -2.999  0.00  0.00    +0.008 A 
ATOM     15  C   UNL     1       8.596   0.987  -2.418  0.00  0.00    +0.010 A 
ATOM     16  C   UNL     1       8.091   2.216  -2.139  0.00  0.00    +0.001 A 
ATOM     17  C   UNL     1       6.766   2.537  -2.410  0.00  0.00    +0.001 A 
ATOM     18  C   UNL     1       5.938   1.588  -2.976  0.00  0.00    +0.016 A 
ATOM     19  C   UNL     1       6.438   0.336  -3.264  0.00  0.00    +0.021 A 
ATOM     20  S   UNL     1       5.753  -1.138  -3.978  0.00  0.00    -0.082 S 
ATOM     21 CL   UNL     1       9.757  -1.899  -3.076  0.00  0.00    -0.082 Cl
ENDBRANCH  10  12
BRANCH   1  24
ATOM     22  N   UNL     1       3.444  -2.693  -3.004  0.00  0.00    -0.300 N 
ATOM     23  C   UNL     1       2.600  -2.248  -4.117  0.00  0.00    +0.132 C 
ATOM     24  C   UNL     1       4.533  -3.450  -3.245  0.00  0.00    +0.236 C 
ATOM     25  O   UNL     1       5.231  -3.818  -2.324  0.00  0.00    -0.274 OA
BRANCH  22  29
ATOM     26  N   UNL     1       1.320  -0.915   0.172  0.00  0.00    +0.380 N 
ATOM     27  C   UNL     1       2.669  -0.399  -0.090  0.00  0.00    -0.077 C 
ATOM     28  C   UNL     1       3.102  -0.788  -1.505  0.00  0.00    +0.004 C 
ATOM     29  C   UNL     1       3.104  -2.315  -1.631  0.00  0.00    +0.072 C 
ATOM     30  C   UNL     1       1.711  -2.847  -1.283  0.00  0.00    +0.004 C 
ATOM     31  C   UNL     1       1.329  -2.382   0.124  0.00  0.00    -0.077 C 
ATOM     32  H   UNL     1       0.685  -0.560  -0.527  0.00  0.00    -0.082 HD
BRANCH  26  34
ATOM     33  C   UNL     1       0.748   1.052   1.515  0.00  0.00    -0.017 C 
ATOM     34  C   UNL     1       0.878  -0.473   1.502  0.00  0.00    -0.082 C 
ENDBRANCH  26  34
ENDBRANCH  22  29
ENDBRANCH   1  24
TORSDOF 4
