REMARK  Name = ZINC03012616
REMARK  5 active torsions:
REMARK  status: ('A' for Active; 'I' for Inactive)
REMARK    1  A    between atoms: C_1  and  C_2
REMARK    2  A    between atoms: C_5  and  C_8
REMARK    3  A    between atoms: C_11  and  C_30
REMARK    4  A    between atoms: C_15  and  C_18
REMARK    5  A    between atoms: N_20  and  C_21
REMARK                            x       y       z     vdW  Elec       q    Type
REMARK                         _______ _______ _______ _____ _____    ______ ____
ROOT
ATOM      1  C   UNL     1       0.071  -4.281  -0.038  0.00  0.00    +0.104 C 
ATOM      2  C   UNL     1      -1.340  -4.822   0.216  0.00  0.00    +0.063 C 
ATOM      3  C   UNL     1      -1.329  -6.354   0.152  0.00  0.00    +0.215 C 
ATOM      4  N   UNL     1      -0.238  -6.856   0.995  0.00  0.00    -0.238 N 
ATOM      5  C   UNL     1       0.812  -6.099   1.392  0.00  0.00    +0.130 A 
ATOM      6  C   UNL     1       1.632  -6.896   2.168  0.00  0.00    +0.096 A 
ATOM      7  C   UNL     1       1.024  -8.177   2.221  0.00  0.00    +0.149 A 
ATOM      8  N   UNL     1      -0.078  -8.135   1.523  0.00  0.00    -0.177 NA
ATOM      9  N   UNL     1       0.965  -4.770   1.030  0.00  0.00    -0.322 N 
ATOM     10  H   UNL     1       1.617  -4.194   1.456  0.00  0.00    +0.148 HD
ENDROOT
BRANCH   1  15
ATOM     11  C   UNL     1      -0.029   1.496   0.005  0.00  0.00    +0.044 C 
ATOM     12  C   UNL     1      -0.003  -0.010  -0.006  0.00  0.00    -0.050 A 
ATOM     13  C   UNL     1       0.012  -0.692  -1.208  0.00  0.00    +0.004 A 
ATOM     14  C   UNL     1       0.036  -2.074  -1.219  0.00  0.00    +0.006 A 
ATOM     15  C   UNL     1       0.046  -2.775  -0.027  0.00  0.00    -0.027 A 
ATOM     16  C   UNL     1       0.033  -2.093   1.175  0.00  0.00    +0.006 A 
ATOM     17  C   UNL     1       0.013  -0.710   1.186  0.00  0.00    +0.004 A 
ENDBRANCH   1  15
BRANCH   6  18
ATOM     18  C   UNL     1       2.888  -6.496   2.813  0.00  0.00    +0.253 C 
ATOM     19  O   UNL     1       3.301  -5.358   2.687  0.00  0.00    -0.270 OA
ATOM     20  N   UNL     1       3.584  -7.388   3.546  0.00  0.00    -0.280 N 
ATOM     21  H   UNL     1       3.216  -8.270   3.713  0.00  0.00    +0.155 HD
BRANCH  20  22
ATOM     22  C   UNL     1       4.837  -7.042   4.064  0.00  0.00    +0.054 A 
ATOM     23  C   UNL     1       5.594  -6.053   3.451  0.00  0.00    +0.044 A 
ATOM     24  C   UNL     1       6.831  -5.713   3.966  0.00  0.00    +0.043 A 
ATOM     25  C   UNL     1       7.315  -6.359   5.090  0.00  0.00    +0.021 A 
ATOM     26  C   UNL     1       6.563  -7.344   5.703  0.00  0.00    +0.023 A 
ATOM     27  C   UNL     1       5.323  -7.684   5.197  0.00  0.00    +0.062 A 
ATOM     28 CL   UNL     1       4.376  -8.916   5.971  0.00  0.00    -0.082 Cl
ATOM     29 CL   UNL     1       7.779  -4.477   3.200  0.00  0.00    -0.083 Cl
ENDBRANCH  20  22
ENDBRANCH   6  18
BRANCH   3  30
ATOM     30  C   UNL     1      -2.665  -6.898   0.660  0.00  0.00    +0.412 C 
ATOM     31  F   UNL     1      -3.703  -6.407  -0.139  0.00  0.00    -0.168 F 
ATOM     32  F   UNL     1      -2.652  -8.296   0.601  0.00  0.00    -0.168 F 
ATOM     33  F   UNL     1      -2.862  -6.490   1.984  0.00  0.00    -0.168 F 
ENDBRANCH   3  30
TORSDOF 4
