REMARK  Name = ZINC12496690
REMARK  9 active torsions:
REMARK  status: ('A' for Active; 'I' for Inactive)
REMARK    1  A    between atoms: C_1  and  C_2
REMARK    2  A    between atoms: C_2  and  C_3
REMARK    3  A    between atoms: C_3  and  C_4
REMARK    4  A    between atoms: C_4  and  C_28
REMARK    5  A    between atoms: C_9  and  C_11
REMARK    6  A    between atoms: N_18  and  C_21
REMARK    7  A    between atoms: C_28  and  O_30
REMARK    8  A    between atoms: O_30  and  C_31
REMARK    9  A    between atoms: C_31  and  C_32
REMARK                            x       y       z     vdW  Elec       q    Type
REMARK                         _______ _______ _______ _____ _____    ______ ____
ROOT
ATOM      1  C   UNL     1      -2.880   1.543   2.537  0.00  0.00    +0.044 C 
ATOM      2  C   UNL     1      -4.303   1.037   2.578  0.00  0.00    +0.086 C 
ATOM      3  C   UNL     1      -3.985  -0.473   2.921  0.00  0.00    +0.078 C 
ATOM      4  C   UNL     1      -3.064  -0.317   4.075  0.00  0.00    -0.020 C 
ATOM      5  C   UNL     1      -5.320  -1.045   2.741  0.00  0.00    +0.229 C 
ATOM      6  O   UNL     1      -5.822  -1.944   3.380  0.00  0.00    -0.275 OA
ATOM      7  N   UNL     1      -5.883  -0.337   1.708  0.00  0.00    -0.210 N 
ATOM      8  C   UNL     1      -5.186   0.806   1.413  0.00  0.00    +0.229 C 
ATOM      9  O   UNL     1      -5.275   1.483   0.412  0.00  0.00    -0.275 OA
ATOM     10  N   UNL     1      -2.293   0.920   3.761  0.00  0.00    +0.396 N 
ATOM     11  H   UNL     1      -2.354   1.577   4.548  0.00  0.00    -0.083 HD
ATOM     12  H   UNL     1      -1.309   0.682   3.591  0.00  0.00    -0.083 HD
ENDROOT
BRANCH   7  13
ATOM     13  C   UNL     1      -7.043  -0.738   1.030  0.00  0.00    +0.044 A 
ATOM     14  C   UNL     1      -7.551   0.041  -0.000  0.00  0.00    +0.027 A 
ATOM     15  C   UNL     1      -8.691  -0.359  -0.670  0.00  0.00    +0.040 A 
ATOM     16  C   UNL     1      -9.333  -1.530  -0.307  0.00  0.00    +0.124 A 
ATOM     17  C   UNL     1      -8.832  -2.306   0.724  0.00  0.00    +0.040 A 
ATOM     18  C   UNL     1      -7.689  -1.912   1.393  0.00  0.00    +0.027 A 
ATOM     19  F   UNL     1     -10.451  -1.917  -0.960  0.00  0.00    -0.205 F 
ENDBRANCH   7  13
BRANCH   4  20
ATOM     20  C   UNL     1      -3.846  -0.143   5.351  0.00  0.00    -0.023 A 
ATOM     21  C   UNL     1      -4.138  -1.061   6.305  0.00  0.00    +0.009 A 
ATOM     22  C   UNL     1      -4.876  -0.671   7.407  0.00  0.00    +0.008 A 
ATOM     23  C   UNL     1      -5.295   0.615   7.497  0.00  0.00    +0.045 A 
ATOM     24  S   UNL     1      -4.635   1.323   5.996  0.00  0.00    -0.103 S 
ENDBRANCH   4  20
BRANCH   1  25
ATOM     25  C   UNL     1      -2.845   3.048   2.615  0.00  0.00    +0.297 C 
ATOM     26  O   UNL     1      -3.779   3.696   2.208  0.00  0.00    -0.252 OA
BRANCH  25  27
ATOM     27  O   UNL     1      -1.775   3.667   3.139  0.00  0.00    -0.466 OA
BRANCH  27  28
ATOM     28  C   UNL     1      -1.810   5.118   3.182  0.00  0.00    +0.228 C 
ATOM     29  C   UNL     1      -0.514   5.640   3.807  0.00  0.00    +0.048 C 
ENDBRANCH  27  28
ENDBRANCH  25  27
ENDBRANCH   1  25
BRANCH   1  30
ATOM     30  C   UNL     1      -2.164   1.050   1.278  0.00  0.00    -0.001 C 
BRANCH  30  32
ATOM     31  C   UNL     1      -0.021   1.109  -0.006  0.00  0.00    +0.004 C 
ATOM     32  C   UNL     1      -0.738   1.602   1.253  0.00  0.00    -0.004 C 
ENDBRANCH  30  32
ENDBRANCH   1  30
TORSDOF 7
