REMARK  Name = ZINC39664341
REMARK  9 active torsions:
REMARK  status: ('A' for Active; 'I' for Inactive)
REMARK    1  A    between atoms: C_1  and  C_2
REMARK    2  A    between atoms: C_2  and  C_4
REMARK    3  A    between atoms: C_2  and  O_35
REMARK    4  A    between atoms: C_8  and  C_17
REMARK    5  A    between atoms: N_19  and  C_20
REMARK    6  A    between atoms: C_20  and  C_21
REMARK    7  A    between atoms: C_21  and  C_23
REMARK    8  A    between atoms: C_21  and  N_29
REMARK    9  A    between atoms: O_35  and  C_36
REMARK                            x       y       z     vdW  Elec       q    Type
REMARK                         _______ _______ _______ _____ _____    ______ ____
ROOT
ATOM      1  C   UNL     1      -1.201  -0.720  -1.250  0.00  0.00    +0.256 C 
ATOM      2  O   UNL     1      -0.285  -1.367  -0.788  0.00  0.00    -0.272 OA
ATOM      3  N   UNL     1      -1.341  -0.609  -2.586  0.00  0.00    -0.297 N 
ATOM      4  C   UNL     1      -2.423   0.076  -3.333  0.00  0.00    +0.121 C 
ATOM      5  C   UNL     1      -1.706   0.767  -4.513  0.00  0.00    +0.100 C 
ATOM      6  C   UNL     1      -0.411  -0.038  -4.712  0.00  0.00    -0.004 C 
ATOM      7  C   UNL     1      -0.444  -1.138  -3.641  0.00  0.00    +0.115 C 
ATOM      8  C   UNL     1      -0.383  -0.658  -6.106  0.00  0.00    -0.010 C 
ATOM      9  C   UNL     1       0.940  -1.405  -6.301  0.00  0.00    -0.082 C 
ATOM     10  N   UNL     1       2.060  -0.472  -6.136  0.00  0.00    +0.379 N 
ATOM     11  C   UNL     1       2.080   0.049  -4.763  0.00  0.00    -0.082 C 
ATOM     12  C   UNL     1       0.806   0.858  -4.504  0.00  0.00    -0.010 C 
ATOM     13  H   UNL     1       2.927  -0.953  -6.324  0.00  0.00    -0.086 HD
ATOM     14  H   UNL     1       1.956   0.295  -6.783  0.00  0.00    -0.086 HD
ENDROOT
BRANCH   5  15
ATOM     15  C   UNL     1      -1.387   2.199  -4.168  0.00  0.00    +0.218 C 
ATOM     16  O   UNL     1      -1.016   2.485  -3.049  0.00  0.00    -0.275 OA
ATOM     17  N   UNL     1      -1.515   3.162  -5.102  0.00  0.00    -0.313 N 
ATOM     18  H   UNL     1      -1.812   2.934  -5.997  0.00  0.00    +0.149 HD
BRANCH  17  19
ATOM     19  C   UNL     1      -1.206   4.554  -4.766  0.00  0.00    +0.127 C 
BRANCH  19  20
ATOM     20  C   UNL     1      -1.432   5.438  -5.995  0.00  0.00    +0.104 C 
BRANCH  20  21
ATOM     21  C   UNL     1      -0.997   6.847  -5.687  0.00  0.00    -0.029 A 
ATOM     22  C   UNL     1      -1.847   7.905  -5.949  0.00  0.00    +0.005 A 
ATOM     23  C   UNL     1      -1.449   9.199  -5.667  0.00  0.00    +0.000 A 
ATOM     24  C   UNL     1      -0.201   9.434  -5.121  0.00  0.00    +0.000 A 
ATOM     25  C   UNL     1       0.649   8.376  -4.858  0.00  0.00    +0.000 A 
ATOM     26  C   UNL     1       0.249   7.082  -5.137  0.00  0.00    +0.005 A 
ENDBRANCH  20  21
BRANCH  20  27
ATOM     27  N   UNL     1      -0.646   4.919  -7.122  0.00  0.00    -0.290 NA
ATOM     28  C   UNL     1       0.793   4.952  -6.822  0.00  0.00    +0.113 C 
ATOM     29  C   UNL     1       1.568   4.349  -7.996  0.00  0.00    +0.175 C 
ATOM     30  O   UNL     1       1.248   5.066  -9.191  0.00  0.00    -0.377 OA
ATOM     31  C   UNL     1      -0.145   5.054  -9.514  0.00  0.00    +0.175 C 
ATOM     32  C   UNL     1      -0.938   5.664  -8.356  0.00  0.00    +0.113 C 
ENDBRANCH  20  27
ENDBRANCH  19  20
ENDBRANCH  17  19
ENDBRANCH   5  15
BRANCH   1  34
ATOM     33  C   UNL     1      -1.968   1.474  -0.385  0.00  0.00    +0.062 C 
ATOM     34  C   UNL     1      -2.183  -0.040  -0.331  0.00  0.00    +0.256 C 
BRANCH  34  35
ATOM     35  O   UNL     1      -1.982  -0.503   1.006  0.00  0.00    -0.480 OA
BRANCH  35  36
ATOM     36  C   UNL     1      -3.053  -0.459   1.842  0.00  0.00    +0.122 A 
ATOM     37  C   UNL     1      -4.246   0.105   1.413  0.00  0.00    +0.045 A 
ATOM     38  C   UNL     1      -5.333   0.148   2.264  0.00  0.00    +0.004 A 
ATOM     39  C   UNL     1      -5.233  -0.370   3.542  0.00  0.00    +0.000 A 
ATOM     40  C   UNL     1      -4.045  -0.932   3.972  0.00  0.00    +0.004 A 
ATOM     41  C   UNL     1      -2.957  -0.983   3.123  0.00  0.00    +0.045 A 
ENDBRANCH  35  36
ENDBRANCH  34  35
ENDBRANCH   1  34
TORSDOF 8
