REMARK  Name = ZINC44266509
REMARK  7 active torsions:
REMARK  status: ('A' for Active; 'I' for Inactive)
REMARK    1  A    between atoms: C_1  and  C_2
REMARK    2  A    between atoms: C_5  and  N_8
REMARK    3  A    between atoms: C_9  and  C_25
REMARK    4  A    between atoms: C_10  and  C_13
REMARK    5  A    between atoms: N_15  and  C_16
REMARK    6  A    between atoms: C_25  and  C_26
REMARK    7  A    between atoms: C_25  and  C_27
REMARK                            x       y       z     vdW  Elec       q    Type
REMARK                         _______ _______ _______ _____ _____    ______ ____
ROOT
ATOM      1  N   UNL     1       0.116  -4.372  -0.623  0.00  0.00    -0.216 N 
ATOM      2  C   UNL     1       0.573  -5.101   0.419  0.00  0.00    +0.080 A 
ATOM      3  C   UNL     1       0.259  -6.405   0.156  0.00  0.00    +0.171 A 
ATOM      4  N   UNL     1      -0.377  -6.460  -1.026  0.00  0.00    -0.124 NA
ATOM      5  N   UNL     1      -0.484  -5.273  -1.514  0.00  0.00    -0.060 NA
ENDROOT
BRANCH   1  10
ATOM      6  C   UNL     1       0.523   1.253  -1.258  0.00  0.00    +0.044 C 
ATOM      7  C   UNL     1       0.415  -0.241  -1.090  0.00  0.00    -0.050 A 
ATOM      8  C   UNL     1       0.497  -1.068  -2.195  0.00  0.00    +0.005 A 
ATOM      9  C   UNL     1       0.398  -2.437  -2.043  0.00  0.00    +0.028 A 
ATOM     10  C   UNL     1       0.217  -2.983  -0.780  0.00  0.00    +0.067 A 
ATOM     11  C   UNL     1       0.136  -2.150   0.328  0.00  0.00    +0.028 A 
ATOM     12  C   UNL     1       0.241  -0.782   0.171  0.00  0.00    +0.005 A 
ENDBRANCH   1  10
BRANCH   3  13
ATOM     13  C   UNL     1       0.568  -7.557   1.024  0.00  0.00    +0.270 C 
ATOM     14  O   UNL     1       1.060  -7.378   2.121  0.00  0.00    -0.268 OA
ATOM     15  N   UNL     1       0.304  -8.809   0.600  0.00  0.00    -0.278 N 
ATOM     16  H   UNL     1      -0.011  -8.959  -0.305  0.00  0.00    +0.155 HD
BRANCH  15  17
ATOM     17  C   UNL     1       0.484  -9.894   1.468  0.00  0.00    +0.072 A 
ATOM     18  C   UNL     1       0.430  -9.703   2.841  0.00  0.00    +0.029 A 
ATOM     19  C   UNL     1       0.609 -10.774   3.696  0.00  0.00    +0.043 A 
ATOM     20  C   UNL     1       0.842 -12.039   3.185  0.00  0.00    +0.161 A 
ATOM     21  C   UNL     1       0.896 -12.235   1.813  0.00  0.00    +0.195 A 
ATOM     22  C   UNL     1       0.713 -11.165   0.953  0.00  0.00    +0.182 A 
ATOM     23  F   UNL     1       0.760 -11.356  -0.383  0.00  0.00    -0.200 F 
ATOM     24  F   UNL     1       1.124 -13.470   1.316  0.00  0.00    -0.199 F 
ATOM     25  F   UNL     1       1.016 -13.084   4.023  0.00  0.00    -0.202 F 
ENDBRANCH  15  17
ENDBRANCH   3  13
BRANCH   2  26
ATOM     26  C   UNL     1       1.290  -4.577   1.636  0.00  0.00    +0.034 C 
ATOM     27  C   UNL     1       0.457  -4.871   2.885  0.00  0.00    +0.014 C 
ATOM     28  C   UNL     1       2.653  -5.262   1.759  0.00  0.00    +0.014 C 
ENDBRANCH   2  26
TORSDOF 4
