REMARK  Name = ZINC13023314
REMARK  11 active torsions:
REMARK  status: ('A' for Active; 'I' for Inactive)
REMARK    1  A    between atoms: C_1  and  C_2
REMARK    2  A    between atoms: C_2  and  C_3
REMARK    3  A    between atoms: C_10  and  C_15
REMARK    4  A    between atoms: C_15  and  C_17
REMARK    5  A    between atoms: C_15  and  N_66
REMARK    6  A    between atoms: N_21  and  C_22
REMARK    7  A    between atoms: C_22  and  C_23
REMARK    8  A    between atoms: C_30  and  C_33
REMARK    9  A    between atoms: C_33  and  O_35
REMARK   10  A    between atoms: O_35  and  C_36
REMARK   11  A    between atoms: C_36  and  C_37
REMARK                            x       y       z     vdW  Elec       q    Type
REMARK                         _______ _______ _______ _____ _____    ______ ____
ROOT
ATOM      1  C   UNL     1       6.159  -0.614  -0.059  0.00  0.00    +0.039 C 
ENDROOT
BRANCH   1   9
ATOM      2  C   UNL     1       1.324   2.674  -2.084  0.00  0.00    -0.047 A 
ATOM      3  C   UNL     1       0.574   2.580  -0.919  0.00  0.00    +0.005 A 
ATOM      4  C   UNL     1       1.053   1.890   0.173  0.00  0.00    +0.026 A 
ATOM      5  C   UNL     1       2.302   1.281   0.110  0.00  0.00    +0.049 A 
ATOM      6  C   UNL     1       3.060   1.378  -1.072  0.00  0.00    -0.001 A 
ATOM      7  C   UNL     1       2.553   2.083  -2.168  0.00  0.00    +0.013 A 
ATOM      8  C   UNL     1       4.373   0.732  -1.128  0.00  0.00    +0.017 A 
ATOM      9  C   UNL     1       4.812   0.062  -0.034  0.00  0.00    +0.011 A 
ATOM     10  C   UNL     1       4.013  -0.006   1.127  0.00  0.00    +0.251 A 
ATOM     11  O   UNL     1       4.427  -0.614   2.099  0.00  0.00    -0.268 OA
ATOM     12  N   UNL     1       2.806   0.584   1.188  0.00  0.00    -0.322 N 
ATOM     13  H   UNL     1       2.282   0.517   2.002  0.00  0.00    +0.169 HD
BRANCH   2  15
ATOM     14  C   UNL     1       1.207   4.899  -3.172  0.00  0.00    +0.009 C 
ATOM     15  C   UNL     1       0.778   3.433  -3.265  0.00  0.00    +0.032 C 
ENDBRANCH   2  15
ENDBRANCH   1   9
BRANCH   1  21
ATOM     16  C   UNL     1       7.132   1.407   0.852  0.00  0.00    -0.077 C 
ATOM     17  C   UNL     1       7.901   1.977   2.046  0.00  0.00    -0.004 C 
ATOM     18  C   UNL     1       9.288   1.333   2.109  0.00  0.00    +0.094 C 
ATOM     19  C   UNL     1       9.133  -0.186   2.211  0.00  0.00    -0.004 C 
ATOM     20  C   UNL     1       8.329  -0.694   1.012  0.00  0.00    -0.077 C 
ATOM     21  N   UNL     1       6.996  -0.055   1.023  0.00  0.00    +0.389 N 
ATOM     22  H   UNL     1       6.544  -0.244   1.925  0.00  0.00    -0.080 HD
BRANCH  18  23
ATOM     23  C   UNL     1      10.029   1.846   3.316  0.00  0.00    +0.310 C 
ATOM     24  O   UNL     1      10.396   1.076   4.172  0.00  0.00    -0.251 OA
BRANCH  23  25
ATOM     25  O   UNL     1      10.282   3.159   3.442  0.00  0.00    -0.465 OA
BRANCH  25  26
ATOM     26  C   UNL     1      11.000   3.582   4.631  0.00  0.00    +0.229 C 
ATOM     27  C   UNL     1      11.193   5.099   4.598  0.00  0.00    +0.048 C 
ENDBRANCH  25  26
ENDBRANCH  23  25
ENDBRANCH  18  23
ENDBRANCH   1  21
BRANCH   1  28
ATOM     28  C   UNL     1       6.809  -0.391  -1.400  0.00  0.00    +0.143 A 
ATOM     29  N   UNL     1       7.363   0.718  -1.826  0.00  0.00    -0.115 NA
ATOM     30  N   UNL     1       7.804   0.510  -3.019  0.00  0.00    -0.023 NA
ATOM     31  N   UNL     1       7.547  -0.703  -3.364  0.00  0.00    -0.044 NA
ATOM     32  N   UNL     1       6.939  -1.293  -2.391  0.00  0.00    -0.223 N 
BRANCH  32  33
ATOM     33  C   UNL     1       6.473  -2.682  -2.369  0.00  0.00    +0.221 C 
BRANCH  33  34
ATOM     34  C   UNL     1       5.064  -2.747  -2.899  0.00  0.00    +0.126 A 
ATOM     35  C   UNL     1       4.715  -2.921  -4.186  0.00  0.00    +0.046 A 
ATOM     36  C   UNL     1       3.301  -2.923  -4.231  0.00  0.00    +0.041 A 
ATOM     37  C   UNL     1       2.871  -2.742  -2.969  0.00  0.00    +0.195 A 
ATOM     38  O   UNL     1       3.943  -2.636  -2.167  0.00  0.00    -0.466 OA
ENDBRANCH  33  34
ENDBRANCH  32  33
ENDBRANCH   1  28
TORSDOF 9
