REMARK  Name = ZINC67043068
REMARK  8 active torsions:
REMARK  status: ('A' for Active; 'I' for Inactive)
REMARK    1  A    between atoms: C_1  and  C_2
REMARK    2  A    between atoms: C_5  and  C_9
REMARK    3  A    between atoms: N_11  and  C_12
REMARK    4  A    between atoms: C_12  and  C_13
REMARK    5  A    between atoms: C_13  and  N_14
REMARK    6  A    between atoms: N_17  and  N_18
REMARK    7  A    between atoms: C_19  and  C_21
REMARK    8  A    between atoms: C_21  and  C_22
REMARK                            x       y       z     vdW  Elec       q    Type
REMARK                         _______ _______ _______ _____ _____    ______ ____
ROOT
ATOM      1  N   UNL     1       0.125  -8.384   2.557  0.00  0.00    -0.297 N 
ATOM      2  C   UNL     1       0.140  -9.066   3.720  0.00  0.00    +0.316 C 
ATOM      3  O   UNL     1       0.137  -8.465   4.777  0.00  0.00    -0.251 OA
ATOM      4  N   UNL     1       0.157 -10.414   3.710  0.00  0.00    -0.218 N 
ATOM      5  H   UNL     1       0.127  -8.863   1.714  0.00  0.00    +0.150 HD
ATOM      6  H   UNL     1       0.168 -10.904   4.547  0.00  0.00    +0.174 HD
ENDROOT
BRANCH   4   7
ATOM      7  N   UNL     1       0.160 -11.106   2.492  0.00  0.00    -0.233 N 
ATOM      8  C   UNL     1       0.177 -12.453   2.483  0.00  0.00    +0.229 C 
ATOM      9  O   UNL     1       0.190 -13.067   3.529  0.00  0.00    -0.274 OA
ATOM     10  H   UNL     1       0.149 -10.615   1.655  0.00  0.00    +0.173 HD
BRANCH   8  11
ATOM     11  C   UNL     1       0.180 -13.198   1.173  0.00  0.00    +0.101 C 
BRANCH  11  12
ATOM     12  C   UNL     1       0.201 -14.704   1.442  0.00  0.00    -0.002 C 
ATOM     13  C   UNL     1       1.517 -15.082   2.125  0.00  0.00    +0.004 C 
ATOM     14  C   UNL     1       1.538 -16.588   2.394  0.00  0.00    +0.000 C 
ATOM     15  C   UNL     1       1.415 -17.344   1.070  0.00  0.00    +0.000 C 
ATOM     16  C   UNL     1       0.099 -16.966   0.387  0.00  0.00    +0.000 C 
ATOM     17  C   UNL     1       0.078 -15.460   0.117  0.00  0.00    +0.004 C 
ENDBRANCH  11  12
ENDBRANCH   8  11
ENDBRANCH   4   7
BRANCH   1  18
ATOM     18  C   UNL     1       0.106  -6.919   2.567  0.00  0.00    +0.124 C 
BRANCH  18  19
ATOM     19  C   UNL     1       0.092  -6.400   1.128  0.00  0.00    +0.123 C 
BRANCH  19  22
ATOM     20  C   UNL     1       0.058  -4.253  -0.024  0.00  0.00    +0.244 C 
ATOM     21  O   UNL     1       0.061  -4.853  -1.081  0.00  0.00    -0.270 OA
ATOM     22  N   UNL     1       0.073  -4.935   1.138  0.00  0.00    -0.310 N 
ATOM     23  H   UNL     1       0.071  -4.455   1.982  0.00  0.00    +0.149 HD
BRANCH  20  28
ATOM     24  C   UNL     1      -0.018   1.503   0.010  0.00  0.00    +0.047 C 
ATOM     25  C   UNL     1       0.002  -0.004   0.002  0.00  0.00    -0.015 A 
ATOM     26  C   UNL     1       0.006  -0.686  -1.201  0.00  0.00    +0.007 A 
ATOM     27  C   UNL     1       0.024  -2.066  -1.216  0.00  0.00    +0.013 A 
ATOM     28  C   UNL     1       0.039  -2.775  -0.014  0.00  0.00    +0.039 A 
ATOM     29  C   UNL     1       0.036  -2.083   1.198  0.00  0.00    +0.051 A 
ATOM     30  C   UNL     1       0.023  -0.700   1.200  0.00  0.00    +0.127 A 
ATOM     31  F   UNL     1       0.025  -0.028   2.371  0.00  0.00    -0.205 F 
ENDBRANCH  20  28
ENDBRANCH  19  22
ENDBRANCH  18  19
ENDBRANCH   1  18
TORSDOF 7
