REMARK  Name = ZINC16569808
REMARK  5 active torsions:
REMARK  status: ('A' for Active; 'I' for Inactive)
REMARK    1  A    between atoms: C_4  and  C_7
REMARK    2  A    between atoms: C_21  and  C_23
REMARK    3  A    between atoms: C_23  and  N_24
REMARK    4  A    between atoms: N_24  and  C_25
REMARK    5  A    between atoms: N_30  and  C_31
REMARK                            x       y       z     vdW  Elec       q    Type
REMARK                         _______ _______ _______ _____ _____    ______ ____
ROOT
ATOM      1  C   UNL     1      -1.294   3.671   0.306  0.00  0.00    +0.159 C 
ATOM      2  C   UNL     1       0.154   3.336   0.576  0.00  0.00    +0.049 A 
ATOM      3  C   UNL     1       0.726   2.148   0.799  0.00  0.00    +0.025 A 
ATOM      4  C   UNL     1       2.104   2.376   1.007  0.00  0.00    +0.020 A 
ATOM      5  C   UNL     1       2.318   3.707   0.899  0.00  0.00    +0.092 A 
ATOM      6  N   UNL     1       1.132   4.304   0.632  0.00  0.00    -0.316 N 
ATOM      7  C   UNL     1       0.828   5.658   0.424  0.00  0.00    +0.068 A 
ATOM      8  C   UNL     1       1.728   6.661   0.724  0.00  0.00    +0.028 A 
ATOM      9  C   UNL     1       1.379   7.983   0.510  0.00  0.00    +0.002 A 
ATOM     10  C   UNL     1       0.133   8.298  -0.001  0.00  0.00    +0.002 A 
ATOM     11  C   UNL     1      -0.771   7.299  -0.306  0.00  0.00    +0.025 A 
ATOM     12  C   UNL     1      -0.430   5.971  -0.102  0.00  0.00    +0.061 A 
ATOM     13  N   UNL     1      -1.328   4.946  -0.430  0.00  0.00    -0.255 N 
ATOM     14  C   UNL     1      -2.225   5.129  -1.419  0.00  0.00    +0.238 C 
ATOM     15  O   UNL     1      -2.296   6.201  -1.983  0.00  0.00    -0.273 OA
ENDROOT
BRANCH   1  19
ATOM     16  C   UNL     1      -3.399   4.069   4.001  0.00  0.00    +0.000 A 
ATOM     17  C   UNL     1      -3.495   2.897   3.274  0.00  0.00    +0.000 A 
ATOM     18  C   UNL     1      -2.813   2.768   2.078  0.00  0.00    +0.006 A 
ATOM     19  C   UNL     1      -2.037   3.811   1.609  0.00  0.00    -0.021 A 
ATOM     20  C   UNL     1      -1.937   4.981   2.339  0.00  0.00    +0.006 A 
ATOM     21  C   UNL     1      -2.622   5.111   3.533  0.00  0.00    +0.000 A 
ENDBRANCH   1  19
BRANCH  14  22
ATOM     22  C   UNL     1      -3.140   4.002  -1.824  0.00  0.00    +0.205 C 
BRANCH  22  23
ATOM     23  N   UNL     1      -3.938   4.414  -2.981  0.00  0.00    -0.274 N 
ATOM     24  C   UNL     1      -3.481   4.191  -4.229  0.00  0.00    +0.307 C 
ATOM     25  O   UNL     1      -4.064   4.668  -5.184  0.00  0.00    -0.252 OA
ATOM     26  N   UNL     1      -2.378   3.441  -4.419  0.00  0.00    -0.269 N 
ATOM     27  H   UNL     1      -1.979   2.967  -3.672  0.00  0.00    +0.156 HD
BRANCH  26  28
ATOM     28  C   UNL     1      -1.807   3.345  -5.694  0.00  0.00    +0.036 A 
ATOM     29  C   UNL     1      -1.889   4.416  -6.575  0.00  0.00    +0.023 A 
ATOM     30  C   UNL     1      -1.321   4.321  -7.830  0.00  0.00    +0.003 A 
ATOM     31  C   UNL     1      -0.679   3.158  -8.214  0.00  0.00    +0.020 A 
ATOM     32  C   UNL     1      -0.600   2.087  -7.341  0.00  0.00    +0.043 A 
ATOM     33  C   UNL     1      -1.163   2.178  -6.081  0.00  0.00    +0.043 A 
ATOM     34 CL   UNL     1       0.206   0.628  -7.827  0.00  0.00    -0.083 Cl
ENDBRANCH  26  28
BRANCH  23  35
ATOM     35  C   UNL     1      -5.234   5.067  -2.782  0.00  0.00    +0.078 C 
ATOM     36  C   UNL     1      -6.174   5.156  -3.986  0.00  0.00    +0.024 C 
ATOM     37  C   UNL     1      -5.462   6.412  -3.476  0.00  0.00    +0.024 C 
ENDBRANCH  23  35
ENDBRANCH  22  23
ENDBRANCH  14  22
TORSDOF 5
