REMARK  Name = ZINC19631811
REMARK  9 active torsions:
REMARK  status: ('A' for Active; 'I' for Inactive)
REMARK    1  A    between atoms: C_1  and  C_2
REMARK    2  A    between atoms: C_2  and  O_3
REMARK    3  A    between atoms: O_3  and  C_4
REMARK    4  A    between atoms: C_4  and  C_6
REMARK    5  A    between atoms: C_10  and  N_11
REMARK    6  A    between atoms: C_12  and  C_14
REMARK    7  A    between atoms: C_20  and  O_25
REMARK    8  A    between atoms: O_25  and  C_26
REMARK    9  A    between atoms: C_28  and  C_32
REMARK                            x       y       z     vdW  Elec       q    Type
REMARK                         _______ _______ _______ _____ _____    ______ ____
ROOT
ATOM      1  N   UNL     1       1.143   1.902   0.001  0.00  0.00    -0.275 N 
ATOM      2  C   UNL     1      -0.014   1.212   0.009  0.00  0.00    +0.254 C 
ATOM      3  O   UNL     1       0.002  -0.004   0.002  0.00  0.00    -0.270 OA
ATOM      4  H   UNL     1       1.129   3.002   0.007  0.00  0.00    +0.156 HD
ENDROOT
BRANCH   2   5
ATOM      5  C   UNL     1      -1.298   1.931   0.019  0.00  0.00    +0.097 A 
ATOM      6  C   UNL     1      -1.332   3.312   0.026  0.00  0.00    +0.030 A 
ATOM      7  C   UNL     1      -2.638   3.973   0.036  0.00  0.00    +0.022 A 
ATOM      8  C   UNL     1      -2.725   5.372   0.044  0.00  0.00    +0.012 A 
ATOM      9  C   UNL     1      -3.949   5.979   0.052  0.00  0.00    +0.004 A 
ATOM     10  C   UNL     1      -5.110   5.221   0.053  0.00  0.00    +0.049 A 
ATOM     11  C   UNL     1      -5.049   3.838   0.045  0.00  0.00    +0.163 A 
ATOM     12  C   UNL     1      -3.810   3.198   0.036  0.00  0.00    +0.179 A 
ATOM     13  O   UNL     1      -3.747   1.848   0.029  0.00  0.00    -0.435 OA
ATOM     14  C   UNL     1      -2.572   1.191   0.015  0.00  0.00    +0.205 A 
ATOM     15  N   UNL     1      -2.561  -0.115   0.002  0.00  0.00    -0.369 N 
ATOM     16  H   UNL     1      -3.510  -0.673  -0.001  0.00  0.00    +0.159 HD
ATOM     17  H   UNL     1      -1.604  -0.657  -0.005  0.00  0.00    +0.159 HD
BRANCH  11  18
ATOM     18  O   UNL     1      -6.194   3.106   0.047  0.00  0.00    -0.491 OA
ATOM     19  C   UNL     1      -7.427   3.829   0.056  0.00  0.00    +0.277 C 
ENDBRANCH  11  18
ENDBRANCH   2   5
BRANCH   1  24
ATOM     20  C   UNL     1       3.636   1.754  -0.029  0.00  0.00    +0.091 A 
ATOM     21  C   UNL     1       4.747   0.817  -0.038  0.00  0.00    -0.021 A 
ATOM     22  C   UNL     1       4.399  -0.488  -0.042  0.00  0.00    -0.004 A 
ATOM     23  S   UNL     1       2.629  -0.484  -0.026  0.00  0.00    -0.077 S 
ATOM     24  C   UNL     1       2.352   1.226  -0.014  0.00  0.00    +0.087 A 
ATOM     25  C   UNL     1       5.320  -1.668  -0.056  0.00  0.00    +0.046 C 
ATOM     26  C   UNL     1       6.731  -1.186   0.313  0.00  0.00    -0.009 C 
ATOM     27  C   UNL     1       7.061   0.056  -0.520  0.00  0.00    +0.008 C 
ATOM     28  C   UNL     1       6.212   1.239  -0.051  0.00  0.00    +0.037 C 
ATOM     29  C   UNL     1       7.746  -2.290   0.011  0.00  0.00    +0.008 C 
BRANCH  20  30
ATOM     30  C   UNL     1       3.863   3.201  -0.030  0.00  0.00    +0.342 C 
ATOM     31  O   UNL     1       3.970   3.801   1.022  0.00  0.00    -0.245 OA
BRANCH  30  32
ATOM     32  O   UNL     1       3.953   3.868  -1.199  0.00  0.00    -0.461 OA
BRANCH  32  34
ATOM     33  C   UNL     1       4.251   5.880  -2.539  0.00  0.00    +0.048 C 
ATOM     34  C   UNL     1       4.178   5.301  -1.125  0.00  0.00    +0.229 C 
ENDBRANCH  32  34
ENDBRANCH  30  32
ENDBRANCH  20  30
ENDBRANCH   1  24
TORSDOF 6
