REMARK  Name = ZINC33258630
REMARK  7 active torsions:
REMARK  status: ('A' for Active; 'I' for Inactive)
REMARK    1  A    between atoms: C_1  and  C_2
REMARK    2  A    between atoms: C_3  and  C_23
REMARK    3  A    between atoms: N_5  and  C_7
REMARK    4  A    between atoms: C_10  and  C_13
REMARK    5  A    between atoms: C_15  and  C_18
REMARK    6  A    between atoms: N_25  and  C_26
REMARK    7  A    between atoms: C_26  and  C_27
REMARK                            x       y       z     vdW  Elec       q    Type
REMARK                         _______ _______ _______ _____ _____    ______ ____
ROOT
ATOM      1  C   UNL     1       0.552   0.692  -5.422  0.00  0.00    +0.068 C 
ATOM      2  C   UNL     1      -0.628   1.502  -4.950  0.00  0.00    +0.072 A 
ATOM      3  C   UNL     1      -0.981   1.747  -3.603  0.00  0.00    +0.077 A 
ATOM      4  C   UNL     1      -2.122   2.523  -3.616  0.00  0.00    +0.127 A 
ATOM      5  N   UNL     1      -2.442   2.747  -4.904  0.00  0.00    -0.239 N 
ATOM      6  N   UNL     1      -1.501   2.100  -5.713  0.00  0.00    -0.171 NA
ENDROOT
BRANCH   5   7
ATOM      7  C   UNL     1      -3.534   3.496  -5.358  0.00  0.00    +0.065 A 
ATOM      8  C   UNL     1      -4.400   4.085  -4.443  0.00  0.00    +0.028 A 
ATOM      9  C   UNL     1      -5.473   4.828  -4.888  0.00  0.00    +0.014 A 
ATOM     10  C   UNL     1      -5.696   4.978  -6.256  0.00  0.00    +0.023 A 
ATOM     11  C   UNL     1      -4.830   4.382  -7.171  0.00  0.00    +0.014 A 
ATOM     12  C   UNL     1      -3.755   3.645  -6.721  0.00  0.00    +0.028 A 
BRANCH  10  13
ATOM     13  C   UNL     1      -6.853   5.772  -6.737  0.00  0.00    +0.202 A 
ATOM     14  N   UNL     1      -7.773   6.398  -5.967  0.00  0.00    -0.191 NA
ATOM     15  C   UNL     1      -8.601   6.971  -6.805  0.00  0.00    +0.231 A 
ATOM     16  O   UNL     1      -8.178   6.678  -8.039  0.00  0.00    -0.337 OA
ATOM     17  N   UNL     1      -7.179   5.993  -7.984  0.00  0.00    -0.056 NA
BRANCH  15  18
ATOM     18  C   UNL     1      -9.807   7.799  -6.445  0.00  0.00    +0.078 C 
ATOM     19  C   UNL     1     -11.075   7.190  -7.081  0.00  0.00    +0.013 C 
ATOM     20  C   UNL     1     -11.921   8.420  -7.493  0.00  0.00    +0.001 C 
ATOM     21  C   UNL     1     -10.849   9.422  -7.989  0.00  0.00    +0.001 C 
ATOM     22  C   UNL     1      -9.664   9.218  -7.023  0.00  0.00    +0.013 C 
ENDBRANCH  15  18
ENDBRANCH  10  13
ENDBRANCH   5   7
BRANCH   3  23
ATOM     23  C   UNL     1      -0.268   1.258  -2.409  0.00  0.00    +0.248 C 
ATOM     24  O   UNL     1       0.729   0.573  -2.534  0.00  0.00    -0.270 OA
ATOM     25  N   UNL     1      -0.721   1.571  -1.179  0.00  0.00    -0.307 N 
ATOM     26  H   UNL     1      -1.623   2.191  -1.066  0.00  0.00    +0.149 HD
BRANCH  25  27
ATOM     27  C   UNL     1      -0.013   1.086   0.008  0.00  0.00    +0.139 C 
BRANCH  27  28
ATOM     28  C   UNL     1      -0.718   1.572   1.248  0.00  0.00    -0.030 A 
ATOM     29  C   UNL     1      -0.360   2.779   1.818  0.00  0.00    +0.006 A 
ATOM     30  C   UNL     1      -1.010   3.228   2.952  0.00  0.00    +0.020 A 
ATOM     31  C   UNL     1      -2.012   2.464   3.523  0.00  0.00    +0.041 A 
ATOM     32  C   UNL     1      -2.367   1.253   2.955  0.00  0.00    +0.020 A 
ATOM     33  C   UNL     1      -1.719   0.808   1.817  0.00  0.00    +0.006 A 
ATOM     34 CL   UNL     1      -2.825   3.024   4.951  0.00  0.00    -0.084 Cl
ENDBRANCH  27  28
ENDBRANCH  25  27
ENDBRANCH   3  23
TORSDOF 6
