REMARK  Name = ZINC27527876
REMARK  14 active torsions:
REMARK  status: ('A' for Active; 'I' for Inactive)
REMARK    1  A    between atoms: C_1  and  C_2
REMARK    2  A    between atoms: C_2  and  C_3
REMARK    3  A    between atoms: C_3  and  C_4
REMARK    4  A    between atoms: C_4  and  N_5
REMARK    5  A    between atoms: N_5  and  C_6
REMARK    6  A    between atoms: N_5  and  C_10
REMARK    7  A    between atoms: C_6  and  C_7
REMARK    8  A    between atoms: C_7  and  C_8
REMARK    9  A    between atoms: C_8  and  C_9
REMARK   10  A    between atoms: C_10  and  N_11
REMARK   11  A    between atoms: N_19  and  C_20
REMARK   12  A    between atoms: C_21  and  C_37
REMARK   13  A    between atoms: C_22  and  C_31
REMARK   14  A    between atoms: C_23  and  C_25
REMARK                            x       y       z     vdW  Elec       q    Type
REMARK                         _______ _______ _______ _____ _____    ______ ____
ROOT
ATOM      1  N   UNL     1      -4.434  -0.967   2.169  0.00  0.00    -0.252 N 
ATOM      2  C   UNL     1      -3.808   0.223   2.523  0.00  0.00    +0.047 A 
ATOM      3  C   UNL     1      -2.579   0.477   3.122  0.00  0.00    +0.024 A 
ATOM      4  C   UNL     1      -2.185   1.777   3.371  0.00  0.00    +0.002 A 
ATOM      5  C   UNL     1      -3.004   2.841   3.029  0.00  0.00    +0.001 A 
ATOM      6  C   UNL     1      -4.227   2.610   2.434  0.00  0.00    +0.012 A 
ATOM      7  C   UNL     1      -4.634   1.303   2.178  0.00  0.00    +0.027 A 
ATOM      8  C   UNL     1      -5.849   0.722   1.571  0.00  0.00    +0.139 C 
ATOM      9  N   UNL     1      -6.899   1.369   1.099  0.00  0.00    -0.206 NA
ATOM     10  C   UNL     1      -5.631  -0.740   1.601  0.00  0.00    +0.271 C 
ATOM     11  O   UNL     1      -6.400  -1.587   1.188  0.00  0.00    -0.268 OA
ENDROOT
BRANCH   9  12
ATOM     12  C   UNL     1      -7.967   0.688   0.674  0.00  0.00    +0.240 A 
ATOM     13  C   UNL     1      -9.109   0.396   1.431  0.00  0.00    +0.125 A 
ATOM     14  C   UNL     1      -9.974  -0.338   0.577  0.00  0.00    +0.048 A 
ATOM     15  C   UNL     1      -9.321  -0.453  -0.642  0.00  0.00    +0.147 A 
ATOM     16  O   UNL     1      -8.133   0.170  -0.558  0.00  0.00    -0.436 OA
BRANCH  15  17
ATOM     17  C   UNL     1      -9.846  -1.141  -1.834  0.00  0.00    +0.018 A 
ATOM     18  C   UNL     1     -11.153  -0.899  -2.267  0.00  0.00    +0.011 A 
ATOM     19  C   UNL     1     -11.637  -1.547  -3.384  0.00  0.00    +0.001 A 
ATOM     20  C   UNL     1     -10.833  -2.436  -4.075  0.00  0.00    +0.000 A 
ATOM     21  C   UNL     1      -9.538  -2.682  -3.652  0.00  0.00    +0.001 A 
ATOM     22  C   UNL     1      -9.038  -2.037  -2.541  0.00  0.00    +0.011 A 
ENDBRANCH  15  17
BRANCH  14  23
ATOM     23  C   UNL     1     -11.311  -0.875   0.920  0.00  0.00    -0.013 A 
ATOM     24  C   UNL     1     -11.516  -2.253   0.985  0.00  0.00    +0.008 A 
ATOM     25  C   UNL     1     -12.764  -2.748   1.305  0.00  0.00    +0.001 A 
ATOM     26  C   UNL     1     -13.810  -1.880   1.561  0.00  0.00    +0.000 A 
ATOM     27  C   UNL     1     -13.613  -0.512   1.498  0.00  0.00    +0.001 A 
ATOM     28  C   UNL     1     -12.369  -0.005   1.185  0.00  0.00    +0.008 A 
ENDBRANCH  14  23
BRANCH  13  29
ATOM     29  C   UNL     1      -9.355   0.763   2.793  0.00  0.00    +0.105 C 
ATOM     30  N   UNL     1      -9.550   1.055   3.874  0.00  0.00    -0.191 NA
ENDBRANCH  13  29
ENDBRANCH   9  12
BRANCH   1  31
ATOM     31  C   UNL     1      -3.860  -2.298   2.381  0.00  0.00    +0.201 C 
BRANCH  31  32
ATOM     32  N   UNL     1      -2.941  -2.616   1.280  0.00  0.00    -0.287 NA
BRANCH  32  33
ATOM     33  C   UNL     1      -1.931  -3.595   1.703  0.00  0.00    +0.086 C 
BRANCH  33  34
ATOM     34  C   UNL     1      -0.930  -2.921   2.644  0.00  0.00    +0.015 C 
BRANCH  34  36
ATOM     35  C   UNL     1       1.130  -3.271   4.013  0.00  0.00    +0.004 C 
ATOM     36  C   UNL     1       0.196  -3.901   2.978  0.00  0.00    -0.002 C 
ENDBRANCH  34  36
ENDBRANCH  33  34
ENDBRANCH  32  33
BRANCH  32  37
ATOM     37  C   UNL     1      -3.677  -3.095   0.102  0.00  0.00    +0.086 C 
BRANCH  37  38
ATOM     38  C   UNL     1      -2.727  -3.179  -1.094  0.00  0.00    +0.015 C 
BRANCH  38  39
ATOM     39  C   UNL     1      -3.494  -3.678  -2.321  0.00  0.00    -0.002 C 
ATOM     40  C   UNL     1      -2.543  -3.761  -3.517  0.00  0.00    +0.004 C 
ENDBRANCH  38  39
ENDBRANCH  37  38
ENDBRANCH  32  37
ENDBRANCH  31  32
ENDBRANCH   1  31
TORSDOF 12
