REMARK  Name = ZINC09358089
REMARK  10 active torsions:
REMARK  status: ('A' for Active; 'I' for Inactive)
REMARK    1  A    between atoms: C_1  and  C_2
REMARK    2  A    between atoms: C_2  and  N_3
REMARK    3  A    between atoms: C_7  and  C_33
REMARK    4  A    between atoms: C_8  and  C_32
REMARK    5  A    between atoms: C_12  and  S_13
REMARK    6  A    between atoms: S_13  and  C_14
REMARK    7  A    between atoms: C_14  and  C_15
REMARK    8  A    between atoms: N_17  and  N_18
REMARK    9  A    between atoms: C_21  and  C_25
REMARK   10  A    between atoms: C_21  and  C_26
REMARK                            x       y       z     vdW  Elec       q    Type
REMARK                         _______ _______ _______ _____ _____    ______ ____
ROOT
ATOM      1  C   UNL     1      -5.314   1.959   0.038  0.00  0.00    +0.240 C 
ATOM      2  O   UNL     1      -5.475   0.757   0.032  0.00  0.00    -0.273 OA
ATOM      3  N   UNL     1      -6.381   2.782   0.048  0.00  0.00    -0.223 N 
ATOM      4  H   UNL     1      -6.253   3.743   0.052  0.00  0.00    +0.174 HD
ENDROOT
BRANCH   3   5
ATOM      5  N   UNL     1      -7.677   2.249   0.051  0.00  0.00    -0.137 N 
ATOM      6  C   UNL     1      -8.482   2.221   1.132  0.00  0.00    +0.267 C 
ATOM      7  O   UNL     1      -8.230   2.637   2.243  0.00  0.00    -0.271 OA
ATOM      8  C   UNL     1      -9.766   1.563   0.670  0.00  0.00    +0.137 C 
ATOM      9  N   UNL     1      -9.512   1.267  -0.751  0.00  0.00    -0.280 N 
ATOM     10  C   UNL     1      -8.270   1.709  -1.020  0.00  0.00    +0.327 C 
ATOM     11  O   UNL     1      -7.744   1.623  -2.112  0.00  0.00    -0.251 OA
ATOM     12  C   UNL     1     -10.022   0.274   1.453  0.00  0.00    +0.047 C 
ATOM     13  H   UNL     1     -10.123   0.841  -1.373  0.00  0.00    +0.152 HD
BRANCH   8  14
ATOM     14  C   UNL     1     -10.930   2.509   0.815  0.00  0.00    -0.015 A 
ATOM     15  C   UNL     1     -10.924   3.463   1.815  0.00  0.00    +0.006 A 
ATOM     16  C   UNL     1     -11.989   4.335   1.945  0.00  0.00    +0.000 A 
ATOM     17  C   UNL     1     -13.064   4.246   1.081  0.00  0.00    +0.000 A 
ATOM     18  C   UNL     1     -13.073   3.288   0.084  0.00  0.00    +0.000 A 
ATOM     19  C   UNL     1     -12.005   2.420  -0.049  0.00  0.00    +0.006 A 
ENDBRANCH   8  14
ENDBRANCH   3   5
BRANCH   1  20
ATOM     20  C   UNL     1      -3.920   2.533   0.035  0.00  0.00    +0.174 C 
BRANCH  20  21
ATOM     21  S   UNL     1      -2.713   1.184   0.021  0.00  0.00    -0.078 S 
BRANCH  21  31
ATOM     22  N   UNL     1      -0.018   1.461   0.010  0.00  0.00    -0.288 N 
ATOM     23  C   UNL     1       1.146   2.137   0.003  0.00  0.00    +0.263 A 
ATOM     24  O   UNL     1       2.208   1.538  -0.011  0.00  0.00    -0.267 OA
ATOM     25  C   UNL     1       1.121   3.567   0.010  0.00  0.00    +0.075 A 
ATOM     26  C   UNL     1       2.229   4.506   0.004  0.00  0.00    -0.026 A 
ATOM     27  C   UNL     1       1.972   5.823   0.013  0.00  0.00    -0.008 A 
ATOM     28  S   UNL     1       0.191   5.897   0.030  0.00  0.00    -0.073 S 
ATOM     29  C   UNL     1      -0.158   4.157   0.025  0.00  0.00    +0.117 A 
ATOM     30  N   UNL     1      -1.269   3.431   0.032  0.00  0.00    -0.216 NA
ATOM     31  C   UNL     1      -1.216   2.114   0.019  0.00  0.00    +0.173 A 
ATOM     32  C   UNL     1       2.954   6.966   0.008  0.00  0.00    +0.052 C 
ATOM     33  C   UNL     1       3.651   4.007  -0.011  0.00  0.00    +0.045 C 
BRANCH  22  35
ATOM     34  C   UNL     1       0.023  -0.522   1.442  0.00  0.00    +0.027 C 
ATOM     35  C   UNL     1       0.002  -0.004   0.002  0.00  0.00    +0.124 C 
ENDBRANCH  22  35
ENDBRANCH  21  31
ENDBRANCH  20  21
ENDBRANCH   1  20
TORSDOF 6
