REMARK  Name = ZINC40744519
REMARK  9 active torsions:
REMARK  status: ('A' for Active; 'I' for Inactive)
REMARK    1  A    between atoms: C_3  and  C_9
REMARK    2  A    between atoms: C_9  and  O_10
REMARK    3  A    between atoms: O_10  and  C_11
REMARK    4  A    between atoms: C_16  and  C_17
REMARK    5  A    between atoms: C_17  and  N_18
REMARK    6  A    between atoms: N_18  and  C_19
REMARK    7  A    between atoms: C_19  and  C_20
REMARK    8  A    between atoms: C_20  and  N_21
REMARK    9  A    between atoms: C_22  and  C_24
REMARK                            x       y       z     vdW  Elec       q    Type
REMARK                         _______ _______ _______ _____ _____    ______ ____
ROOT
ATOM      1  C   UNL     1       2.855   6.361   0.006  0.00  0.00    -0.043 C 
ENDROOT
BRANCH   1   7
ATOM      2  C   UNL     1       4.455   4.431  -0.019  0.00  0.00    +0.122 A 
ATOM      3  C   UNL     1       5.745   3.920  -0.041  0.00  0.00    +0.047 A 
ATOM      4  C   UNL     1       6.827   4.779  -0.047  0.00  0.00    +0.019 A 
ATOM      5  C   UNL     1       6.625   6.148  -0.033  0.00  0.00    +0.018 A 
ATOM      6  C   UNL     1       5.339   6.659  -0.011  0.00  0.00    +0.020 A 
ATOM      7  C   UNL     1       4.255   5.803  -0.010  0.00  0.00    -0.022 A 
ATOM      8 BR   UNL     1       8.107   7.322  -0.042  0.00  0.00    -0.050 Br
BRANCH   2   9
ATOM      9  O   UNL     1       3.390   3.587  -0.013  0.00  0.00    -0.487 OA
BRANCH   9  10
ATOM     10  C   UNL     1       3.671   2.186  -0.023  0.00  0.00    +0.266 C 
BRANCH  10  13
ATOM     11  C   UNL     1      -0.017   1.380   0.010  0.00  0.00    +0.039 A 
ATOM     12  C   UNL     1       1.171   2.088   0.002  0.00  0.00    +0.011 A 
ATOM     13  C   UNL     1       2.377   1.414  -0.013  0.00  0.00    +0.008 A 
ATOM     14  C   UNL     1       2.398   0.030  -0.021  0.00  0.00    +0.050 A 
ATOM     15  C   UNL     1       1.211  -0.679  -0.013  0.00  0.00    +0.058 A 
ATOM     16  C   UNL     1       0.002  -0.004   0.002  0.00  0.00    +0.125 A 
ATOM     17  F   UNL     1      -1.158  -0.696   0.010  0.00  0.00    -0.205 F 
ATOM     18 CL   UNL     1       3.914  -0.815  -0.041  0.00  0.00    -0.083 Cl
ENDBRANCH  10  13
ENDBRANCH   9  10
ENDBRANCH   2   9
ENDBRANCH   1   7
BRANCH   1  19
ATOM     19  N   UNL     1       2.324   6.311   1.375  0.00  0.00    +0.383 N 
ATOM     20  H   UNL     1       2.309   5.355   1.696  0.00  0.00    -0.085 HD
ATOM     21  H   UNL     1       2.912   6.861   1.984  0.00  0.00    -0.085 HD
BRANCH  19  22
ATOM     22  C   UNL     1       0.959   6.854   1.391  0.00  0.00    -0.063 C 
BRANCH  22  23
ATOM     23  C   UNL     1       0.406   6.803   2.817  0.00  0.00    +0.085 C 
BRANCH  23  24
ATOM     24  N   UNL     1      -0.955   7.345   2.833  0.00  0.00    -0.312 N 
ATOM     25  C   UNL     1      -1.645   7.400   3.989  0.00  0.00    +0.269 C 
ATOM     26  O   UNL     1      -1.138   7.000   5.019  0.00  0.00    -0.268 OA
ATOM     27  H   UNL     1      -1.359   7.664   2.011  0.00  0.00    +0.149 HD
BRANCH  25  28
ATOM     28  C   UNL     1      -3.021   7.947   4.005  0.00  0.00    +0.209 A 
ATOM     29  C   UNL     1      -3.882   8.073   5.186  0.00  0.00    +0.192 A 
ATOM     30  N   UNL     1      -5.018   8.597   4.812  0.00  0.00    -0.033 NA
ATOM     31  O   UNL     1      -4.951   8.829   3.416  0.00  0.00    -0.240 OA
ATOM     32  N   UNL     1      -3.674   8.407   2.970  0.00  0.00    -0.042 NA
ATOM     33  N   UNL     1      -3.547   7.699   6.480  0.00  0.00    -0.339 N 
ATOM     34  H   UNL     1      -2.675   7.315   6.664  0.00  0.00    +0.144 HD
ATOM     35  H   UNL     1      -4.185   7.820   7.201  0.00  0.00    +0.144 HD
ENDBRANCH  25  28
ENDBRANCH  23  24
ENDBRANCH  22  23
ENDBRANCH  19  22
ENDBRANCH   1  19
TORSDOF 9
