REMARK  Name = ZINC20705904
REMARK  5 active torsions:
REMARK  status: ('A' for Active; 'I' for Inactive)
REMARK    1  A    between atoms: C_1  and  C_2
REMARK    2  A    between atoms: N_5  and  S_8
REMARK    3  A    between atoms: S_8  and  C_11
REMARK    4  A    between atoms: C_24  and  C_27
REMARK    5  A    between atoms: C_29  and  N_34
REMARK                            x       y       z     vdW  Elec       q    Type
REMARK                         _______ _______ _______ _____ _____    ______ ____
ROOT
ATOM      1  C   UNL     1      -1.294   2.468  -3.118  0.00  0.00    +0.106 A 
ATOM      2  C   UNL     1      -2.635   2.579  -2.798  0.00  0.00    +0.030 A 
ATOM      3  C   UNL     1      -3.088   2.179  -1.558  0.00  0.00    +0.025 A 
ATOM      4  C   UNL     1      -2.202   1.661  -0.622  0.00  0.00    +0.031 A 
ATOM      5  C   UNL     1      -0.853   1.556  -0.943  0.00  0.00    -0.018 A 
ATOM      6  C   UNL     1      -0.406   1.947  -2.195  0.00  0.00    +0.034 A 
ATOM      7  C   UNL     1       0.056   0.961   0.060  0.00  0.00    +0.049 C 
ATOM      8  C   UNL     1       1.505   1.286   0.098  0.00  0.00    -0.023 C 
ATOM      9  C   UNL     1       1.919   1.236   1.358  0.00  0.00    -0.030 C 
ATOM     10  C   UNL     1       0.745   0.899   2.280  0.00  0.00    +0.033 C 
ATOM     11  C   UNL     1      -0.447   1.414   1.464  0.00  0.00    +0.029 C 
ATOM     12  C   UNL     1      -1.778   0.711   1.662  0.00  0.00    +0.106 C 
ATOM     13  N   UNL     1      -2.683   1.276   0.636  0.00  0.00    -0.336 N 
ATOM     14  H   UNL     1      -3.753   1.400   0.856  0.00  0.00    +0.147 HD
ENDROOT
BRANCH  12  15
ATOM     15  C   UNL     1      -2.315   0.992   3.041  0.00  0.00    -0.007 A 
ATOM     16  C   UNL     1      -1.805   2.042   3.781  0.00  0.00    +0.039 A 
ATOM     17  C   UNL     1      -2.301   2.303   5.045  0.00  0.00    +0.127 A 
ATOM     18  C   UNL     1      -3.300   1.507   5.574  0.00  0.00    +0.034 A 
ATOM     19  C   UNL     1      -3.807   0.454   4.837  0.00  0.00    +0.022 A 
ATOM     20  C   UNL     1      -3.315   0.195   3.570  0.00  0.00    +0.046 A 
ATOM     21 CL   UNL     1      -3.951  -1.129   2.645  0.00  0.00    -0.083 Cl
BRANCH  17  22
ATOM     22  N   UNL     1      -1.758   3.432   5.834  0.00  0.00    +0.056 N 
ATOM     23  O   UNL     1      -2.192   3.659   6.949  0.00  0.00    -0.126 OA
ATOM     24  O   UNL     1      -0.878   4.133   5.368  0.00  0.00    -0.126 OA
ENDBRANCH  17  22
ENDBRANCH  12  15
BRANCH   1  25
ATOM     25  S   UNL     1      -0.719   2.989  -4.699  0.00  0.00    +0.061 S 
ATOM     26  O   UNL     1       0.484   2.274  -4.949  0.00  0.00    -0.153 OA
ATOM     27  O   UNL     1      -1.835   2.932  -5.577  0.00  0.00    -0.153 OA
BRANCH  25  32
ATOM     28  C   UNL     1       1.198   8.113  -6.416  0.00  0.00    +0.007 C 
ATOM     29  C   UNL     1       0.641   7.122  -5.392  0.00  0.00    -0.012 C 
ATOM     30  C   UNL     1       1.609   5.947  -5.240  0.00  0.00    +0.020 C 
ATOM     31  C   UNL     1       1.064   4.974  -4.189  0.00  0.00    +0.110 C 
ATOM     32  N   UNL     1      -0.302   4.586  -4.567  0.00  0.00    -0.177 NA
ATOM     33  C   UNL     1      -1.289   5.642  -4.832  0.00  0.00    +0.110 C 
ATOM     34  C   UNL     1      -0.719   6.606  -5.870  0.00  0.00    +0.020 C 
ENDBRANCH  25  32
ENDBRANCH   1  25
TORSDOF 4
