REMARK  Name = ZINC01771779
REMARK  10 active torsions:
REMARK  status: ('A' for Active; 'I' for Inactive)
REMARK    1  A    between atoms: C_1  and  C_2
REMARK    2  A    between atoms: C_2  and  N_55
REMARK    3  A    between atoms: C_3  and  C_4
REMARK    4  A    between atoms: C_3  and  N_55
REMARK    5  A    between atoms: C_5  and  C_6
REMARK    6  A    between atoms: C_5  and  N_55
REMARK    7  A    between atoms: C_7  and  O_32
REMARK    8  A    between atoms: C_13  and  C_28
REMARK    9  A    between atoms: C_14  and  O_17
REMARK   10  A    between atoms: O_17  and  C_18
REMARK                            x       y       z     vdW  Elec       q    Type
REMARK                         _______ _______ _______ _____ _____    ______ ____
ROOT
ATOM      1  C   UNL     1       6.896   4.043   0.152  0.00  0.00    +0.020 A 
ATOM      2  C   UNL     1       7.481   4.425  -1.044  0.00  0.00    +0.122 A 
ATOM      3  C   UNL     1       6.926   4.034  -2.261  0.00  0.00    +0.046 A 
ATOM      4  C   UNL     1       5.796   3.268  -2.290  0.00  0.00    +0.019 A 
ATOM      5  C   UNL     1       5.195   2.875  -1.093  0.00  0.00    +0.068 A 
ATOM      6  C   UNL     1       5.748   3.265   0.140  0.00  0.00    +0.144 A 
ATOM      7  O   UNL     1       5.159   2.879   1.290  0.00  0.00    -0.447 OA
ATOM      8  C   UNL     1       4.051   2.127   1.311  0.00  0.00    +0.254 A 
ATOM      9  C   UNL     1       3.438   1.698   0.190  0.00  0.00    +0.222 A 
ATOM     10  C   UNL     1       3.979   2.043  -1.081  0.00  0.00    +0.235 A 
ATOM     11  O   UNL     1       3.455   1.670  -2.117  0.00  0.00    -0.283 OA
ENDROOT
BRANCH   8  12
ATOM     12  C   UNL     1       3.464   1.745   2.646  0.00  0.00    +0.454 C 
ATOM     13  F   UNL     1       4.022   0.535   3.072  0.00  0.00    -0.163 F 
ATOM     14  F   UNL     1       3.746   2.745   3.583  0.00  0.00    -0.163 F 
ATOM     15  F   UNL     1       2.078   1.601   2.521  0.00  0.00    -0.163 F 
ENDBRANCH   8  12
BRANCH   2  16
ATOM     16  O   UNL     1       8.604   5.187  -1.031  0.00  0.00    -0.506 OA
ATOM     17  H   UNL     1       9.424   4.680  -1.105  0.00  0.00    +0.292 HD
ENDBRANCH   2  16
BRANCH   1  18
ATOM     18  C   UNL     1       7.506   4.472   1.462  0.00  0.00    -0.036 C 
BRANCH  18  19
ATOM     19  N   UNL     1       8.331   3.363   1.986  0.00  0.00    +0.382 N 
ATOM     20  H   UNL     1       7.828   2.479   1.847  0.00  0.00    -0.081 HD
BRANCH  19  22
ATOM     21  C   UNL     1      10.432   4.574   1.506  0.00  0.00    -0.017 C 
ATOM     22  C   UNL     1       9.616   3.303   1.259  0.00  0.00    -0.082 C 
ENDBRANCH  19  22
BRANCH  19  23
ATOM     23  C   UNL     1       8.575   3.555   3.431  0.00  0.00    -0.082 C 
ATOM     24  C   UNL     1       9.119   2.249   4.015  0.00  0.00    -0.017 C 
ENDBRANCH  19  23
ENDBRANCH  18  19
ENDBRANCH   1  18
BRANCH   9  25
ATOM     25  O   UNL     1       2.313   0.936   0.272  0.00  0.00    -0.448 OA
BRANCH  25  26
ATOM     26  C   UNL     1       1.113   1.572   0.299  0.00  0.00    +0.129 A 
ATOM     27  C   UNL     1       1.070   2.969   0.242  0.00  0.00    +0.047 A 
ATOM     28  C   UNL     1      -0.116   3.633   0.267  0.00  0.00    +0.012 A 
ATOM     29  C   UNL     1      -1.319   2.909   0.351  0.00  0.00    -0.018 A 
ATOM     30  C   UNL     1      -2.562   3.564   0.379  0.00  0.00    +0.008 A 
ATOM     31  C   UNL     1      -3.707   2.833   0.461  0.00  0.00    +0.001 A 
ATOM     32  C   UNL     1      -3.667   1.440   0.517  0.00  0.00    +0.001 A 
ATOM     33  C   UNL     1      -2.482   0.772   0.492  0.00  0.00    +0.008 A 
ATOM     34  C   UNL     1      -1.278   1.493   0.403  0.00  0.00    -0.014 A 
ATOM     35  C   UNL     1      -0.036   0.838   0.381  0.00  0.00    +0.054 A 
ENDBRANCH  25  26
ENDBRANCH   9  25
TORSDOF 8
