REMARK  Name = ZINC63655292
REMARK  11 active torsions:
REMARK  status: ('A' for Active; 'I' for Inactive)
REMARK    1  A    between atoms: C_1  and  C_2
REMARK    2  A    between atoms: C_4  and  C_13
REMARK    3  A    between atoms: C_13  and  C_14
REMARK    4  A    between atoms: C_14  and  N_15
REMARK    5  A    between atoms: N_15  and  C_16
REMARK    6  A    between atoms: N_15  and  C_23
REMARK    7  A    between atoms: C_16  and  C_17
REMARK    8  A    between atoms: C_23  and  N_25
REMARK    9  A    between atoms: N_25  and  C_26
REMARK   10  A    between atoms: C_26  and  C_27
REMARK   11  A    between atoms: C_27  and  C_28
REMARK                            x       y       z     vdW  Elec       q    Type
REMARK                         _______ _______ _______ _____ _____    ______ ____
ROOT
ATOM      1  N   UNL     1      -4.819  -0.826  -1.544  0.00  0.00    -0.308 N 
ENDROOT
BRANCH   1   2
ATOM      2  C   UNL     1      -5.653   0.226  -1.418  0.00  0.00    +0.133 C 
ATOM      3  S   UNL     1      -5.480   1.301  -0.097  0.00  0.00    -0.019 S 
BRANCH   2   4
ATOM      4  N   UNL     1      -6.622   0.430  -2.332  0.00  0.00    -0.326 N 
ATOM      5  H   UNL     1      -6.720  -0.179  -3.080  0.00  0.00    +0.148 HD
BRANCH   4   6
ATOM      6  C   UNL     1      -7.528   1.574  -2.195  0.00  0.00    +0.108 C 
BRANCH   6   7
ATOM      7  C   UNL     1      -8.527   1.575  -3.354  0.00  0.00    +0.054 C 
BRANCH   7   8
ATOM      8  C   UNL     1      -9.459   2.751  -3.213  0.00  0.00    -0.046 A 
ATOM      9  C   UNL     1     -10.634   2.619  -2.498  0.00  0.00    +0.004 A 
ATOM     10  C   UNL     1     -11.489   3.698  -2.368  0.00  0.00    +0.000 A 
ATOM     11  C   UNL     1     -11.168   4.908  -2.954  0.00  0.00    +0.000 A 
ATOM     12  C   UNL     1      -9.992   5.040  -3.668  0.00  0.00    +0.000 A 
ATOM     13  C   UNL     1      -9.135   3.962  -3.794  0.00  0.00    +0.004 A 
ENDBRANCH   7   8
ENDBRANCH   6   7
ENDBRANCH   4   6
ENDBRANCH   2   4
ENDBRANCH   1   2
BRANCH   1  14
ATOM     14  C   UNL     1      -3.765  -1.048  -0.551  0.00  0.00    +0.111 C 
BRANCH  14  15
ATOM     15  C   UNL     1      -2.494  -0.316  -0.984  0.00  0.00    +0.052 C 
BRANCH  15  18
ATOM     16  C   UNL     1      -0.019   1.526   0.010  0.00  0.00    +0.035 C 
ATOM     17  C   UNL     1       0.002  -0.004   0.002  0.00  0.00    +0.103 C 
ATOM     18  C   UNL     1      -1.410  -0.545   0.038  0.00  0.00    -0.037 C 
ATOM     19  C   UNL     1      -1.503  -1.275   1.172  0.00  0.00    +0.001 A 
ATOM     20  C   UNL     1      -2.599  -2.045   1.772  0.00  0.00    +0.030 A 
ATOM     21  C   UNL     1      -2.386  -2.687   2.944  0.00  0.00    +0.042 A 
ATOM     22  C   UNL     1      -1.147  -2.633   3.599  0.00  0.00    +0.022 A 
ATOM     23  C   UNL     1      -0.093  -1.946   3.110  0.00  0.00    +0.027 A 
ATOM     24  C   UNL     1      -0.205  -1.235   1.884  0.00  0.00    +0.043 A 
ATOM     25  N   UNL     1       0.658  -0.508   1.214  0.00  0.00    -0.378 N 
ATOM     26 CL   UNL     1      -3.680  -3.598   3.657  0.00  0.00    -0.084 Cl
ATOM     27  H   UNL     1       1.576  -0.332   1.475  0.00  0.00    +0.160 HD
ENDBRANCH  15  18
ENDBRANCH  14  15
ENDBRANCH   1  14
BRANCH   1  28
ATOM     28  C   UNL     1      -4.967  -1.746  -2.674  0.00  0.00    +0.142 C 
BRANCH  28  29
ATOM     29  C   UNL     1      -5.909  -2.860  -2.295  0.00  0.00    -0.027 A 
ATOM     30  C   UNL     1      -5.433  -4.023  -1.709  0.00  0.00    +0.025 A 
ATOM     31  C   UNL     1      -6.327  -5.023  -1.375  0.00  0.00    +0.111 A 
ATOM     32  N   UNL     1      -7.617  -4.880  -1.608  0.00  0.00    -0.263 NA
ATOM     33  C   UNL     1      -8.105  -3.788  -2.163  0.00  0.00    +0.111 A 
ATOM     34  C   UNL     1      -7.272  -2.744  -2.518  0.00  0.00    +0.025 A 
ENDBRANCH  28  29
ENDBRANCH   1  28
TORSDOF 10
