REMARK  Name = ZINC36978863
REMARK  7 active torsions:
REMARK  status: ('A' for Active; 'I' for Inactive)
REMARK    1  A    between atoms: C_1  and  N_2
REMARK    2  A    between atoms: N_2  and  S_3
REMARK    3  A    between atoms: S_3  and  C_6
REMARK    4  A    between atoms: C_10  and  N_12
REMARK    5  A    between atoms: N_12  and  C_13
REMARK    6  A    between atoms: C_13  and  C_14
REMARK    7  A    between atoms: C_19  and  O_20
REMARK                            x       y       z     vdW  Elec       q    Type
REMARK                         _______ _______ _______ _____ _____    ______ ____
ROOT
ATOM      1  C   UNL     1      -2.247  -0.499  -1.505  0.00  0.00    +0.107 A 
ATOM      2  C   UNL     1      -3.117   0.573  -1.584  0.00  0.00    +0.028 A 
ATOM      3  C   UNL     1      -3.768   0.853  -2.771  0.00  0.00    +0.004 A 
ATOM      4  C   UNL     1      -3.550   0.063  -3.883  0.00  0.00    +0.023 A 
ATOM      5  C   UNL     1      -2.676  -1.014  -3.807  0.00  0.00    +0.029 A 
ATOM      6  C   UNL     1      -2.020  -1.289  -2.614  0.00  0.00    +0.051 A 
ENDROOT
BRANCH   1   7
ATOM      7  S   UNL     1      -1.421  -0.852   0.011  0.00  0.00    +0.058 S 
ATOM      8  O   UNL     1      -1.073  -2.229  -0.027  0.00  0.00    -0.153 OA
ATOM      9  O   UNL     1      -2.218  -0.295   1.047  0.00  0.00    -0.153 OA
BRANCH   7  11
ATOM     10  C   UNL     1      -0.018   1.461   0.010  0.00  0.00    +0.127 C 
ATOM     11  N   UNL     1       0.002  -0.004   0.002  0.00  0.00    -0.193 NA
ATOM     12  H   UNL     1       0.849  -0.478  -0.009  0.00  0.00    +0.148 HD
ENDBRANCH   7  11
ENDBRANCH   1   7
BRANCH   5  13
ATOM     13  N   UNL     1      -2.454  -1.815  -4.929  0.00  0.00    -0.340 N 
ATOM     14  H   UNL     1      -1.843  -2.567  -4.875  0.00  0.00    +0.146 HD
BRANCH  13  15
ATOM     15  C   UNL     1      -3.142  -1.520  -6.188  0.00  0.00    +0.140 C 
BRANCH  15  16
ATOM     16  C   UNL     1      -2.732  -2.525  -7.233  0.00  0.00    +0.012 A 
ATOM     17  C   UNL     1      -1.772  -2.195  -8.171  0.00  0.00    +0.028 A 
ATOM     18  C   UNL     1      -1.394  -3.117  -9.130  0.00  0.00    +0.042 A 
ATOM     19  C   UNL     1      -1.977  -4.372  -9.153  0.00  0.00    +0.023 A 
ATOM     20  C   UNL     1      -2.937  -4.706  -8.218  0.00  0.00    +0.047 A 
ATOM     21  C   UNL     1      -3.313  -3.784  -7.251  0.00  0.00    +0.122 A 
ATOM     22 CL   UNL     1      -0.189  -2.699 -10.307  0.00  0.00    -0.084 Cl
BRANCH  21  23
ATOM     23  O   UNL     1      -4.253  -4.113  -6.326  0.00  0.00    -0.506 OA
ATOM     24  H   UNL     1      -5.158  -3.908  -6.596  0.00  0.00    +0.292 HD
ENDBRANCH  21  23
ENDBRANCH  15  16
ENDBRANCH  13  15
ENDBRANCH   5  13
TORSDOF 6
