REMARK  Name = ZINC12642776
REMARK  8 active torsions:
REMARK  status: ('A' for Active; 'I' for Inactive)
REMARK    1  A    between atoms: C_6  and  C_7
REMARK    2  A    between atoms: C_7  and  N_65
REMARK    3  A    between atoms: C_8  and  C_9
REMARK    4  A    between atoms: C_8  and  N_65
REMARK    5  A    between atoms: C_15  and  C_17
REMARK    6  A    between atoms: C_15  and  C_24
REMARK    7  A    between atoms: C_15  and  N_65
REMARK    8  A    between atoms: N_28  and  C_29
REMARK                            x       y       z     vdW  Elec       q    Type
REMARK                         _______ _______ _______ _____ _____    ______ ____
ROOT
ATOM      1  C   UNL     1       1.454   2.980  -0.160  0.00  0.00    +0.034 C 
ENDROOT
BRANCH   1   2
ATOM      2  C   UNL     1       1.827   1.521  -0.127  0.00  0.00    -0.053 A 
ATOM      3  C   UNL     1       0.847   0.554  -0.252  0.00  0.00    +0.005 A 
ATOM      4  C   UNL     1       1.188  -0.785  -0.221  0.00  0.00    +0.038 A 
ATOM      5  C   UNL     1       2.513  -1.158  -0.065  0.00  0.00    +0.123 A 
ATOM      6  C   UNL     1       3.494  -0.189   0.060  0.00  0.00    +0.038 A 
ATOM      7  C   UNL     1       3.150   1.149   0.029  0.00  0.00    +0.005 A 
ATOM      8  F   UNL     1       2.847  -2.466  -0.035  0.00  0.00    -0.205 F 
ENDBRANCH   1   2
BRANCH   1   9
ATOM      9  C   UNL     1       1.836   3.566  -1.495  0.00  0.00    +0.143 A 
ATOM     10  N   UNL     1       3.046   3.866  -1.901  0.00  0.00    -0.115 NA
ATOM     11  N   UNL     1       2.958   4.342  -3.095  0.00  0.00    -0.023 NA
ATOM     12  N   UNL     1       1.724   4.353  -3.461  0.00  0.00    -0.044 NA
ATOM     13  N   UNL     1       1.002   3.878  -2.504  0.00  0.00    -0.227 N 
BRANCH  13  14
ATOM     14  C   UNL     1      -0.454   3.712  -2.513  0.00  0.00    +0.111 C 
ATOM     15  C   UNL     1      -0.853   2.771  -3.651  0.00  0.00    +0.027 C 
ATOM     16  C   UNL     1      -2.373   2.597  -3.660  0.00  0.00    +0.002 C 
ATOM     17  C   UNL     1      -3.041   3.959  -3.866  0.00  0.00    +0.000 C 
ATOM     18  C   UNL     1      -2.642   4.900  -2.727  0.00  0.00    +0.002 C 
ATOM     19  C   UNL     1      -1.121   5.073  -2.718  0.00  0.00    +0.027 C 
ENDBRANCH  13  14
ENDBRANCH   1   9
BRANCH   1  20
ATOM     20  N   UNL     1       2.194   3.691   0.904  0.00  0.00    +0.393 N 
ATOM     21  H   UNL     1       3.201   3.616   0.716  0.00  0.00    -0.080 HD
BRANCH  20  22
ATOM     22  C   UNL     1       1.812   5.118   0.918  0.00  0.00    -0.041 C 
BRANCH  22  28
ATOM     23  C   UNL     1       2.428   6.132   3.123  0.00  0.00    +0.003 A 
ATOM     24  C   UNL     1       3.308   6.815   3.941  0.00  0.00    +0.020 A 
ATOM     25  C   UNL     1       4.525   7.244   3.443  0.00  0.00    +0.041 A 
ATOM     26  C   UNL     1       4.864   6.984   2.127  0.00  0.00    +0.020 A 
ATOM     27  C   UNL     1       3.986   6.296   1.311  0.00  0.00    +0.003 A 
ATOM     28  C   UNL     1       2.769   5.868   1.809  0.00  0.00    -0.064 A 
ATOM     29 CL   UNL     1       5.627   8.108   4.469  0.00  0.00    -0.084 Cl
ENDBRANCH  22  28
ENDBRANCH  20  22
BRANCH  20  30
ATOM     30  C   UNL     1       1.904   3.077   2.217  0.00  0.00    -0.045 C 
BRANCH  30  31
ATOM     31  C   UNL     1       0.426   3.245   2.573  0.00  0.00    +0.102 C 
ATOM     32  C   UNL     1       0.158   2.741   4.009  0.00  0.00    +0.032 C 
ATOM     33  C   UNL     1      -1.233   2.074   3.919  0.00  0.00    +0.030 C 
ATOM     34  C   UNL     1      -1.641   2.254   2.440  0.00  0.00    +0.160 C 
ATOM     35  O   UNL     1      -0.393   2.406   1.729  0.00  0.00    -0.378 OA
ENDBRANCH  30  31
ENDBRANCH  20  30
ENDBRANCH   1  20
TORSDOF 8
