REMARK  Name = ZINC41583952
REMARK  9 active torsions:
REMARK  status: ('A' for Active; 'I' for Inactive)
REMARK    1  A    between atoms: C_1  and  C_2
REMARK    2  A    between atoms: C_5  and  C_32
REMARK    3  A    between atoms: N_8  and  C_10
REMARK    4  A    between atoms: C_10  and  C_11
REMARK    5  A    between atoms: C_12  and  O_31
REMARK    6  A    between atoms: C_19  and  O_22
REMARK    7  A    between atoms: O_22  and  C_23
REMARK    8  A    between atoms: C_28  and  O_29
REMARK    9  A    between atoms: O_29  and  C_30
REMARK                            x       y       z     vdW  Elec       q    Type
REMARK                         _______ _______ _______ _____ _____    ______ ____
ROOT
ATOM      1  C   UNL     1       2.141   0.245   3.679  0.00  0.00    +0.020 A 
ATOM      2  C   UNL     1       2.663   1.405   4.226  0.00  0.00    +0.122 A 
ATOM      3  C   UNL     1       2.151   1.922   5.415  0.00  0.00    +0.046 A 
ATOM      4  C   UNL     1       1.125   1.290   6.057  0.00  0.00    +0.019 A 
ATOM      5  C   UNL     1       0.588   0.120   5.519  0.00  0.00    +0.068 A 
ATOM      6  C   UNL     1       1.095  -0.406   4.317  0.00  0.00    +0.143 A 
ATOM      7  O   UNL     1       0.565  -1.535   3.804  0.00  0.00    -0.459 OA
ATOM      8  C   UNL     1      -0.444  -2.188   4.396  0.00  0.00    +0.245 A 
ATOM      9  C   UNL     1      -1.008  -1.769   5.546  0.00  0.00    +0.210 A 
ATOM     10  C   UNL     1      -0.518  -0.593   6.181  0.00  0.00    +0.235 A 
ATOM     11  O   UNL     1      -1.003  -0.184   7.223  0.00  0.00    -0.283 OA
ENDROOT
BRANCH   2  12
ATOM     12  O   UNL     1       3.683   2.045   3.599  0.00  0.00    -0.506 OA
ATOM     13  H   UNL     1       3.395   2.709   2.957  0.00  0.00    +0.292 HD
ENDBRANCH   2  12
BRANCH   1  14
ATOM     14  C   UNL     1       2.702  -0.304   2.393  0.00  0.00    -0.036 C 
BRANCH  14  20
ATOM     15  C   UNL     1      -0.147   2.016   0.319  0.00  0.00    +0.005 C 
ATOM     16  C   UNL     1      -0.206   0.495   0.161  0.00  0.00    -0.031 C 
ATOM     17  C   UNL     1       0.416   0.096  -1.180  0.00  0.00    +0.003 C 
ATOM     18  C   UNL     1       1.895   0.493  -1.184  0.00  0.00    -0.031 C 
ATOM     19  C   UNL     1       2.599  -0.169   0.002  0.00  0.00    -0.075 C 
ATOM     20  N   UNL     1       1.975   0.273   1.255  0.00  0.00    +0.383 N 
ATOM     21  C   UNL     1       0.574  -0.167   1.298  0.00  0.00    -0.075 C 
ATOM     22  C   UNL     1       2.545   0.030  -2.489  0.00  0.00    +0.005 C 
ATOM     23  H   UNL     1       2.011   1.280   1.311  0.00  0.00    -0.081 HD
ENDBRANCH  14  20
ENDBRANCH   1  14
BRANCH   9  24
ATOM     24  O   UNL     1      -2.033  -2.472   6.102  0.00  0.00    -0.445 OA
BRANCH  24  25
ATOM     25  C   UNL     1      -3.260  -1.888   6.143  0.00  0.00    +0.170 A 
ATOM     26  C   UNL     1      -3.467  -0.664   5.526  0.00  0.00    +0.050 A 
ATOM     27  C   UNL     1      -4.715  -0.072   5.568  0.00  0.00    +0.004 A 
ATOM     28  C   UNL     1      -5.759  -0.697   6.225  0.00  0.00    +0.004 A 
ATOM     29  C   UNL     1      -5.559  -1.917   6.843  0.00  0.00    +0.049 A 
ATOM     30  C   UNL     1      -4.312  -2.520   6.799  0.00  0.00    +0.162 A 
BRANCH  30  31
ATOM     31  O   UNL     1      -4.115  -3.723   7.401  0.00  0.00    -0.491 OA
ATOM     32  C   UNL     1      -5.240  -4.313   8.056  0.00  0.00    +0.277 C 
ENDBRANCH  30  31
ENDBRANCH  24  25
ENDBRANCH   9  24
TORSDOF 6
