REMARK  Name = ZINC00717173
REMARK  7 active torsions:
REMARK  status: ('A' for Active; 'I' for Inactive)
REMARK    1  A    between atoms: C_1  and  C_2
REMARK    2  A    between atoms: C_2  and  C_4
REMARK    3  A    between atoms: C_4  and  C_5
REMARK    4  A    between atoms: C_5  and  C_6
REMARK    5  A    between atoms: C_9  and  O_12
REMARK    6  A    between atoms: O_12  and  C_13
REMARK    7  A    between atoms: C_15  and  N_29
REMARK                            x       y       z     vdW  Elec       q    Type
REMARK                         _______ _______ _______ _____ _____    ______ ____
ROOT
ATOM      1  C   UNL     1       1.111   2.053  -0.279  0.00  0.00    +0.146 A 
ATOM      2  C   UNL     1       2.268   1.383  -0.643  0.00  0.00    +0.080 A 
ATOM      3  C   UNL     1       3.416   2.092  -0.943  0.00  0.00    +0.133 A 
ATOM      4  C   UNL     1       3.421   3.474  -0.882  0.00  0.00    +0.080 A 
ATOM      5  C   UNL     1       2.273   4.163  -0.524  0.00  0.00    +0.146 A 
ATOM      6  C   UNL     1       1.109   3.454  -0.203  0.00  0.00    +0.121 A 
ATOM      7  C   UNL     1      -0.097   4.158   0.245  0.00  0.00    +0.255 C 
ATOM      8  O   UNL     1      -0.755   3.639   1.126  0.00  0.00    -0.270 OA
ATOM      9  N   UNL     1      -0.524   5.317  -0.237  0.00  0.00    -0.278 N 
ATOM     10  C   UNL     1       0.075   6.056  -1.256  0.00  0.00    +0.076 A 
ATOM     11  C   UNL     1      -0.736   6.717  -2.173  0.00  0.00    +0.027 A 
ATOM     12  C   UNL     1      -0.176   7.511  -3.154  0.00  0.00    +0.002 A 
ATOM     13  C   UNL     1       1.197   7.651  -3.231  0.00  0.00    +0.004 A 
ATOM     14  C   UNL     1       2.011   6.986  -2.334  0.00  0.00    +0.048 A 
ATOM     15  C   UNL     1       1.456   6.178  -1.352  0.00  0.00    +0.150 A 
ATOM     16  O   UNL     1       2.280   5.515  -0.503  0.00  0.00    -0.453 OA
ATOM     17  H   UNL     1      -1.329   5.686   0.158  0.00  0.00    +0.155 HD
ENDROOT
BRANCH   3  18
ATOM     18  N   UNL     1       4.649   1.368  -1.325  0.00  0.00    +0.057 N 
ATOM     19  O   UNL     1       5.664   1.989  -1.586  0.00  0.00    -0.126 OA
ATOM     20  O   UNL     1       4.648   0.151  -1.380  0.00  0.00    -0.126 OA
ENDBRANCH   3  18
BRANCH   1  21
ATOM     21  O   UNL     1      -0.016   1.355   0.009  0.00  0.00    -0.455 OA
BRANCH  21  25
ATOM     22  C   UNL     1       0.198  -2.765  -0.011  0.00  0.00    -0.047 A 
ATOM     23  C   UNL     1       0.688  -2.054   1.069  0.00  0.00    +0.007 A 
ATOM     24  C   UNL     1       0.618  -0.674   1.078  0.00  0.00    +0.046 A 
ATOM     25  C   UNL     1       0.054  -0.002   0.003  0.00  0.00    +0.128 A 
ATOM     26  C   UNL     1      -0.442  -0.719  -1.077  0.00  0.00    +0.046 A 
ATOM     27  C   UNL     1      -0.363  -2.098  -1.084  0.00  0.00    +0.007 A 
BRANCH  22  28
ATOM     28  C   UNL     1       0.277  -4.270  -0.019  0.00  0.00    +0.042 C 
BRANCH  28  29
ATOM     29  C   UNL     1      -0.990  -4.851   0.612  0.00  0.00    +0.078 C 
BRANCH  29  31
ATOM     30  C   UNL     1      -2.042  -7.172   1.174  0.00  0.00    +0.086 C 
ATOM     31  C   UNL     1      -0.911  -6.355   0.605  0.00  0.00    +0.131 C 
ATOM     32  O   UNL     1       0.059  -6.907   0.142  0.00  0.00    -0.298 OA
ENDBRANCH  29  31
ENDBRANCH  28  29
ENDBRANCH  22  28
ENDBRANCH  21  25
ENDBRANCH   1  21
TORSDOF 6
