REMARK  Name = ZINC13064572
REMARK  15 active torsions:
REMARK  status: ('A' for Active; 'I' for Inactive)
REMARK    1  A    between atoms: C_1  and  C_2
REMARK    2  A    between atoms: C_2  and  C_3
REMARK    3  A    between atoms: C_3  and  C_5
REMARK    4  A    between atoms: C_3  and  N_72
REMARK    5  A    between atoms: N_9  and  C_10
REMARK    6  A    between atoms: C_10  and  C_11
REMARK    7  A    between atoms: C_10  and  C_12
REMARK    8  A    between atoms: C_10  and  C_13
REMARK    9  A    between atoms: C_13  and  C_14
REMARK   10  A    between atoms: C_15  and  C_16
REMARK   11  A    between atoms: C_15  and  N_72
REMARK   12  A    between atoms: C_20  and  C_29
REMARK   13  A    between atoms: C_21  and  C_28
REMARK   14  A    between atoms: C_30  and  C_31
REMARK   15  A    between atoms: C_30  and  N_72
REMARK                            x       y       z     vdW  Elec       q    Type
REMARK                         _______ _______ _______ _____ _____    ______ ____
ROOT
ATOM      1  N   UNL     1      -2.039  -0.755   2.004  0.00  0.00    +0.391 N 
ATOM      2  H   UNL     1      -1.881   0.198   2.352  0.00  0.00    -0.080 HD
ENDROOT
BRANCH   1   3
ATOM      3  C   UNL     1      -3.454  -1.120   2.229  0.00  0.00    +0.003 C 
BRANCH   3   4
ATOM      4  C   UNL     1      -3.888  -0.567   3.562  0.00  0.00    +0.139 A 
ATOM      5  N   UNL     1      -3.186  -0.551   4.668  0.00  0.00    -0.115 NA
ATOM      6  N   UNL     1      -3.901   0.004   5.585  0.00  0.00    -0.023 NA
ATOM      7  N   UNL     1      -5.041   0.343   5.092  0.00  0.00    -0.043 NA
ATOM      8  N   UNL     1      -5.069   0.013   3.845  0.00  0.00    -0.225 N 
BRANCH   8   9
ATOM      9  C   UNL     1      -6.180   0.225   2.913  0.00  0.00    +0.061 C 
ATOM     10  C   UNL     1      -5.759   1.230   1.839  0.00  0.00    +0.036 C 
ATOM     11  C   UNL     1      -6.552  -1.103   2.252  0.00  0.00    +0.036 C 
BRANCH   9  12
ATOM     12  C   UNL     1      -7.388   0.771   3.677  0.00  0.00    +0.026 C 
ATOM     13  C   UNL     1      -8.548   0.993   2.704  0.00  0.00    +0.006 C 
ENDBRANCH   9  12
ENDBRANCH   8   9
ENDBRANCH   3   4
BRANCH   3  15
ATOM     14  C   UNL     1      -3.299  -3.189   0.837  0.00  0.00    +0.002 C 
ATOM     15  C   UNL     1      -3.620  -2.641   2.229  0.00  0.00    -0.011 C 
ENDBRANCH   3  15
ENDBRANCH   1   3
BRANCH   1  16
ATOM     16  C   UNL     1      -1.731  -0.795   0.559  0.00  0.00    -0.036 C 
BRANCH  16  17
ATOM     17  C   UNL     1      -2.215   0.484  -0.073  0.00  0.00    +0.001 A 
ATOM     18  C   UNL     1      -1.373   1.540  -0.192  0.00  0.00    +0.017 A 
ATOM     19  C   UNL     1      -1.874   2.769  -0.810  0.00  0.00    -0.001 A 
ATOM     20  C   UNL     1      -1.052   3.891  -0.960  0.00  0.00    +0.013 A 
ATOM     21  C   UNL     1      -1.551   5.022  -1.542  0.00  0.00    -0.047 A 
ATOM     22  C   UNL     1      -2.865   5.068  -1.986  0.00  0.00    -0.046 A 
ATOM     23  C   UNL     1      -3.693   3.975  -1.848  0.00  0.00    +0.030 A 
ATOM     24  C   UNL     1      -3.208   2.812  -1.259  0.00  0.00    +0.049 A 
ATOM     25  N   UNL     1      -4.013   1.703  -1.108  0.00  0.00    -0.322 N 
ATOM     26  H   UNL     1      -4.932   1.734  -1.418  0.00  0.00    +0.169 HD
ATOM     27  C   UNL     1      -3.544   0.579  -0.539  0.00  0.00    +0.251 A 
ATOM     28  O   UNL     1      -4.283  -0.384  -0.427  0.00  0.00    -0.268 OA
ATOM     29  C   UNL     1      -3.393   6.327  -2.623  0.00  0.00    +0.044 C 
ATOM     30  C   UNL     1      -0.665   6.231  -1.703  0.00  0.00    +0.044 C 
ENDBRANCH  16  17
ENDBRANCH   1  16
BRANCH   1  31
ATOM     31  C   UNL     1      -1.155  -1.687   2.735  0.00  0.00    -0.045 C 
BRANCH  31  32
ATOM     32  C   UNL     1       0.260  -1.106   2.759  0.00  0.00    +0.102 C 
ATOM     33  C   UNL     1       1.220  -2.058   3.506  0.00  0.00    +0.032 C 
ATOM     34  C   UNL     1       2.170  -1.109   4.271  0.00  0.00    +0.030 C 
ATOM     35  C   UNL     1       1.671   0.304   3.896  0.00  0.00    +0.160 C 
ATOM     36  O   UNL     1       0.288   0.120   3.522  0.00  0.00    -0.378 OA
ENDBRANCH  31  32
ENDBRANCH   1  31
TORSDOF 9
