REMARK  Name = ZINC12887980
REMARK  9 active torsions:
REMARK  status: ('A' for Active; 'I' for Inactive)
REMARK    1  A    between atoms: C_1  and  C_2
REMARK    2  A    between atoms: C_2  and  C_3
REMARK    3  A    between atoms: C_2  and  C_4
REMARK    4  A    between atoms: C_4  and  C_5
REMARK    5  A    between atoms: C_5  and  N_6
REMARK    6  A    between atoms: C_7  and  C_9
REMARK    7  A    between atoms: C_9  and  C_11
REMARK    8  A    between atoms: C_9  and  N_12
REMARK    9  A    between atoms: C_13  and  C_15
REMARK                            x       y       z     vdW  Elec       q    Type
REMARK                         _______ _______ _______ _____ _____    ______ ____
ROOT
ATOM      1  C   UNL     1      -3.047  -2.261   0.512  0.00  0.00    +0.167 C 
ATOM      2  C   UNL     1      -3.905  -1.420   1.469  0.00  0.00    +0.069 C 
ATOM      3  C   UNL     1      -5.134  -2.189   1.880  0.00  0.00    -0.015 A 
ATOM      4  C   UNL     1      -6.335  -1.659   2.501  0.00  0.00    +0.003 A 
ATOM      5  C   UNL     1      -6.710  -0.366   2.879  0.00  0.00    +0.010 A 
ATOM      6  C   UNL     1      -7.948  -0.224   3.456  0.00  0.00    +0.001 A 
ATOM      7  C   UNL     1      -8.794  -1.302   3.659  0.00  0.00    +0.002 A 
ATOM      8  C   UNL     1      -8.448  -2.591   3.293  0.00  0.00    +0.026 A 
ATOM      9  C   UNL     1      -7.197  -2.766   2.706  0.00  0.00    +0.047 A 
ATOM     10  N   UNL     1      -6.552  -3.874   2.237  0.00  0.00    -0.356 N 
ATOM     11  H   UNL     1      -6.908  -4.776   2.254  0.00  0.00    +0.166 HD
ATOM     12  C   UNL     1      -5.327  -3.520   1.740  0.00  0.00    +0.046 A 
ATOM     13  C   UNL     1      -4.312  -4.434   1.099  0.00  0.00    +0.155 C 
ATOM     14  N   UNL     1      -3.062  -3.646   0.995  0.00  0.00    -0.273 N 
ATOM     15  C   UNL     1      -2.047  -4.399   1.437  0.00  0.00    +0.248 C 
ATOM     16  O   UNL     1      -0.868  -4.149   1.282  0.00  0.00    -0.270 OA
ATOM     17  C   UNL     1      -2.577  -5.574   2.138  0.00  0.00    +0.042 A 
ATOM     18  C   UNL     1      -3.975  -5.607   1.955  0.00  0.00    -0.009 A 
ATOM     19  C   UNL     1      -4.751  -6.597   2.514  0.00  0.00    +0.006 A 
ATOM     20  C   UNL     1      -4.094  -7.571   3.260  0.00  0.00    +0.000 A 
ATOM     21  C   UNL     1      -2.725  -7.556   3.432  0.00  0.00    +0.001 A 
ATOM     22  C   UNL     1      -1.928  -6.564   2.878  0.00  0.00    +0.013 A 
ENDROOT
BRANCH   1  24
ATOM     23  N   UNL     1      -1.156  -1.110  -0.590  0.00  0.00    -0.303 N 
ATOM     24  C   UNL     1      -1.634  -1.740   0.502  0.00  0.00    +0.235 C 
ATOM     25  O   UNL     1      -0.926  -1.886   1.475  0.00  0.00    -0.274 OA
ATOM     26  H   UNL     1      -1.722  -0.992  -1.369  0.00  0.00    +0.149 HD
BRANCH  23  27
ATOM     27  C   UNL     1       0.218  -0.603  -0.600  0.00  0.00    +0.156 C 
ATOM     28  C   UNL     1       1.173  -1.726  -1.011  0.00  0.00    +0.038 C 
BRANCH  27  30
ATOM     29  N   UNL     1       1.507   1.159  -1.764  0.00  0.00    -0.314 N 
ATOM     30  C   UNL     1       0.327   0.534  -1.584  0.00  0.00    +0.233 C 
ATOM     31  O   UNL     1      -0.646   0.882  -2.218  0.00  0.00    -0.274 OA
ATOM     32  H   UNL     1       2.287   0.878  -1.259  0.00  0.00    +0.149 HD
BRANCH  29  33
ATOM     33  C   UNL     1       1.613   2.264  -2.720  0.00  0.00    +0.104 C 
BRANCH  33  34
ATOM     34  C   UNL     1       3.049   2.793  -2.731  0.00  0.00    +0.022 C 
BRANCH  34  36
ATOM     35  C   UNL     1       2.299   5.119  -3.252  0.00  0.00    +0.007 C 
ATOM     36  C   UNL     1       3.159   3.947  -3.729  0.00  0.00    -0.016 C 
ATOM     37  C   UNL     1       4.618   4.395  -3.833  0.00  0.00    +0.007 C 
ENDBRANCH  34  36
ENDBRANCH  33  34
ENDBRANCH  29  33
ENDBRANCH  27  30
ENDBRANCH  23  27
ENDBRANCH   1  24
TORSDOF 6
