REMARK  Name = ZINC17077841
REMARK  14 active torsions:
REMARK  status: ('A' for Active; 'I' for Inactive)
REMARK    1  A    between atoms: C_1  and  C_2
REMARK    2  A    between atoms: C_3  and  C_25
REMARK    3  A    between atoms: C_5  and  N_11
REMARK    4  A    between atoms: C_6  and  C_7
REMARK    5  A    between atoms: C_7  and  O_9
REMARK    6  A    between atoms: O_9  and  C_10
REMARK    7  A    between atoms: N_11  and  C_12
REMARK    8  A    between atoms: C_12  and  N_14
REMARK    9  A    between atoms: N_14  and  C_15
REMARK   10  A    between atoms: N_14  and  C_16
REMARK   11  A    between atoms: C_16  and  C_17
REMARK   12  A    between atoms: C_18  and  C_24
REMARK   13  A    between atoms: N_20  and  C_23
REMARK   14  A    between atoms: C_21  and  C_22
REMARK                            x       y       z     vdW  Elec       q    Type
REMARK                         _______ _______ _______ _____ _____    ______ ____
ROOT
ATOM      1  N   UNL     1      -1.260   2.207   0.038  0.00  0.00    -0.291 N 
ATOM      2  H   UNL     1      -2.169   1.868   0.033  0.00  0.00    +0.154 HD
ENDROOT
BRANCH   1   7
ATOM      3  C   UNL     1       1.152  -2.244   0.064  0.00  0.00    +0.045 C 
ATOM      4  C   UNL     1       1.058  -0.740   0.059  0.00  0.00    -0.025 A 
ATOM      5  C   UNL     1       2.159   0.031   0.059  0.00  0.00    -0.008 A 
ATOM      6  S   UNL     1       1.502   1.686   0.052  0.00  0.00    -0.078 S 
ATOM      7  C   UNL     1      -0.192   1.325   0.049  0.00  0.00    +0.086 A 
ATOM      8  C   UNL     1      -0.220  -0.066   0.053  0.00  0.00    +0.091 A 
ATOM      9  C   UNL     1       3.603  -0.401   0.065  0.00  0.00    +0.052 C 
BRANCH   8  10
ATOM     10  C   UNL     1      -1.481  -0.809   0.052  0.00  0.00    +0.342 C 
ATOM     11  O   UNL     1      -2.002  -1.122  -1.001  0.00  0.00    -0.245 OA
BRANCH  10  12
ATOM     12  O   UNL     1      -2.065  -1.148   1.220  0.00  0.00    -0.464 OA
ATOM     13  C   UNL     1      -3.314  -1.884   1.144  0.00  0.00    +0.280 C 
ENDBRANCH  10  12
ENDBRANCH   8  10
ENDBRANCH   1   7
BRANCH   1  14
ATOM     14  C   UNL     1      -1.036   3.536   0.036  0.00  0.00    +0.138 C 
ATOM     15  S   UNL     1       0.568   4.134   0.046  0.00  0.00    -0.018 S 
BRANCH  14  16
ATOM     16  N   UNL     1      -2.075   4.394   0.026  0.00  0.00    -0.311 N 
ATOM     17  C   UNL     1      -3.448   3.883   0.017  0.00  0.00    +0.131 C 
BRANCH  16  18
ATOM     18  C   UNL     1      -1.832   5.839   0.023  0.00  0.00    +0.145 C 
BRANCH  18  19
ATOM     19  C   UNL     1      -1.921   6.361  -1.388  0.00  0.00    +0.013 A 
ATOM     20  C   UNL     1      -0.873   6.419  -2.312  0.00  0.00    +0.065 A 
ATOM     21  N   UNL     1      -1.336   6.927  -3.425  0.00  0.00    -0.176 NA
ATOM     22  N   UNL     1      -2.694   7.218  -3.241  0.00  0.00    -0.271 N 
ATOM     23  C   UNL     1      -3.029   6.861  -1.984  0.00  0.00    +0.041 A 
ATOM     24  C   UNL     1      -4.392   6.995  -1.355  0.00  0.00    +0.065 C 
ATOM     25  C   UNL     1      -3.592   7.805  -4.238  0.00  0.00    +0.172 C 
ATOM     26  C   UNL     1       0.545   5.971  -2.068  0.00  0.00    +0.068 C 
ENDBRANCH  18  19
ENDBRANCH  16  18
ENDBRANCH  14  16
ENDBRANCH   1  14
TORSDOF 7
