REMARK  Name = ZINC39738000
REMARK  5 active torsions:
REMARK  status: ('A' for Active; 'I' for Inactive)
REMARK    1  A    between atoms: C_1  and  C_2
REMARK    2  A    between atoms: C_4  and  C_8
REMARK    3  A    between atoms: C_8  and  C_9
REMARK    4  A    between atoms: N_11  and  N_12
REMARK    5  A    between atoms: C_13  and  C_15
REMARK                            x       y       z     vdW  Elec       q    Type
REMARK                         _______ _______ _______ _____ _____    ______ ____
ROOT
ATOM      1  N   UNL     1       1.743  -6.245  -2.972  0.00  0.00    -0.230 N 
ATOM      2  C   UNL     1       2.585  -6.939  -3.763  0.00  0.00    +0.262 C 
ATOM      3  O   UNL     1       3.422  -6.352  -4.422  0.00  0.00    -0.269 OA
ATOM      4  H   UNL     1       1.075  -6.712  -2.446  0.00  0.00    +0.173 HD
ENDROOT
BRANCH   2   5
ATOM      5  C   UNL     1       2.491  -8.403  -3.829  0.00  0.00    +0.063 A 
ATOM      6  C   UNL     1       3.331  -9.306  -4.638  0.00  0.00    +0.013 A 
ATOM      7  C   UNL     1       4.387  -9.109  -5.524  0.00  0.00    +0.026 A 
ATOM      8  C   UNL     1       4.975 -10.195  -6.136  0.00  0.00    +0.019 A 
ATOM      9  C   UNL     1       4.519 -11.479  -5.873  0.00  0.00    +0.017 A 
ATOM     10  C   UNL     1       3.475 -11.687  -4.998  0.00  0.00    +0.027 A 
ATOM     11  C   UNL     1       2.868 -10.604  -4.370  0.00  0.00    +0.047 A 
ATOM     12  N   UNL     1       1.830 -10.496  -3.469  0.00  0.00    -0.360 N 
ATOM     13  C   UNL     1       1.615  -9.197  -3.149  0.00  0.00    +0.096 A 
ATOM     14 BR   UNL     1       6.410  -9.935  -7.340  0.00  0.00    -0.050 Br
ATOM     15  H   UNL     1       1.327 -11.244  -3.111  0.00  0.00    +0.165 HD
ENDBRANCH   2   5
BRANCH   1  18
ATOM     16  C   UNL     1       0.990  -4.154  -2.118  0.00  0.00    +0.232 C 
ATOM     17  O   UNL     1       0.155  -4.738  -1.460  0.00  0.00    -0.274 OA
ATOM     18  N   UNL     1       1.832  -4.848  -2.909  0.00  0.00    -0.234 N 
ATOM     19  H   UNL     1       2.500  -4.380  -3.435  0.00  0.00    +0.173 HD
BRANCH  16  20
ATOM     20  C   UNL     1       1.086  -2.651  -2.050  0.00  0.00    +0.135 C 
BRANCH  20  24
ATOM     21  C   UNL     1      -0.018   1.503   0.010  0.00  0.00    +0.061 C 
ATOM     22  C   UNL     1       0.002  -0.004   0.002  0.00  0.00    +0.022 C 
ATOM     23  N   UNL     1       0.006  -0.638  -1.082  0.00  0.00    -0.278 NA
ATOM     24  C   UNL     1       0.025  -2.115  -1.087  0.00  0.00    +0.171 C 
ATOM     25  S   UNL     1       0.482  -2.458   0.669  0.00  0.00    -0.128 S 
ATOM     26  C   UNL     1       0.025  -0.787   1.307  0.00  0.00    +0.121 C 
ENDBRANCH  20  24
ENDBRANCH  16  20
ENDBRANCH   1  18
TORSDOF 4
