REMARK  Name = ZINC06275706
REMARK  7 active torsions:
REMARK  status: ('A' for Active; 'I' for Inactive)
REMARK    1  A    between atoms: C_1  and  C_2
REMARK    2  A    between atoms: C_4  and  C_10
REMARK    3  A    between atoms: C_5  and  O_9
REMARK    4  A    between atoms: N_11  and  C_12
REMARK    5  A    between atoms: C_15  and  N_18
REMARK    6  A    between atoms: N_18  and  C_19
REMARK    7  A    between atoms: C_19  and  N_21
REMARK                            x       y       z     vdW  Elec       q    Type
REMARK                         _______ _______ _______ _____ _____    ______ ____
ROOT
ATOM      1  C   UNL     1       0.017  -4.792  -3.676  0.00  0.00    +0.064 A 
ATOM      2  C   UNL     1      -0.632  -4.265  -4.795  0.00  0.00    +0.029 A 
ATOM      3  C   UNL     1      -0.615  -4.954  -5.988  0.00  0.00    +0.025 A 
ATOM      4  C   UNL     1       0.046  -6.173  -6.079  0.00  0.00    +0.033 A 
ATOM      5  C   UNL     1       0.692  -6.702  -4.967  0.00  0.00    +0.025 A 
ATOM      6  C   UNL     1       0.685  -6.016  -3.772  0.00  0.00    +0.029 A 
ENDROOT
BRANCH   1   8
ATOM      7  C   UNL     1       0.228  -2.826  -2.474  0.00  0.00    +0.123 C 
ATOM      8  N   UNL     1       0.002  -4.110  -2.490  0.00  0.00    -0.255 NA
BRANCH   7  12
ATOM      9  C   UNL     1       0.698   1.449   0.044  0.00  0.00    +0.044 C 
ATOM     10  C   UNL     1       0.437  -0.035   0.022  0.00  0.00    -0.049 A 
ATOM     11  C   UNL     1       0.453  -0.716  -1.176  0.00  0.00    +0.016 A 
ATOM     12  C   UNL     1       0.212  -2.094  -1.199  0.00  0.00    +0.036 A 
ATOM     13  C   UNL     1      -0.045  -2.772   0.002  0.00  0.00    +0.139 A 
ATOM     14  C   UNL     1      -0.057  -2.070   1.198  0.00  0.00    +0.060 A 
ATOM     15  C   UNL     1       0.188  -0.709   1.206  0.00  0.00    +0.022 A 
ATOM     16 BR   UNL     1      -0.402  -2.977   2.821  0.00  0.00    -0.046 Br
BRANCH  13  17
ATOM     17  O   UNL     1      -0.281  -4.109  -0.006  0.00  0.00    -0.505 OA
ATOM     18  H   UNL     1       0.516  -4.649   0.090  0.00  0.00    +0.292 HD
ENDBRANCH  13  17
ENDBRANCH   7  12
ENDBRANCH   1   8
BRANCH   4  19
ATOM     19  N   UNL     1       0.061  -6.870  -7.291  0.00  0.00    -0.297 N 
ATOM     20  H   UNL     1      -0.068  -7.832  -7.299  0.00  0.00    +0.154 HD
BRANCH  19  21
ATOM     21  C   UNL     1       0.254  -6.206  -8.448  0.00  0.00    +0.132 C 
ATOM     22  S   UNL     1       0.621  -4.534  -8.424  0.00  0.00    -0.019 S 
BRANCH  21  23
ATOM     23  N   UNL     1       0.157  -6.858  -9.623  0.00  0.00    -0.340 N 
ATOM     24  H   UNL     1      -0.051  -7.805  -9.637  0.00  0.00    +0.144 HD
ATOM     25  H   UNL     1       0.296  -6.380 -10.456  0.00  0.00    +0.144 HD
ENDBRANCH  21  23
ENDBRANCH  19  21
ENDBRANCH   4  19
TORSDOF 6
