REMARK  Name = ZINC16323536
REMARK  8 active torsions:
REMARK  status: ('A' for Active; 'I' for Inactive)
REMARK    1  A    between atoms: C_1  and  C_2
REMARK    2  A    between atoms: C_2  and  C_4
REMARK    3  A    between atoms: C_2  and  S_20
REMARK    4  A    between atoms: N_6  and  C_7
REMARK    5  A    between atoms: C_12  and  S_13
REMARK    6  A    between atoms: S_13  and  C_14
REMARK    7  A    between atoms: S_20  and  C_21
REMARK    8  A    between atoms: N_34  and  C_35
REMARK                            x       y       z     vdW  Elec       q    Type
REMARK                         _______ _______ _______ _____ _____    ______ ____
ROOT
ATOM      1  C   UNL     1       3.635   2.352  -0.520  0.00  0.00    +0.029 C 
ATOM      2  C   UNL     1       4.172   2.337   0.912  0.00  0.00    +0.137 C 
ENDROOT
BRANCH   2   3
ATOM      3  C   UNL     1       5.671   2.491   0.888  0.00  0.00    +0.230 C 
ATOM      4  O   UNL     1       6.382   1.509   0.919  0.00  0.00    -0.274 OA
ATOM      5  N   UNL     1       6.221   3.720   0.833  0.00  0.00    -0.284 N 
ATOM      6  H   UNL     1       5.655   4.501   0.734  0.00  0.00    +0.155 HD
BRANCH   5   7
ATOM      7  C   UNL     1       7.612   3.869   0.917  0.00  0.00    +0.047 A 
ATOM      8  C   UNL     1       8.448   2.850   0.489  0.00  0.00    +0.024 A 
ATOM      9  C   UNL     1       9.820   3.002   0.568  0.00  0.00    +0.002 A 
ATOM     10  C   UNL     1      10.363   4.165   1.085  0.00  0.00    +0.001 A 
ATOM     11  C   UNL     1       9.537   5.184   1.520  0.00  0.00    +0.017 A 
ATOM     12  C   UNL     1       8.159   5.042   1.439  0.00  0.00    +0.034 A 
BRANCH  12  13
ATOM     13  S   UNL     1       7.103   6.340   1.992  0.00  0.00    -0.088 S 
BRANCH  13  14
ATOM     14  C   UNL     1       6.527   7.085   0.503  0.00  0.00    +0.013 A 
ATOM     15  C   UNL     1       7.041   6.679  -0.723  0.00  0.00    +0.015 A 
ATOM     16  C   UNL     1       6.584   7.262  -1.888  0.00  0.00    +0.001 A 
ATOM     17  C   UNL     1       5.623   8.256  -1.836  0.00  0.00    +0.000 A 
ATOM     18  C   UNL     1       5.114   8.667  -0.617  0.00  0.00    +0.001 A 
ATOM     19  C   UNL     1       5.563   8.085   0.552  0.00  0.00    +0.015 A 
ENDBRANCH  13  14
ENDBRANCH  12  13
ENDBRANCH   5   7
ENDBRANCH   2   3
BRANCH   2  20
ATOM     20  S   UNL     1       3.739   0.763   1.704  0.00  0.00    -0.073 S 
BRANCH  20  21
ATOM     21  C   UNL     1       1.979   0.799   1.788  0.00  0.00    +0.198 A 
ATOM     22  N   UNL     1       1.207   1.768   1.362  0.00  0.00    -0.120 NA
ATOM     23  N   UNL     1      -0.122   1.407   1.615  0.00  0.00    -0.109 NA
ATOM     24  C   UNL     1      -0.122   0.226   2.190  0.00  0.00    +0.240 A 
ATOM     25  N   UNL     1       1.178  -0.180   2.312  0.00  0.00    -0.256 N 
ATOM     26  C   UNL     1       1.486  -1.409   2.892  0.00  0.00    +0.064 A 
ATOM     27  C   UNL     1       2.800  -1.830   3.020  0.00  0.00    +0.027 A 
ATOM     28  C   UNL     1       3.077  -3.053   3.599  0.00  0.00    +0.002 A 
ATOM     29  C   UNL     1       2.051  -3.865   4.055  0.00  0.00    +0.001 A 
ATOM     30  C   UNL     1       0.738  -3.463   3.936  0.00  0.00    +0.015 A 
ATOM     31  C   UNL     1       0.446  -2.231   3.353  0.00  0.00    +0.064 A 
ATOM     32  C   UNL     1      -0.945  -1.764   3.207  0.00  0.00    +0.263 A 
ATOM     33  O   UNL     1      -1.872  -2.450   3.595  0.00  0.00    -0.267 OA
ATOM     34  N   UNL     1      -1.172  -0.563   2.636  0.00  0.00    -0.280 N 
ATOM     35  C   UNL     1      -2.548  -0.086   2.484  0.00  0.00    +0.155 C 
ENDBRANCH  20  21
ENDBRANCH   2  20
TORSDOF 6
