REMARK  Name = ZINC58960870
REMARK  8 active torsions:
REMARK  status: ('A' for Active; 'I' for Inactive)
REMARK    1  A    between atoms: C_1  and  C_2
REMARK    2  A    between atoms: C_2  and  C_4
REMARK    3  A    between atoms: C_2  and  S_17
REMARK    4  A    between atoms: N_6  and  C_7
REMARK    5  A    between atoms: C_8  and  C_15
REMARK    6  A    between atoms: S_17  and  C_18
REMARK    7  A    between atoms: C_20  and  C_28
REMARK    8  A    between atoms: C_22  and  C_24
REMARK                            x       y       z     vdW  Elec       q    Type
REMARK                         _______ _______ _______ _____ _____    ______ ____
ROOT
ATOM      1  S   UNL     1      -1.700  -0.632   0.015  0.00  0.00    -0.074 S 
ENDROOT
BRANCH   1   2
ATOM      2  C   UNL     1      -2.335  -0.110   1.573  0.00  0.00    +0.190 A 
ATOM      3  N   UNL     1      -3.580  -0.421   1.900  0.00  0.00    -0.222 NA
ATOM      4  C   UNL     1      -4.089  -0.042   3.070  0.00  0.00    +0.076 A 
ATOM      5  C   UNL     1      -3.289   0.691   3.951  0.00  0.00    +0.060 A 
ATOM      6  C   UNL     1      -1.994   0.994   3.569  0.00  0.00    +0.148 A 
ATOM      7  N   UNL     1      -1.552   0.580   2.392  0.00  0.00    -0.218 NA
BRANCH   4   8
ATOM      8  C   UNL     1      -5.483  -0.392   3.433  0.00  0.00    +0.001 A 
ATOM      9  C   UNL     1      -6.010   0.015   4.658  0.00  0.00    +0.011 A 
ATOM     10  C   UNL     1      -7.308  -0.313   4.991  0.00  0.00    +0.020 A 
ATOM     11  C   UNL     1      -8.088  -1.044   4.111  0.00  0.00    +0.041 A 
ATOM     12  C   UNL     1      -7.569  -1.450   2.893  0.00  0.00    +0.020 A 
ATOM     13  C   UNL     1      -6.274  -1.123   2.548  0.00  0.00    +0.011 A 
ATOM     14 CL   UNL     1      -9.720  -1.454   4.536  0.00  0.00    -0.084 Cl
ENDBRANCH   4   8
BRANCH   6  15
ATOM     15  C   UNL     1      -1.095   1.783   4.485  0.00  0.00    +0.434 C 
ATOM     16  F   UNL     1      -0.392   0.905   5.317  0.00  0.00    -0.164 F 
ATOM     17  F   UNL     1      -0.189   2.527   3.722  0.00  0.00    -0.164 F 
ATOM     18  F   UNL     1      -1.868   2.648   5.267  0.00  0.00    -0.164 F 
ENDBRANCH   6  15
ENDBRANCH   1   2
BRANCH   1  20
ATOM     19  C   UNL     1      -0.019   1.526   0.010  0.00  0.00    +0.029 C 
ATOM     20  C   UNL     1       0.002  -0.004   0.002  0.00  0.00    +0.137 C 
BRANCH  20  21
ATOM     21  C   UNL     1       0.707  -0.490  -1.238  0.00  0.00    +0.231 C 
ATOM     22  O   UNL     1       0.066  -0.782  -2.225  0.00  0.00    -0.274 OA
ATOM     23  N   UNL     1       2.051  -0.601  -1.250  0.00  0.00    -0.278 N 
ATOM     24  H   UNL     1       2.563  -0.367  -0.460  0.00  0.00    +0.155 HD
BRANCH  23  25
ATOM     25  C   UNL     1       2.700  -1.048  -2.392  0.00  0.00    +0.090 A 
ATOM     26  C   UNL     1       4.057  -1.228  -2.582  0.00  0.00    +0.084 A 
ATOM     27  C   UNL     1       4.492  -1.714  -3.889  0.00  0.00    -0.018 A 
ATOM     28  C   UNL     1       3.486  -1.927  -4.758  0.00  0.00    -0.004 A 
ATOM     29  S   UNL     1       2.018  -1.502  -3.855  0.00  0.00    -0.077 S 
ATOM     30  C   UNL     1       3.988  -2.422  -6.087  0.00  0.00    +0.043 C 
ATOM     31  C   UNL     1       5.496  -2.087  -6.084  0.00  0.00    +0.010 C 
ATOM     32  C   UNL     1       5.811  -2.065  -4.574  0.00  0.00    +0.037 C 
BRANCH  26  33
ATOM     33  C   UNL     1       4.999  -0.948  -1.540  0.00  0.00    +0.102 C 
ATOM     34  N   UNL     1       5.746  -0.726  -0.714  0.00  0.00    -0.191 NA
ENDBRANCH  26  33
ENDBRANCH  23  25
ENDBRANCH  20  21
ENDBRANCH   1  20
TORSDOF 7
