REMARK  Name = ZINC32932593
REMARK  10 active torsions:
REMARK  status: ('A' for Active; 'I' for Inactive)
REMARK    1  A    between atoms: C_1  and  C_2
REMARK    2  A    between atoms: C_2  and  C_3
REMARK    3  A    between atoms: C_3  and  N_4
REMARK    4  A    between atoms: N_4  and  C_5
REMARK    5  A    between atoms: N_4  and  C_13
REMARK    6  A    between atoms: C_5  and  C_6
REMARK    7  A    between atoms: C_9  and  C_12
REMARK    8  A    between atoms: C_13  and  N_14
REMARK    9  A    between atoms: C_18  and  C_26
REMARK   10  A    between atoms: C_23  and  C_25
REMARK                            x       y       z     vdW  Elec       q    Type
REMARK                         _______ _______ _______ _____ _____    ______ ____
ROOT
ATOM      1  N   UNL     1       1.139   2.093  -0.021  0.00  0.00    -0.241 N 
ATOM      2  C   UNL     1       0.936   3.424   0.063  0.00  0.00    +0.245 C 
ATOM      3  O   UNL     1       1.780   4.291   0.144  0.00  0.00    -0.273 OA
ATOM      4  C   UNL     1      -0.564   3.606   0.035  0.00  0.00    +0.118 C 
ATOM      5  C   UNL     1      -0.976   4.432  -1.179  0.00  0.00    +0.019 C 
ATOM      6  C   UNL     1      -2.499   4.581  -1.205  0.00  0.00    +0.006 C 
ATOM      7  C   UNL     1      -2.966   5.266   0.081  0.00  0.00    +0.001 C 
ATOM      8  C   UNL     1      -2.567   4.414   1.288  0.00  0.00    +0.006 C 
ATOM      9  C   UNL     1      -1.044   4.264   1.324  0.00  0.00    +0.019 C 
ATOM     10  C   UNL     1      -0.400   5.645   1.461  0.00  0.00    +0.010 C 
ATOM     11  C   UNL     1      -0.511   3.729  -2.456  0.00  0.00    +0.010 C 
ATOM     12  N   UNL     1      -1.087   2.239  -0.077  0.00  0.00    -0.284 N 
ATOM     13  C   UNL     1      -0.017   1.422  -0.097  0.00  0.00    +0.308 C 
ATOM     14  O   UNL     1      -0.092   0.212  -0.181  0.00  0.00    -0.252 OA
ATOM     15  H   UNL     1      -2.173   2.068  -0.126  0.00  0.00    +0.151 HD
ENDROOT
BRANCH   1  16
ATOM     16  C   UNL     1       2.460   1.460  -0.028  0.00  0.00    +0.043 C 
BRANCH  16  17
ATOM     17  N   UNL     1       2.851   1.157  -1.411  0.00  0.00    +0.393 N 
ATOM     18  H   UNL     1       1.938   0.918  -1.975  0.00  0.00    -0.079 HD
BRANCH  17  19
ATOM     19  C   UNL     1       3.736  -0.014  -1.464  0.00  0.00    -0.076 C 
BRANCH  19  21
ATOM     20  C   UNL     1       3.805  -2.512  -1.459  0.00  0.00    +0.002 C 
ATOM     21  C   UNL     1       2.909  -1.287  -1.268  0.00  0.00    -0.022 C 
ENDBRANCH  19  21
ENDBRANCH  17  19
BRANCH  17  22
ATOM     22  C   UNL     1       3.482   2.322  -2.047  0.00  0.00    -0.041 C 
BRANCH  22  23
ATOM     23  C   UNL     1       3.645   2.062  -3.522  0.00  0.00    -0.064 A 
ATOM     24  C   UNL     1       4.803   1.474  -3.996  0.00  0.00    +0.002 A 
ATOM     25  C   UNL     1       4.950   1.231  -5.349  0.00  0.00    +0.003 A 
ATOM     26  C   UNL     1       3.944   1.586  -6.229  0.00  0.00    -0.050 A 
ATOM     27  C   UNL     1       2.789   2.179  -5.755  0.00  0.00    +0.003 A 
ATOM     28  C   UNL     1       2.639   2.417  -4.402  0.00  0.00    +0.002 A 
ATOM     29  C   UNL     1       4.107   1.326  -7.704  0.00  0.00    +0.044 C 
ENDBRANCH  22  23
ENDBRANCH  17  22
ENDBRANCH  16  17
ENDBRANCH   1  16
TORSDOF 6
