REMARK  Name = ZINC63372994
REMARK  12 active torsions:
REMARK  status: ('A' for Active; 'I' for Inactive)
REMARK    1  A    between atoms: C_1  and  C_2
REMARK    2  A    between atoms: C_2  and  C_3
REMARK    3  A    between atoms: C_3  and  C_4
REMARK    4  A    between atoms: C_4  and  N_5
REMARK    5  A    between atoms: C_11  and  C_27
REMARK    6  A    between atoms: C_23  and  C_26
REMARK    7  A    between atoms: C_30  and  O_35
REMARK    8  A    between atoms: C_31  and  O_33
REMARK    9  A    between atoms: O_33  and  C_34
REMARK   10  A    between atoms: O_35  and  C_36
REMARK   11  A    between atoms: C_36  and  C_37
REMARK   12  A    between atoms: C_36  and  C_38
REMARK                            x       y       z     vdW  Elec       q    Type
REMARK                         _______ _______ _______ _____ _____    ______ ____
ROOT
ATOM      1  N   UNL     1       1.268  -2.575  -2.319  0.00  0.00    -0.291 N 
ATOM      2  C   UNL     1       0.577  -2.796  -3.604  0.00  0.00    +0.203 C 
ATOM      3  C   UNL     1       1.360  -2.105  -4.700  0.00  0.00    +0.234 C 
ATOM      4  O   UNL     1       0.807  -1.467  -5.570  0.00  0.00    -0.274 OA
ATOM      5  N   UNL     1       2.728  -2.236  -4.661  0.00  0.00    -0.283 N 
ATOM      6  C   UNL     1       3.497  -1.409  -5.574  0.00  0.00    +0.121 C 
ATOM      7  C   UNL     1       4.947  -1.873  -5.741  0.00  0.00    +0.065 C 
ATOM      8  C   UNL     1       5.417  -2.283  -4.368  0.00  0.00    -0.027 C 
ATOM      9  C   UNL     1       6.400  -1.857  -3.590  0.00  0.00    -0.000 A 
ATOM     10  C   UNL     1       7.497  -0.903  -3.822  0.00  0.00    +0.010 A 
ATOM     11  C   UNL     1       8.331  -0.680  -2.772  0.00  0.00    +0.001 A 
ATOM     12  C   UNL     1       8.184  -1.301  -1.528  0.00  0.00    +0.002 A 
ATOM     13  C   UNL     1       7.213  -2.199  -1.229  0.00  0.00    +0.026 A 
ATOM     14  C   UNL     1       6.282  -2.526  -2.258  0.00  0.00    +0.043 A 
ATOM     15  N   UNL     1       5.287  -3.365  -2.257  0.00  0.00    -0.375 N 
ATOM     16  C   UNL     1       4.702  -3.380  -3.596  0.00  0.00    +0.139 C 
ATOM     17  C   UNL     1       3.226  -3.141  -3.640  0.00  0.00    +0.135 C 
ATOM     18  C   UNL     1       2.621  -2.769  -2.311  0.00  0.00    +0.242 C 
ATOM     19  O   UNL     1       3.287  -2.655  -1.304  0.00  0.00    -0.273 OA
ATOM     20  C   UNL     1       2.604  -4.499  -3.971  0.00  0.00    +0.044 C 
ATOM     21  H   UNL     1       4.986  -3.890  -1.498  0.00  0.00    +0.160 HD
ENDROOT
BRANCH   7  22
ATOM     22  C   UNL     1       5.795  -0.744  -6.266  0.00  0.00    -0.035 A 
ATOM     23  C   UNL     1       5.915   0.425  -5.538  0.00  0.00    +0.008 A 
ATOM     24  C   UNL     1       6.692   1.464  -6.016  0.00  0.00    +0.050 A 
ATOM     25  C   UNL     1       7.353   1.335  -7.226  0.00  0.00    +0.162 A 
ATOM     26  C   UNL     1       7.234   0.158  -7.959  0.00  0.00    +0.162 A 
ATOM     27  C   UNL     1       6.457  -0.881  -7.472  0.00  0.00    +0.053 A 
BRANCH  26  28
ATOM     28  O   UNL     1       7.881   0.026  -9.147  0.00  0.00    -0.491 OA
ATOM     29  C   UNL     1       7.713  -1.210  -9.845  0.00  0.00    +0.277 C 
ENDBRANCH  26  28
BRANCH  25  30
ATOM     30  O   UNL     1       8.118   2.356  -7.697  0.00  0.00    -0.486 OA
BRANCH  30  31
ATOM     31  C   UNL     1       8.291   3.486  -6.840  0.00  0.00    +0.167 C 
ATOM     32  C   UNL     1       9.593   4.205  -7.201  0.00  0.00    +0.051 C 
ATOM     33  C   UNL     1       7.113   4.445  -7.015  0.00  0.00    +0.051 C 
ENDBRANCH  30  31
ENDBRANCH  25  30
ENDBRANCH   7  22
BRANCH   1  34
ATOM     34  C   UNL     1       0.541  -2.162  -1.116  0.00  0.00    +0.108 C 
BRANCH  34  35
ATOM     35  C   UNL     1       0.490  -0.634  -1.051  0.00  0.00    +0.019 C 
BRANCH  35  37
ATOM     36  C   UNL     1      -0.321   1.325   0.271  0.00  0.00    +0.004 C 
ATOM     37  C   UNL     1      -0.269  -0.203   0.206  0.00  0.00    -0.002 C 
ENDBRANCH  35  37
ENDBRANCH  34  35
ENDBRANCH   1  34
TORSDOF 7
