REMARK  Name = ZINC25164666
REMARK  8 active torsions:
REMARK  status: ('A' for Active; 'I' for Inactive)
REMARK    1  A    between atoms: C_1  and  C_2
REMARK    2  A    between atoms: C_2  and  O_4
REMARK    3  A    between atoms: O_4  and  C_5
REMARK    4  A    between atoms: C_5  and  C_6
REMARK    5  A    between atoms: C_9  and  C_11
REMARK    6  A    between atoms: C_17  and  O_23
REMARK    7  A    between atoms: O_23  and  C_24
REMARK    8  A    between atoms: C_28  and  C_30
REMARK                            x       y       z     vdW  Elec       q    Type
REMARK                         _______ _______ _______ _____ _____    ______ ____
ROOT
ATOM      1  C   UNL     1      -1.628  -1.300   0.177  0.00  0.00    +0.189 C 
ATOM      2  C   UNL     1      -2.457  -1.470   1.430  0.00  0.00    +0.049 A 
ATOM      3  C   UNL     1      -3.604  -0.795   1.662  0.00  0.00    -0.015 A 
ATOM      4  C   UNL     1      -4.095  -1.226   2.956  0.00  0.00    +0.007 A 
ATOM      5  C   UNL     1      -5.221  -0.873   3.706  0.00  0.00    +0.056 A 
ATOM      6  C   UNL     1      -5.377  -1.504   4.931  0.00  0.00    +0.121 A 
ATOM      7  C   UNL     1      -4.462  -2.441   5.395  0.00  0.00    +0.047 A 
ATOM      8  C   UNL     1      -3.342  -2.800   4.666  0.00  0.00    +0.030 A 
ATOM      9  C   UNL     1      -3.161  -2.181   3.432  0.00  0.00    +0.047 A 
ATOM     10  N   UNL     1      -2.185  -2.303   2.482  0.00  0.00    -0.356 N 
ATOM     11  H   UNL     1      -1.286  -2.936   2.464  0.00  0.00    +0.166 HD
ATOM     12  C   UNL     1      -4.216   0.208   0.719  0.00  0.00    +0.056 C 
ATOM     13  C   UNL     1      -3.152   0.661  -0.289  0.00  0.00    +0.114 C 
ATOM     14  N   UNL     1      -2.429  -0.521  -0.782  0.00  0.00    -0.281 N 
ATOM     15  C   UNL     1      -2.499  -0.882  -2.079  0.00  0.00    +0.254 C 
ATOM     16  O   UNL     1      -3.261  -0.306  -2.831  0.00  0.00    -0.269 OA
ENDROOT
BRANCH  15  17
ATOM     17  C   UNL     1      -1.653  -1.974  -2.584  0.00  0.00    +0.075 A 
ATOM     18  C   UNL     1      -1.687  -2.576  -3.802  0.00  0.00    +0.029 A 
ATOM     19  C   UNL     1      -0.784  -3.614  -4.097  0.00  0.00    -0.010 A 
ATOM     20  C   UNL     1      -0.663  -4.359  -5.298  0.00  0.00    +0.009 A 
ATOM     21  C   UNL     1       0.271  -5.337  -5.419  0.00  0.00    +0.001 A 
ATOM     22  C   UNL     1       1.141  -5.646  -4.380  0.00  0.00    +0.001 A 
ATOM     23  C   UNL     1       1.058  -4.946  -3.193  0.00  0.00    +0.015 A 
ATOM     24  C   UNL     1       0.114  -3.950  -3.056  0.00  0.00    +0.020 A 
ATOM     25  S   UNL     1      -0.326  -2.828  -1.753  0.00  0.00    -0.084 S 
ENDBRANCH  15  17
BRANCH   1  29
ATOM     26  C   UNL     1       1.033   1.075   0.961  0.00  0.00    +0.143 A 
ATOM     27  C   UNL     1       1.756  -0.060   0.949  0.00  0.00    +0.048 A 
ATOM     28  C   UNL     1       0.860  -1.113   0.653  0.00  0.00    +0.047 A 
ATOM     29  C   UNL     1      -0.356  -0.559   0.502  0.00  0.00    +0.132 A 
ATOM     30  O   UNL     1      -0.245   0.766   0.689  0.00  0.00    -0.459 OA
BRANCH  26  31
ATOM     31  C   UNL     1       1.567   2.458   1.232  0.00  0.00    +0.306 C 
BRANCH  31  32
ATOM     32  O   UNL     1       1.982   3.071  -0.017  0.00  0.00    -0.457 OA
BRANCH  32  34
ATOM     33  C   UNL     1       2.935   5.013  -1.205  0.00  0.00    +0.136 C 
ATOM     34  C   UNL     1       2.484   4.313   0.051  0.00  0.00    +0.304 C 
ATOM     35  O   UNL     1       2.576   4.870   1.119  0.00  0.00    -0.251 OA
ENDBRANCH  32  34
ENDBRANCH  31  32
ENDBRANCH  26  31
ENDBRANCH   1  29
BRANCH   6  36
ATOM     36  O   UNL     1      -6.456  -1.197   5.700  0.00  0.00    -0.495 OA
ATOM     37  C   UNL     1      -6.573  -1.874   6.954  0.00  0.00    +0.277 C 
ENDBRANCH   6  36
TORSDOF 6
