REMARK  Name = ZINC62938808
REMARK  5 active torsions:
REMARK  status: ('A' for Active; 'I' for Inactive)
REMARK    1  A    between atoms: C_1  and  N_2
REMARK    2  A    between atoms: N_7  and  C_8
REMARK    3  A    between atoms: N_7  and  C_9
REMARK    4  A    between atoms: C_13  and  C_15
REMARK    5  A    between atoms: C_15  and  N_17
REMARK                            x       y       z     vdW  Elec       q    Type
REMARK                         _______ _______ _______ _____ _____    ______ ____
ROOT
ATOM      1  C   UNL     1      -0.124  -1.150  -3.382  0.00  0.00    +0.037 A 
ATOM      2  C   UNL     1      -0.130  -2.513  -3.108  0.00  0.00    +0.023 A 
ATOM      3  C   UNL     1      -0.249  -3.429  -4.136  0.00  0.00    +0.002 A 
ATOM      4  C   UNL     1      -0.363  -2.997  -5.442  0.00  0.00    +0.010 A 
ATOM      5  C   UNL     1      -0.358  -1.630  -5.728  0.00  0.00    +0.005 A 
ATOM      6  C   UNL     1      -0.243  -0.705  -4.689  0.00  0.00    +0.033 A 
ENDROOT
BRANCH   1  13
ATOM      7  C   UNL     1       2.514  -0.799  -0.683  0.00  0.00    +0.178 C 
ATOM      8  N   UNL     1       1.112  -0.925  -0.277  0.00  0.00    -0.216 N 
ATOM      9  C   UNL     1       0.014  -0.667  -1.025  0.00  0.00    +0.241 A 
ATOM     10  N   UNL     1      -1.034  -0.913  -0.270  0.00  0.00    -0.092 NA
ATOM     11  N   UNL     1      -0.667  -1.305   0.897  0.00  0.00    -0.021 NA
ATOM     12  N   UNL     1       0.619  -1.345   0.971  0.00  0.00    -0.043 NA
ATOM     13  N   UNL     1      -0.003  -0.228  -2.338  0.00  0.00    -0.272 N 
ATOM     14  C   UNL     1       0.106   1.202  -2.633  0.00  0.00    +0.138 C 
ENDBRANCH   1  13
BRANCH   5  15
ATOM     15  C   UNL     1      -0.479  -1.165  -7.124  0.00  0.00    +0.077 C 
ATOM     16  S   UNL     1      -1.333   0.277  -7.475  0.00  0.00    -0.035 S 
BRANCH  15  17
ATOM     17  N   UNL     1       0.083  -1.875  -8.122  0.00  0.00    -0.352 N 
ATOM     18  H   UNL     1       0.566  -2.692  -7.924  0.00  0.00    +0.143 HD
ATOM     19  H   UNL     1       0.003  -1.569  -9.040  0.00  0.00    +0.143 HD
ENDBRANCH  15  17
ENDBRANCH   5  15
TORSDOF 3
