REMARK  Name = ZINC22371863
REMARK  10 active torsions:
REMARK  status: ('A' for Active; 'I' for Inactive)
REMARK    1  A    between atoms: C_1  and  C_2
REMARK    2  A    between atoms: C_5  and  N_8
REMARK    3  A    between atoms: N_8  and  C_9
REMARK    4  A    between atoms: N_8  and  S_27
REMARK    5  A    between atoms: C_9  and  C_10
REMARK    6  A    between atoms: N_12  and  C_13
REMARK    7  A    between atoms: C_16  and  C_25
REMARK    8  A    between atoms: C_16  and  C_26
REMARK    9  A    between atoms: C_21  and  C_24
REMARK   10  A    between atoms: S_27  and  C_30
REMARK                            x       y       z     vdW  Elec       q    Type
REMARK                         _______ _______ _______ _____ _____    ______ ____
ROOT
ATOM      1  N   UNL     1      -0.996  -3.600   0.764  0.00  0.00    -0.194 N 
ENDROOT
BRANCH   1   6
ATOM      2  C   UNL     1      -4.120  -7.145  -2.372  0.00  0.00    +0.044 C 
ATOM      3  C   UNL     1      -3.290  -6.203  -1.539  0.00  0.00    -0.050 A 
ATOM      4  C   UNL     1      -3.684  -4.886  -1.388  0.00  0.00    +0.005 A 
ATOM      5  C   UNL     1      -2.925  -4.020  -0.625  0.00  0.00    +0.025 A 
ATOM      6  C   UNL     1      -1.766  -4.473  -0.009  0.00  0.00    +0.052 A 
ATOM      7  C   UNL     1      -1.370  -5.795  -0.167  0.00  0.00    +0.025 A 
ATOM      8  C   UNL     1      -2.136  -6.657  -0.927  0.00  0.00    +0.005 A 
ENDBRANCH   1   6
BRANCH   1   9
ATOM      9  S   UNL     1       0.595  -3.341   0.383  0.00  0.00    +0.075 S 
ATOM     10  O   UNL     1       0.766  -3.772  -0.960  0.00  0.00    -0.150 OA
ATOM     11  O   UNL     1       0.903  -2.020   0.806  0.00  0.00    -0.150 OA
BRANCH   9  12
ATOM     12  C   UNL     1       1.553  -4.428   1.386  0.00  0.00    +0.109 A 
ATOM     13  C   UNL     1       1.901  -4.055   2.671  0.00  0.00    +0.030 A 
ATOM     14  C   UNL     1       2.648  -4.909   3.461  0.00  0.00    +0.022 A 
ATOM     15  C   UNL     1       3.057  -6.132   2.960  0.00  0.00    +0.041 A 
ATOM     16  C   UNL     1       2.714  -6.502   1.672  0.00  0.00    +0.022 A 
ATOM     17  C   UNL     1       1.962  -5.649   0.886  0.00  0.00    +0.030 A 
ATOM     18 CL   UNL     1       4.002  -7.202   3.948  0.00  0.00    -0.084 Cl
ENDBRANCH   9  12
ENDBRANCH   1   9
BRANCH   1  19
ATOM     19  C   UNL     1      -1.597  -2.913   1.910  0.00  0.00    +0.227 C 
BRANCH  19  20
ATOM     20  C   UNL     1      -2.286  -1.659   1.439  0.00  0.00    +0.233 C 
ATOM     21  O   UNL     1      -2.277  -1.367   0.262  0.00  0.00    -0.274 OA
ATOM     22  N   UNL     1      -2.913  -0.861   2.326  0.00  0.00    -0.307 N 
ATOM     23  H   UNL     1      -2.921  -1.125   3.394  0.00  0.00    +0.149 HD
BRANCH  22  24
ATOM     24  C   UNL     1      -3.583   0.359   1.868  0.00  0.00    +0.111 C 
ATOM     25  C   UNL     1      -4.689   0.734   2.857  0.00  0.00    +0.074 C 
ATOM     26  C   UNL     1      -5.173   2.152   2.525  0.00  0.00    +0.107 C 
ATOM     27  O   UNL     1      -4.095   3.061   2.753  0.00  0.00    -0.486 OA
ATOM     28  C   UNL     1      -2.885   2.758   2.216  0.00  0.00    +0.126 A 
ATOM     29  C   UNL     1      -2.581   1.481   1.775  0.00  0.00    +0.015 A 
ATOM     30  C   UNL     1      -1.329   1.215   1.248  0.00  0.00    +0.012 A 
ATOM     31  C   UNL     1      -0.387   2.220   1.145  0.00  0.00    -0.050 A 
ATOM     32  C   UNL     1      -0.691   3.498   1.576  0.00  0.00    +0.007 A 
ATOM     33  C   UNL     1      -1.934   3.768   2.110  0.00  0.00    +0.046 A 
ATOM     34  C   UNL     1       0.972   1.923   0.564  0.00  0.00    +0.044 C 
ATOM     35  C   UNL     1      -6.355   2.517   3.425  0.00  0.00    +0.055 C 
ATOM     36  C   UNL     1      -5.601   2.219   1.058  0.00  0.00    +0.055 C 
ENDBRANCH  22  24
ENDBRANCH  19  20
ENDBRANCH   1  19
TORSDOF 6
