REMARK  Name = ZINC21335448
REMARK  6 active torsions:
REMARK  status: ('A' for Active; 'I' for Inactive)
REMARK    1  A    between atoms: C_1  and  C_2
REMARK    2  A    between atoms: C_2  and  C_25
REMARK    3  A    between atoms: N_5  and  C_9
REMARK    4  A    between atoms: C_9  and  C_10
REMARK    5  A    between atoms: N_12  and  C_13
REMARK    6  A    between atoms: C_13  and  C_14
REMARK                            x       y       z     vdW  Elec       q    Type
REMARK                         _______ _______ _______ _____ _____    ______ ____
ROOT
ATOM      1  C   UNL     1      -0.430  10.427  -1.056  0.00  0.00    +0.047 C 
ATOM      2  C   UNL     1      -1.858  10.178  -0.566  0.00  0.00    +0.135 C 
ATOM      3  C   UNL     1      -2.359   8.831  -1.049  0.00  0.00    +0.251 C 
ATOM      4  O   UNL     1      -2.504   8.472  -2.198  0.00  0.00    -0.272 OA
ATOM      5  N   UNL     1      -2.610   8.115   0.065  0.00  0.00    -0.215 N 
ATOM      6  C   UNL     1      -2.345   8.817   1.173  0.00  0.00    +0.310 C 
ATOM      7  O   UNL     1      -2.498   8.386   2.299  0.00  0.00    -0.252 OA
ATOM      8  N   UNL     1      -1.888  10.053   0.901  0.00  0.00    -0.281 N 
ATOM      9  H   UNL     1      -1.567  10.895   1.531  0.00  0.00    +0.152 HD
ENDROOT
BRANCH   2  10
ATOM     10  C   UNL     1      -2.775  11.281  -1.027  0.00  0.00    -0.015 A 
ATOM     11  C   UNL     1      -3.478  11.135  -2.222  0.00  0.00    +0.007 A 
ATOM     12  C   UNL     1      -4.315  12.112  -2.666  0.00  0.00    +0.009 A 
ATOM     13  C   UNL     1      -4.475  13.287  -1.911  0.00  0.00    -0.018 A 
ATOM     14  C   UNL     1      -5.331  14.317  -2.337  0.00  0.00    +0.008 A 
ATOM     15  C   UNL     1      -5.461  15.440  -1.580  0.00  0.00    +0.001 A 
ATOM     16  C   UNL     1      -4.758  15.586  -0.386  0.00  0.00    +0.001 A 
ATOM     17  C   UNL     1      -3.921  14.609   0.059  0.00  0.00    +0.008 A 
ATOM     18  C   UNL     1      -3.760  13.435  -0.697  0.00  0.00    -0.018 A 
ATOM     19  C   UNL     1      -2.910  12.402  -0.267  0.00  0.00    +0.014 A 
ENDBRANCH   2  10
BRANCH   5  20
ATOM     20  C   UNL     1      -3.118   6.741   0.064  0.00  0.00    +0.214 C 
BRANCH  20  21
ATOM     21  C   UNL     1      -1.958   5.778   0.049  0.00  0.00    +0.239 C 
ATOM     22  O   UNL     1      -0.821   6.198   0.040  0.00  0.00    -0.273 OA
ATOM     23  N   UNL     1      -2.186   4.449   0.044  0.00  0.00    -0.245 N 
ATOM     24  C   UNL     1      -1.117   3.561   0.030  0.00  0.00    +0.168 A 
ATOM     25  N   UNL     1      -1.135   2.244   0.019  0.00  0.00    -0.229 NA
ATOM     26  C   UNL     1      -0.019   1.520   0.010  0.00  0.00    +0.054 A 
ATOM     27  C   UNL     1       1.145   2.220   0.003  0.00  0.00    +0.014 A 
ATOM     28  S   UNL     1       0.588   3.903   0.016  0.00  0.00    -0.057 S 
ATOM     29  C   UNL     1       2.536   1.683  -0.012  0.00  0.00    +0.044 C 
ATOM     30  C   UNL     1       2.479   0.190   0.350  0.00  0.00    +0.006 C 
ATOM     31  C   UNL     1       1.376  -0.475  -0.478  0.00  0.00    +0.006 C 
ATOM     32  C   UNL     1       0.002  -0.004   0.002  0.00  0.00    +0.056 C 
BRANCH  23  33
ATOM     33  C   UNL     1      -3.560   3.942   0.055  0.00  0.00    +0.142 C 
BRANCH  33  34
ATOM     34  C   UNL     1      -4.018   3.761   1.480  0.00  0.00    -0.015 C 
ATOM     35  C   UNL     1      -5.117   4.343   1.893  0.00  0.00    +0.005 C 
ENDBRANCH  33  34
ENDBRANCH  23  33
ENDBRANCH  20  21
ENDBRANCH   5  20
TORSDOF 5
