REMARK  Name = ZINC36070156
REMARK  13 active torsions:
REMARK  status: ('A' for Active; 'I' for Inactive)
REMARK    1  A    between atoms: C_1  and  C_2
REMARK    2  A    between atoms: C_5  and  C_8
REMARK    3  A    between atoms: C_21  and  C_23
REMARK    4  A    between atoms: C_23  and  N_24
REMARK    5  A    between atoms: N_24  and  C_25
REMARK    6  A    between atoms: C_25  and  C_26
REMARK    7  A    between atoms: C_26  and  N_27
REMARK    8  A    between atoms: N_27  and  C_28
REMARK    9  A    between atoms: N_27  and  C_29
REMARK   10  A    between atoms: C_30  and  C_32
REMARK   11  A    between atoms: C_32  and  C_33
REMARK   12  A    between atoms: C_33  and  C_34
REMARK   13  A    between atoms: C_33  and  C_35
REMARK                            x       y       z     vdW  Elec       q    Type
REMARK                         _______ _______ _______ _____ _____    ______ ____
ROOT
ATOM      1  C   UNL     1       0.058  -4.255  -0.021  0.00  0.00    +0.093 A 
ATOM      2  C   UNL     1       0.068  -4.964   1.185  0.00  0.00    +0.033 A 
ATOM      3  C   UNL     1       0.085  -6.345   1.126  0.00  0.00    +0.047 A 
ATOM      4  C   UNL     1       0.092  -6.948  -0.133  0.00  0.00    +0.144 A 
ATOM      5  N   UNL     1       0.082  -6.196  -1.225  0.00  0.00    -0.134 NA
ATOM      6  N   UNL     1       0.061  -4.914  -1.172  0.00  0.00    -0.147 NA
ATOM      7  N   UNL     1       0.110  -8.333  -0.242  0.00  0.00    -0.312 N 
ATOM      8  C   UNL     1       0.235  -8.927  -1.581  0.00  0.00    +0.108 C 
ATOM      9  C   UNL     1       1.213 -10.105  -1.613  0.00  0.00    +0.038 C 
ATOM     10  C   UNL     1       2.436  -9.797  -0.773  0.00  0.00    +0.109 C 
ATOM     11  N   UNL     1       2.144 -10.180   0.609  0.00  0.00    -0.299 N 
ATOM     12  C   UNL     1       1.431  -9.371   1.535  0.00  0.00    +0.126 C 
ATOM     13  C   UNL     1       0.009  -9.122   0.973  0.00  0.00    +0.125 C 
ATOM     14  C   UNL     1       2.581 -11.382   1.033  0.00  0.00    +0.233 C 
ATOM     15  O   UNL     1       3.194 -12.105   0.276  0.00  0.00    -0.274 OA
ENDROOT
BRANCH   1  20
ATOM     16  C   UNL     1      -0.018   1.503   0.010  0.00  0.00    +0.044 C 
ATOM     17  C   UNL     1       0.002  -0.004   0.002  0.00  0.00    -0.050 A 
ATOM     18  C   UNL     1       0.006  -0.686  -1.201  0.00  0.00    +0.004 A 
ATOM     19  C   UNL     1       0.024  -2.066  -1.215  0.00  0.00    +0.010 A 
ATOM     20  C   UNL     1       0.039  -2.772  -0.013  0.00  0.00    +0.002 A 
ATOM     21  C   UNL     1       0.036  -2.079   1.196  0.00  0.00    +0.010 A 
ATOM     22  C   UNL     1       0.023  -0.700   1.198  0.00  0.00    +0.004 A 
ENDBRANCH   1  20
BRANCH  14  23
ATOM     23  C   UNL     1       2.309 -11.828   2.446  0.00  0.00    +0.203 C 
BRANCH  23  24
ATOM     24  N   UNL     1       2.882 -13.159   2.658  0.00  0.00    -0.294 N 
ATOM     25  C   UNL     1       2.143 -14.258   2.408  0.00  0.00    +0.216 C 
ATOM     26  O   UNL     1       2.618 -15.361   2.583  0.00  0.00    -0.276 OA
BRANCH  24  27
ATOM     27  C   UNL     1       4.258 -13.296   3.141  0.00  0.00    +0.090 C 
BRANCH  27  28
ATOM     28  C   UNL     1       4.261 -13.332   4.670  0.00  0.00    -0.060 C 
BRANCH  28  29
ATOM     29  N   UNL     1       5.641 -13.469   5.154  0.00  0.00    +0.377 N 
ATOM     30  C   UNL     1       5.656 -13.383   6.621  0.00  0.00    -0.097 C 
ATOM     31  C   UNL     1       6.181 -14.769   4.734  0.00  0.00    -0.097 C 
ATOM     32  H   UNL     1       6.208 -12.728   4.769  0.00  0.00    -0.083 HD
ENDBRANCH  28  29
ENDBRANCH  27  28
ENDBRANCH  24  27
BRANCH  25  33
ATOM     33  C   UNL     1       0.727 -14.118   1.912  0.00  0.00    +0.099 C 
BRANCH  33  34
ATOM     34  C   UNL     1       0.118 -15.507   1.710  0.00  0.00    -0.008 C 
ATOM     35  C   UNL     1       0.004 -16.215   3.061  0.00  0.00    +0.008 C 
ATOM     36  C   UNL     1      -1.274 -15.367   1.088  0.00  0.00    +0.008 C 
ENDBRANCH  33  34
ENDBRANCH  25  33
ENDBRANCH  23  24
ENDBRANCH  14  23
TORSDOF 8
