REMARK  Name = ZINC64338139
REMARK  11 active torsions:
REMARK  status: ('A' for Active; 'I' for Inactive)
REMARK    1  A    between atoms: C_1  and  C_2
REMARK    2  A    between atoms: C_5  and  C_8
REMARK    3  A    between atoms: C_9  and  C_14
REMARK    4  A    between atoms: C_11  and  C_13
REMARK    5  A    between atoms: C_14  and  C_15
REMARK    6  A    between atoms: N_17  and  C_18
REMARK    7  A    between atoms: C_18  and  C_20
REMARK    8  A    between atoms: C_18  and  C_30
REMARK    9  A    between atoms: C_20  and  C_21
REMARK   10  A    between atoms: C_30  and  O_32
REMARK   11  A    between atoms: O_32  and  C_33
REMARK                            x       y       z     vdW  Elec       q    Type
REMARK                         _______ _______ _______ _____ _____    ______ ____
ROOT
ATOM      1  C   UNL     1       0.659  -4.347   3.307  0.00  0.00    +0.219 C 
ATOM      2  O   UNL     1      -0.521  -4.612   3.223  0.00  0.00    -0.275 OA
ATOM      3  N   UNL     1       1.173  -3.924   4.479  0.00  0.00    -0.302 N 
ATOM      4  H   UNL     1       2.117  -3.712   4.546  0.00  0.00    +0.150 HD
ENDROOT
BRANCH   1   5
ATOM      5  C   UNL     1       1.551  -4.489   2.100  0.00  0.00    +0.140 C 
BRANCH   5   7
ATOM      6  C   UNL     1       0.059  -4.256  -0.021  0.00  0.00    +0.082 A 
ATOM      7  C   UNL     1       0.737  -4.973   0.928  0.00  0.00    +0.026 A 
ATOM      8  S   UNL     1       0.389  -6.640   0.392  0.00  0.00    -0.076 S 
ATOM      9  C   UNL     1      -0.557  -6.264  -0.948  0.00  0.00    +0.076 A 
ATOM     10  N   UNL     1      -0.583  -4.957  -0.945  0.00  0.00    -0.244 NA
ATOM     11  C   UNL     1      -1.220  -7.209  -1.917  0.00  0.00    +0.073 C 
BRANCH   6  16
ATOM     12  C   UNL     1      -0.018   1.503   0.010  0.00  0.00    +0.044 C 
ATOM     13  C   UNL     1       0.002  -0.004   0.002  0.00  0.00    -0.050 A 
ATOM     14  C   UNL     1       0.006  -0.686  -1.201  0.00  0.00    +0.004 A 
ATOM     15  C   UNL     1       0.024  -2.066  -1.215  0.00  0.00    +0.010 A 
ATOM     16  C   UNL     1       0.040  -2.772  -0.013  0.00  0.00    +0.001 A 
ATOM     17  C   UNL     1       0.036  -2.079   1.196  0.00  0.00    +0.010 A 
ATOM     18  C   UNL     1       0.023  -0.700   1.198  0.00  0.00    +0.004 A 
ENDBRANCH   6  16
ENDBRANCH   5   7
ENDBRANCH   1   5
BRANCH   3  19
ATOM     19  C   UNL     1       0.306  -3.786   5.652  0.00  0.00    +0.186 C 
BRANCH  19  20
ATOM     20  C   UNL     1      -0.364  -2.437   5.625  0.00  0.00    +0.328 C 
ATOM     21  O   UNL     1      -0.141  -1.669   4.719  0.00  0.00    -0.249 OA
BRANCH  20  22
ATOM     22  O   UNL     1      -1.210  -2.088   6.607  0.00  0.00    -0.467 OA
ATOM     23  C   UNL     1      -1.809  -0.794   6.518  0.00  0.00    +0.280 C 
ENDBRANCH  20  22
ENDBRANCH  19  20
BRANCH  19  24
ATOM     24  C   UNL     1       1.145  -3.914   6.925  0.00  0.00    +0.067 C 
BRANCH  24  25
ATOM     25  C   UNL     1       1.716  -5.306   7.012  0.00  0.00    -0.039 C 
ATOM     26  C   UNL     1       2.941  -5.710   6.603  0.00  0.00    -0.001 A 
ATOM     27  C   UNL     1       4.063  -5.002   5.977  0.00  0.00    +0.010 A 
ATOM     28  C   UNL     1       5.187  -5.691   5.675  0.00  0.00    +0.001 A 
ATOM     29  C   UNL     1       5.305  -7.062   5.944  0.00  0.00    +0.002 A 
ATOM     30  C   UNL     1       4.317  -7.780   6.517  0.00  0.00    +0.026 A 
ATOM     31  C   UNL     1       3.091  -7.157   6.877  0.00  0.00    +0.043 A 
ATOM     32  N   UNL     1       2.002  -7.629   7.434  0.00  0.00    -0.380 N 
ATOM     33  C   UNL     1       1.039  -6.532   7.582  0.00  0.00    +0.144 C 
ATOM     34  H   UNL     1       1.859  -8.549   7.707  0.00  0.00    +0.160 HD
ENDBRANCH  24  25
ENDBRANCH  19  24
ENDBRANCH   3  19
TORSDOF 8
