REMARK  Name = ZINC35690131
REMARK  15 active torsions:
REMARK  status: ('A' for Active; 'I' for Inactive)
REMARK    1  A    between atoms: C_1  and  C_2
REMARK    2  A    between atoms: C_2  and  C_3
REMARK    3  A    between atoms: C_3  and  C_4
REMARK    4  A    between atoms: C_4  and  N_5
REMARK    5  A    between atoms: N_5  and  C_6
REMARK    6  A    between atoms: C_6  and  C_7
REMARK    7  A    between atoms: C_7  and  C_9
REMARK    8  A    between atoms: C_10  and  C_23
REMARK    9  A    between atoms: N_12  and  C_15
REMARK   10  A    between atoms: C_13  and  O_14
REMARK   11  A    between atoms: C_20  and  C_21
REMARK   12  A    between atoms: C_21  and  C_22
REMARK   13  A    between atoms: C_29  and  C_31
REMARK   14  A    between atoms: C_31  and  S_32
REMARK   15  A    between atoms: S_32  and  C_33
REMARK                            x       y       z     vdW  Elec       q    Type
REMARK                         _______ _______ _______ _____ _____    ______ ____
ROOT
ATOM      1  C   UNL     1      -3.829  -4.755  -2.880  0.00  0.00    +0.108 A 
ATOM      2  C   UNL     1      -3.626  -6.056  -3.534  0.00  0.00    +0.107 A 
ATOM      3  N   UNL     1      -4.335  -6.048  -4.638  0.00  0.00    -0.162 NA
ATOM      4  N   UNL     1      -4.995  -4.822  -4.758  0.00  0.00    -0.199 N 
ATOM      5  C   UNL     1      -4.700  -4.041  -3.700  0.00  0.00    +0.227 A 
ENDROOT
BRANCH   4   6
ATOM      6  C   UNL     1      -5.840  -4.462  -5.816  0.00  0.00    +0.072 A 
ATOM      7  C   UNL     1      -5.666  -3.246  -6.463  0.00  0.00    +0.028 A 
ATOM      8  C   UNL     1      -6.501  -2.894  -7.505  0.00  0.00    +0.002 A 
ATOM      9  C   UNL     1      -7.510  -3.752  -7.905  0.00  0.00    +0.000 A 
ATOM     10  C   UNL     1      -7.686  -4.964  -7.263  0.00  0.00    +0.006 A 
ATOM     11  C   UNL     1      -6.850  -5.324  -6.223  0.00  0.00    -0.022 A 
BRANCH  11  12
ATOM     12  C   UNL     1      -7.039  -6.647  -5.528  0.00  0.00    +0.034 C 
ATOM     13  C   UNL     1      -7.801  -6.432  -4.218  0.00  0.00    +0.009 C 
ENDBRANCH  11  12
ENDBRANCH   4   6
BRANCH   2  14
ATOM     14  C   UNL     1      -2.780  -7.168  -3.038  0.00  0.00    +0.003 A 
ATOM     15  C   UNL     1      -2.815  -7.528  -1.692  0.00  0.00    +0.010 A 
ATOM     16  C   UNL     1      -2.026  -8.564  -1.237  0.00  0.00    +0.001 A 
ATOM     17  C   UNL     1      -1.200  -9.245  -2.114  0.00  0.00    +0.000 A 
ATOM     18  C   UNL     1      -1.161  -8.892  -3.451  0.00  0.00    +0.001 A 
ATOM     19  C   UNL     1      -1.951  -7.862  -3.919  0.00  0.00    +0.010 A 
ENDBRANCH   2  14
BRANCH   1  20
ATOM     20  C   UNL     1      -3.259  -4.318  -1.660  0.00  0.00    +0.188 C 
ATOM     21  O   UNL     1      -2.547  -5.066  -1.020  0.00  0.00    -0.290 OA
BRANCH  20  22
ATOM     22  C   UNL     1      -3.535  -2.925  -1.155  0.00  0.00    +0.187 C 
BRANCH  22  23
ATOM     23  N   UNL     1      -2.837  -2.719   0.116  0.00  0.00    -0.293 N 
ATOM     24  C   UNL     1      -3.449  -3.019   1.278  0.00  0.00    +0.226 C 
ATOM     25  O   UNL     1      -4.579  -3.460   1.272  0.00  0.00    -0.275 OA
BRANCH  23  26
ATOM     26  C   UNL     1      -1.472  -2.186   0.123  0.00  0.00    +0.108 C 
BRANCH  26  27
ATOM     27  C   UNL     1      -1.521  -0.659   0.196  0.00  0.00    +0.019 C 
BRANCH  27  29
ATOM     28  C   UNL     1      -0.144   1.425   0.276  0.00  0.00    +0.004 C 
ATOM     29  C   UNL     1      -0.095  -0.103   0.203  0.00  0.00    -0.002 C 
ENDBRANCH  27  29
ENDBRANCH  26  27
ENDBRANCH  23  26
BRANCH  24  30
ATOM     30  C   UNL     1      -2.730  -2.807   2.586  0.00  0.00    +0.170 C 
BRANCH  30  31
ATOM     31  S   UNL     1      -3.810  -3.300   3.957  0.00  0.00    -0.116 S 
BRANCH  31  32
ATOM     32  C   UNL     1      -2.839  -2.996   5.395  0.00  0.00    +0.008 A 
ATOM     33  C   UNL     1      -1.554  -2.481   5.272  0.00  0.00    +0.015 A 
ATOM     34  C   UNL     1      -0.795  -2.244   6.401  0.00  0.00    +0.001 A 
ATOM     35  C   UNL     1      -1.313  -2.518   7.654  0.00  0.00    +0.000 A 
ATOM     36  C   UNL     1      -2.592  -3.031   7.780  0.00  0.00    +0.001 A 
ATOM     37  C   UNL     1      -3.358  -3.264   6.656  0.00  0.00    +0.015 A 
ENDBRANCH  31  32
ENDBRANCH  30  31
ENDBRANCH  24  30
ENDBRANCH  22  23
ENDBRANCH  20  22
ENDBRANCH   1  20
BRANCH   5  38
ATOM     38  O   UNL     1      -5.164  -2.790  -3.477  0.00  0.00    -0.492 OA
ATOM     39  H   UNL     1      -4.610  -2.092  -3.853  0.00  0.00    +0.294 HD
ENDBRANCH   5  38
TORSDOF 13
