REMARK  Name = ZINC11692854
REMARK  9 active torsions:
REMARK  status: ('A' for Active; 'I' for Inactive)
REMARK    1  A    between atoms: C_1  and  C_2
REMARK    2  A    between atoms: C_3  and  C_22
REMARK    3  A    between atoms: N_6  and  C_7
REMARK    4  A    between atoms: C_13  and  C_16
REMARK    5  A    between atoms: N_24  and  C_25
REMARK    6  A    between atoms: C_27  and  C_33
REMARK    7  A    between atoms: C_30  and  O_31
REMARK    8  A    between atoms: O_31  and  C_32
REMARK    9  A    between atoms: C_33  and  C_35
REMARK                            x       y       z     vdW  Elec       q    Type
REMARK                         _______ _______ _______ _____ _____    ______ ____
ROOT
ATOM      1  C   UNL     1      -2.941  -0.921  -0.388  0.00  0.00    +0.068 C 
ATOM      2  C   UNL     1      -1.528  -1.422  -0.235  0.00  0.00    +0.074 A 
ATOM      3  C   UNL     1      -0.403  -0.659  -0.100  0.00  0.00    +0.170 A 
ATOM      4  N   UNL     1       0.656  -1.479   0.014  0.00  0.00    -0.124 NA
ATOM      5  N   UNL     1       0.262  -2.704  -0.046  0.00  0.00    -0.060 NA
ATOM      6  N   UNL     1      -1.131  -2.713  -0.208  0.00  0.00    -0.216 N 
ENDROOT
BRANCH   6   7
ATOM      7  C   UNL     1      -1.952  -3.844  -0.317  0.00  0.00    +0.068 A 
ATOM      8  C   UNL     1      -2.998  -3.844  -1.251  0.00  0.00    +0.030 A 
ATOM      9  C   UNL     1      -3.825  -4.908  -1.402  0.00  0.00    +0.034 A 
ATOM     10  C   UNL     1      -3.638  -6.054  -0.601  0.00  0.00    +0.114 A 
ATOM     11  C   UNL     1      -2.535  -6.050   0.383  0.00  0.00    +0.051 A 
ATOM     12  C   UNL     1      -1.712  -4.923   0.485  0.00  0.00    +0.041 A 
ATOM     13  C   UNL     1      -2.642  -7.305   0.980  0.00  0.00    +0.175 A 
ATOM     14  O   UNL     1      -3.683  -7.907   0.383  0.00  0.00    -0.353 OA
ATOM     15  N   UNL     1      -4.213  -7.227  -0.466  0.00  0.00    -0.078 NA
BRANCH  13  16
ATOM     16  C   UNL     1      -1.788  -7.857   2.047  0.00  0.00    +0.021 A 
ATOM     17  C   UNL     1      -1.268  -9.150   1.932  0.00  0.00    +0.011 A 
ATOM     18  C   UNL     1      -0.465  -9.658   2.932  0.00  0.00    +0.001 A 
ATOM     19  C   UNL     1      -0.183  -8.895   4.052  0.00  0.00    +0.000 A 
ATOM     20  C   UNL     1      -0.699  -7.617   4.175  0.00  0.00    +0.001 A 
ATOM     21  C   UNL     1      -1.498  -7.093   3.181  0.00  0.00    +0.011 A 
ENDBRANCH  13  16
ENDBRANCH   6   7
BRANCH   3  22
ATOM     22  C   UNL     1      -0.358   0.815  -0.078  0.00  0.00    +0.270 C 
ATOM     23  O   UNL     1      -1.385   1.456  -0.195  0.00  0.00    -0.268 OA
ATOM     24  N   UNL     1       0.821   1.451   0.067  0.00  0.00    -0.277 N 
ATOM     25  H   UNL     1       1.631   0.941   0.227  0.00  0.00    +0.155 HD
BRANCH  24  26
ATOM     26  C   UNL     1       0.877   2.849  -0.012  0.00  0.00    +0.077 A 
ATOM     27  C   UNL     1      -0.180   3.610   0.447  0.00  0.00    +0.038 A 
ATOM     28  C   UNL     1      -0.119   5.007   0.366  0.00  0.00    +0.019 A 
ATOM     29  C   UNL     1       1.012   5.624  -0.181  0.00  0.00    +0.015 A 
ATOM     30  C   UNL     1       2.062   4.858  -0.636  0.00  0.00    +0.048 A 
ATOM     31  C   UNL     1       2.004   3.472  -0.551  0.00  0.00    +0.141 A 
BRANCH  28  32
ATOM     32  C   UNL     1      -1.240   5.822   0.852  0.00  0.00    +0.160 C 
ATOM     33  O   UNL     1      -2.173   5.294   1.420  0.00  0.00    -0.292 OA
ATOM     34  C   UNL     1      -1.231   7.315   0.646  0.00  0.00    +0.091 C 
ENDBRANCH  28  32
BRANCH  31  35
ATOM     35  O   UNL     1       3.045   2.723  -0.997  0.00  0.00    -0.493 OA
ATOM     36  C   UNL     1       4.166   3.426  -1.536  0.00  0.00    +0.277 C 
ENDBRANCH  31  35
ENDBRANCH  24  26
ENDBRANCH   3  22
TORSDOF 6
