REMARK  Name = ZINC39327048
REMARK  9 active torsions:
REMARK  status: ('A' for Active; 'I' for Inactive)
REMARK    1  A    between atoms: C_1  and  C_2
REMARK    2  A    between atoms: C_2  and  O_3
REMARK    3  A    between atoms: O_3  and  C_4
REMARK    4  A    between atoms: C_4  and  C_6
REMARK    5  A    between atoms: C_7  and  C_35
REMARK    6  A    between atoms: C_11  and  N_27
REMARK    7  A    between atoms: C_12  and  C_14
REMARK    8  A    between atoms: N_16  and  C_17
REMARK    9  A    between atoms: C_28  and  C_30
REMARK                            x       y       z     vdW  Elec       q    Type
REMARK                         _______ _______ _______ _____ _____    ______ ____
ROOT
ATOM      1  C   UNL     1       1.246  -2.359  -2.577  0.00  0.00    +0.066 C 
ATOM      2  C   UNL     1       1.589  -3.654  -2.541  0.00  0.00    +0.016 C 
ATOM      3  N   UNL     1       2.377  -4.221  -3.514  0.00  0.00    -0.312 N 
ATOM      4  C   UNL     1       2.582  -3.490  -4.659  0.00  0.00    +0.076 A 
ATOM      5  C   UNL     1       2.278  -2.154  -4.814  0.00  0.00    +0.015 A 
ATOM      6  C   UNL     1       2.551  -1.593  -6.050  0.00  0.00    +0.050 A 
ATOM      7  C   UNL     1       3.109  -2.391  -7.048  0.00  0.00    +0.096 A 
ATOM      8  S   UNL     1       3.253  -3.970  -6.223  0.00  0.00    -0.067 S 
ATOM      9  C   UNL     1       1.675  -1.393  -3.641  0.00  0.00    +0.098 C 
ATOM     10  C   UNL     1       1.098  -4.512  -1.403  0.00  0.00    +0.061 C 
ATOM     11  H   UNL     1       2.772  -5.099  -3.398  0.00  0.00    +0.152 HD
ENDROOT
BRANCH   9  12
ATOM     12  C   UNL     1       2.707  -0.450  -3.077  0.00  0.00    +0.002 A 
ATOM     13  C   UNL     1       2.659   0.900  -2.964  0.00  0.00    +0.012 A 
ATOM     14  C   UNL     1       3.735   1.564  -2.406  0.00  0.00    +0.008 A 
ATOM     15  C   UNL     1       4.807   0.846  -1.989  0.00  0.00    +0.045 A 
ATOM     16  S   UNL     1       4.306  -0.823  -2.376  0.00  0.00    -0.101 S 
ENDBRANCH   9  12
BRANCH   7  17
ATOM     17  C   UNL     1       3.466  -2.043  -8.367  0.00  0.00    +0.253 C 
ATOM     18  O   UNL     1       3.294  -0.903  -8.765  0.00  0.00    -0.270 OA
ATOM     19  N   UNL     1       3.999  -2.969  -9.188  0.00  0.00    -0.305 N 
ATOM     20  H   UNL     1       4.136  -3.876  -8.872  0.00  0.00    +0.150 HD
BRANCH  19  21
ATOM     21  C   UNL     1       4.370  -2.607 -10.559  0.00  0.00    +0.036 C 
ATOM     22  C   UNL     1       5.421  -1.495 -10.525  0.00  0.00    +0.029 C 
ATOM     23  C   UNL     1       5.809  -1.117 -11.956  0.00  0.00    -0.008 C 
ATOM     24  C   UNL     1       6.385  -2.342 -12.669  0.00  0.00    +0.007 C 
ATOM     25  C   UNL     1       5.334  -3.454 -12.702  0.00  0.00    -0.008 C 
ATOM     26  C   UNL     1       4.947  -3.832 -11.271  0.00  0.00    +0.029 C 
ATOM     27  C   UNL     1       4.095  -2.963 -13.454  0.00  0.00    +0.007 C 
ATOM     28  C   UNL     1       3.519  -1.738 -12.741  0.00  0.00    -0.008 C 
ATOM     29  C   UNL     1       4.570  -0.626 -12.708  0.00  0.00    +0.007 C 
ATOM     30  C   UNL     1       3.131  -2.116 -11.310  0.00  0.00    +0.029 C 
ENDBRANCH  19  21
ENDBRANCH   7  17
BRANCH   6  31
ATOM     31  N   UNL     1       2.271  -0.252  -6.293  0.00  0.00    -0.357 N 
ATOM     32  H   UNL     1       1.882   0.297  -5.594  0.00  0.00    +0.142 HD
ATOM     33  H   UNL     1       2.464   0.135  -7.161  0.00  0.00    +0.142 HD
ENDBRANCH   6  31
BRANCH   1  34
ATOM     34  C   UNL     1       0.418  -1.871  -1.542  0.00  0.00    +0.338 C 
ATOM     35  O   UNL     1      -0.779  -1.750  -1.726  0.00  0.00    -0.245 OA
BRANCH  34  36
ATOM     36  O   UNL     1       0.954  -1.537  -0.349  0.00  0.00    -0.462 OA
BRANCH  36  38
ATOM     37  C   UNL     1       0.842  -0.727   1.925  0.00  0.00    +0.048 C 
ATOM     38  C   UNL     1       0.058  -1.050   0.652  0.00  0.00    +0.229 C 
ENDBRANCH  36  38
ENDBRANCH  34  36
ENDBRANCH   1  34
TORSDOF 7
