REMARK  Name = ZINC63652156
REMARK  8 active torsions:
REMARK  status: ('A' for Active; 'I' for Inactive)
REMARK    1  A    between atoms: C_1  and  C_2
REMARK    2  A    between atoms: C_5  and  C_27
REMARK    3  A    between atoms: C_6  and  N_8
REMARK    4  A    between atoms: N_8  and  S_9
REMARK    5  A    between atoms: S_9  and  C_12
REMARK    6  A    between atoms: C_14  and  C_26
REMARK    7  A    between atoms: C_16  and  C_25
REMARK    8  A    between atoms: C_17  and  C_18
REMARK                            x       y       z     vdW  Elec       q    Type
REMARK                         _______ _______ _______ _____ _____    ______ ____
ROOT
ATOM      1  C   UNL     1      -0.014  -3.412   5.183  0.00  0.00    +0.233 C 
ATOM      2  C   UNL     1       1.253  -4.220   4.986  0.00  0.00    +0.047 C 
ATOM      3  N   UNL     1       2.024  -3.945   5.987  0.00  0.00    -0.259 NA
ATOM      4  C   UNL     1       1.495  -3.071   6.853  0.00  0.00    +0.049 C 
ATOM      5  C   UNL     1       0.254  -2.670   6.480  0.00  0.00    +0.067 C 
ATOM      6  C   UNL     1       2.195  -2.591   8.099  0.00  0.00    +0.066 C 
ATOM      7  C   UNL     1       1.555  -5.160   3.847  0.00  0.00    +0.063 C 
ENDROOT
BRANCH   5   8
ATOM      8  C   UNL     1      -0.630  -1.732   7.170  0.00  0.00    +0.247 C 
ATOM      9  O   UNL     1      -0.727  -0.584   6.776  0.00  0.00    -0.270 OA
ATOM     10  N   UNL     1      -1.337  -2.137   8.244  0.00  0.00    -0.298 N 
ATOM     11  C   UNL     1      -1.232  -3.452   8.892  0.00  0.00    +0.108 C 
ATOM     12  C   UNL     1      -2.244  -3.472  10.056  0.00  0.00    +0.020 C 
ATOM     13  C   UNL     1      -3.264  -2.375   9.649  0.00  0.00    +0.020 C 
ATOM     14  C   UNL     1      -2.340  -1.333   8.966  0.00  0.00    +0.108 C 
ENDBRANCH   5   8
BRANCH   1  15
ATOM     15  S   UNL     1      -0.253  -2.246   3.814  0.00  0.00    +0.075 S 
ATOM     16  O   UNL     1       0.927  -1.480   3.612  0.00  0.00    -0.153 OA
ATOM     17  O   UNL     1      -1.519  -1.611   3.926  0.00  0.00    -0.153 OA
BRANCH  15  18
ATOM     18  N   UNL     1      -0.375  -3.196   2.463  0.00  0.00    -0.101 NA
BRANCH  18  24
ATOM     19  C   UNL     1      -0.944   0.851  -0.267  0.00  0.00    +0.044 C 
ATOM     20  C   UNL     1      -0.847  -0.648  -0.143  0.00  0.00    -0.049 A 
ATOM     21  C   UNL     1      -0.948  -1.442  -1.270  0.00  0.00    +0.004 A 
ATOM     22  C   UNL     1      -0.860  -2.818  -1.160  0.00  0.00    +0.005 A 
ATOM     23  C   UNL     1      -0.670  -3.403   0.076  0.00  0.00    -0.026 A 
ATOM     24  C   UNL     1      -0.567  -2.608   1.210  0.00  0.00    +0.077 A 
ATOM     25  C   UNL     1      -0.651  -1.226   1.096  0.00  0.00    +0.030 A 
ATOM     26  C   UNL     1      -0.575  -4.902   0.195  0.00  0.00    +0.046 C 
ENDBRANCH  18  24
ENDBRANCH  15  18
ENDBRANCH   1  15
TORSDOF 4
