REMARK  Name = ZINC39911693
REMARK  12 active torsions:
REMARK  status: ('A' for Active; 'I' for Inactive)
REMARK    1  A    between atoms: C_1  and  C_2
REMARK    2  A    between atoms: C_4  and  C_38
REMARK    3  A    between atoms: C_5  and  O_37
REMARK    4  A    between atoms: C_6  and  C_8
REMARK    5  A    between atoms: N_16  and  C_32
REMARK    6  A    between atoms: C_17  and  C_19
REMARK    7  A    between atoms: C_23  and  O_25
REMARK    8  A    between atoms: O_25  and  C_26
REMARK    9  A    between atoms: C_32  and  C_33
REMARK   10  A    between atoms: C_33  and  C_34
REMARK   11  A    between atoms: C_34  and  O_35
REMARK   12  A    between atoms: O_35  and  C_36
REMARK                            x       y       z     vdW  Elec       q    Type
REMARK                         _______ _______ _______ _____ _____    ______ ____
ROOT
ATOM      1  C   UNL     1      -0.063  -2.981   1.899  0.00  0.00    +0.102 A 
ATOM      2  C   UNL     1      -0.037  -2.541   3.227  0.00  0.00    +0.035 A 
ATOM      3  C   UNL     1      -0.116  -3.681   4.004  0.00  0.00    +0.126 A 
ATOM      4  N   UNL     1      -0.183  -4.730   3.132  0.00  0.00    -0.272 N 
ATOM      5  H   UNL     1      -0.246  -5.663   3.388  0.00  0.00    +0.189 HD
ATOM      6  N   UNL     1      -0.156  -4.296   1.922  0.00  0.00    -0.173 NA
ATOM      7  C   UNL     1      -0.093  -3.285   5.417  0.00  0.00    +0.265 C 
ATOM      8  O   UNL     1      -0.148  -4.057   6.355  0.00  0.00    -0.268 OA
ATOM      9  N   UNL     1      -0.004  -1.947   5.527  0.00  0.00    -0.285 N 
ATOM     10  C   UNL     1       0.038  -1.375   4.175  0.00  0.00    +0.141 C 
ENDROOT
BRANCH   1  16
ATOM     11  C   UNL     1       1.993   0.813  -0.611  0.00  0.00    +0.044 C 
ATOM     12  C   UNL     1       0.983  -0.301  -0.522  0.00  0.00    -0.049 A 
ATOM     13  C   UNL     1       0.110  -0.525  -1.572  0.00  0.00    +0.010 A 
ATOM     14  C   UNL     1      -0.820  -1.545  -1.500  0.00  0.00    -0.008 A 
ATOM     15  C   UNL     1      -0.883  -2.349  -0.373  0.00  0.00    +0.129 A 
ATOM     16  C   UNL     1      -0.003  -2.125   0.689  0.00  0.00    +0.044 A 
ATOM     17  C   UNL     1       0.935  -1.099   0.603  0.00  0.00    +0.017 A 
ATOM     18  C   UNL     1      -1.768  -1.782  -2.648  0.00  0.00    +0.047 C 
BRANCH  15  19
ATOM     19  O   UNL     1      -1.797  -3.351  -0.301  0.00  0.00    -0.506 OA
ATOM     20  H   UNL     1      -1.481  -4.198  -0.645  0.00  0.00    +0.292 HD
ENDBRANCH  15  19
ENDBRANCH   1  16
BRANCH  10  21
ATOM     21  C   UNL     1      -1.139  -0.458   3.963  0.00  0.00    -0.019 A 
ATOM     22  C   UNL     1      -2.379  -0.794   4.475  0.00  0.00    +0.006 A 
ATOM     23  C   UNL     1      -3.460   0.045   4.283  0.00  0.00    +0.004 A 
ATOM     24  C   UNL     1      -3.305   1.223   3.578  0.00  0.00    +0.046 A 
ATOM     25  C   UNL     1      -2.062   1.563   3.063  0.00  0.00    +0.129 A 
ATOM     26  C   UNL     1      -0.977   0.721   3.262  0.00  0.00    +0.052 A 
BRANCH  25  27
ATOM     27  O   UNL     1      -1.906   2.721   2.369  0.00  0.00    -0.456 OA
BRANCH  27  28
ATOM     28  C   UNL     1      -2.974   3.557   2.275  0.00  0.00    +0.128 A 
ATOM     29  C   UNL     1      -3.325   4.359   3.351  0.00  0.00    +0.046 A 
ATOM     30  C   UNL     1      -4.410   5.208   3.253  0.00  0.00    +0.004 A 
ATOM     31  C   UNL     1      -5.147   5.258   2.085  0.00  0.00    +0.000 A 
ATOM     32  C   UNL     1      -4.800   4.460   1.011  0.00  0.00    +0.004 A 
ATOM     33  C   UNL     1      -3.711   3.614   1.101  0.00  0.00    +0.046 A 
ENDBRANCH  27  28
ENDBRANCH  25  27
ENDBRANCH  10  21
BRANCH   9  34
ATOM     34  C   UNL     1       0.043  -1.191   6.781  0.00  0.00    +0.111 C 
BRANCH  34  35
ATOM     35  C   UNL     1       1.498  -1.024   7.221  0.00  0.00    +0.047 C 
BRANCH  35  36
ATOM     36  C   UNL     1       1.548  -0.234   8.531  0.00  0.00    +0.161 C 
BRANCH  36  37
ATOM     37  O   UNL     1       2.907  -0.078   8.942  0.00  0.00    -0.383 OA
ATOM     38  C   UNL     1       3.066   0.650  10.161  0.00  0.00    +0.193 C 
ENDBRANCH  36  37
ENDBRANCH  35  36
ENDBRANCH  34  35
ENDBRANCH   9  34
TORSDOF 9
