REMARK  Name = ZINC09242736
REMARK  9 active torsions:
REMARK  status: ('A' for Active; 'I' for Inactive)
REMARK    1  A    between atoms: C_1  and  C_2
REMARK    2  A    between atoms: C_4  and  C_40
REMARK    3  A    between atoms: C_5  and  O_39
REMARK    4  A    between atoms: C_6  and  C_8
REMARK    5  A    between atoms: N_16  and  C_32
REMARK    6  A    between atoms: C_17  and  C_19
REMARK    7  A    between atoms: C_23  and  O_25
REMARK    8  A    between atoms: O_25  and  C_26
REMARK    9  A    between atoms: C_32  and  C_33
REMARK                            x       y       z     vdW  Elec       q    Type
REMARK                         _______ _______ _______ _____ _____    ______ ____
ROOT
ATOM      1  C   UNL     1      -0.226  -3.142   2.465  0.00  0.00    +0.075 A 
ATOM      2  C   UNL     1       0.909  -3.701   2.959  0.00  0.00    +0.035 A 
ATOM      3  C   UNL     1       0.560  -4.243   4.217  0.00  0.00    +0.153 A 
ATOM      4  N   UNL     1      -0.720  -3.988   4.402  0.00  0.00    -0.168 NA
ATOM      5  N   UNL     1      -1.201  -3.344   3.400  0.00  0.00    -0.276 N 
ATOM      6  H   UNL     1      -2.121  -3.046   3.318  0.00  0.00    +0.189 HD
ATOM      7  C   UNL     1       1.767  -4.862   4.794  0.00  0.00    +0.268 C 
ATOM      8  O   UNL     1       1.812  -5.421   5.872  0.00  0.00    -0.268 OA
ATOM      9  N   UNL     1       2.811  -4.723   3.958  0.00  0.00    -0.281 N 
ATOM     10  C   UNL     1       2.370  -3.998   2.761  0.00  0.00    +0.142 C 
ENDROOT
BRANCH   1  16
ATOM     11  C   UNL     1      -2.189  -2.926  -2.117  0.00  0.00    +0.044 C 
ATOM     12  C   UNL     1      -1.318  -2.337  -1.038  0.00  0.00    -0.049 A 
ATOM     13  C   UNL     1      -0.656  -1.141  -1.262  0.00  0.00    +0.010 A 
ATOM     14  C   UNL     1       0.145  -0.592  -0.279  0.00  0.00    -0.008 A 
ATOM     15  C   UNL     1       0.291  -1.237   0.938  0.00  0.00    +0.129 A 
ATOM     16  C   UNL     1      -0.376  -2.446   1.168  0.00  0.00    +0.042 A 
ATOM     17  C   UNL     1      -1.187  -2.987   0.171  0.00  0.00    +0.017 A 
ATOM     18  C   UNL     1       0.862   0.709  -0.532  0.00  0.00    +0.047 C 
BRANCH  15  19
ATOM     19  O   UNL     1       1.079  -0.699   1.905  0.00  0.00    -0.506 OA
ATOM     20  H   UNL     1       0.632  -0.041   2.456  0.00  0.00    +0.292 HD
ENDBRANCH  15  19
ENDBRANCH   1  16
BRANCH  10  21
ATOM     21  C   UNL     1       2.562  -4.855   1.536  0.00  0.00    -0.019 A 
ATOM     22  C   UNL     1       2.130  -6.169   1.538  0.00  0.00    +0.006 A 
ATOM     23  C   UNL     1       2.305  -6.958   0.416  0.00  0.00    +0.004 A 
ATOM     24  C   UNL     1       2.912  -6.436  -0.709  0.00  0.00    +0.046 A 
ATOM     25  C   UNL     1       3.346  -5.118  -0.714  0.00  0.00    +0.129 A 
ATOM     26  C   UNL     1       3.165  -4.327   0.411  0.00  0.00    +0.052 A 
BRANCH  25  27
ATOM     27  O   UNL     1       3.944  -4.602  -1.820  0.00  0.00    -0.456 OA
BRANCH  27  28
ATOM     28  C   UNL     1       5.267  -4.302  -1.749  0.00  0.00    +0.128 A 
ATOM     29  C   UNL     1       5.991  -4.619  -0.608  0.00  0.00    +0.046 A 
ATOM     30  C   UNL     1       7.336  -4.312  -0.538  0.00  0.00    +0.004 A 
ATOM     31  C   UNL     1       7.961  -3.690  -1.603  0.00  0.00    +0.000 A 
ATOM     32  C   UNL     1       7.242  -3.373  -2.741  0.00  0.00    +0.004 A 
ATOM     33  C   UNL     1       5.898  -3.683  -2.818  0.00  0.00    +0.046 A 
ENDBRANCH  27  28
ENDBRANCH  25  27
ENDBRANCH  10  21
BRANCH   9  34
ATOM     34  C   UNL     1       4.168  -5.215   4.204  0.00  0.00    +0.145 C 
BRANCH  34  35
ATOM     35  C   UNL     1       4.300  -6.616   3.665  0.00  0.00    -0.012 A 
ATOM     36  C   UNL     1       4.006  -7.708   4.468  0.00  0.00    +0.008 A 
ATOM     37  C   UNL     1       4.142  -8.978   3.930  0.00  0.00    +0.020 A 
ATOM     38  C   UNL     1       4.562  -9.113   2.620  0.00  0.00    +0.111 A 
ATOM     39  N   UNL     1       4.834  -8.052   1.886  0.00  0.00    -0.263 NA
ATOM     40  C   UNL     1       4.710  -6.829   2.362  0.00  0.00    +0.115 A 
ENDBRANCH  34  35
ENDBRANCH   9  34
TORSDOF 7
