REMARK  Name = ZINC64871122
REMARK  5 active torsions:
REMARK  status: ('A' for Active; 'I' for Inactive)
REMARK    1  A    between atoms: C_3  and  C_8
REMARK    2  A    between atoms: C_8  and  N_9
REMARK    3  A    between atoms: C_15  and  C_22
REMARK    4  A    between atoms: C_25  and  C_29
REMARK    5  A    between atoms: C_33  and  C_35
REMARK                            x       y       z     vdW  Elec       q    Type
REMARK                         _______ _______ _______ _____ _____    ______ ____
ROOT
ATOM      1  N   UNL     1       3.998   2.370   1.401  0.00  0.00    -0.256 N 
ATOM      2  C   UNL     1       3.691   3.544   1.994  0.00  0.00    +0.265 A 
ATOM      3  O   UNL     1       3.057   4.395   1.401  0.00  0.00    -0.267 OA
ATOM      4  C   UNL     1       4.143   3.766   3.379  0.00  0.00    +0.063 A 
ATOM      5  C   UNL     1       3.866   4.949   4.060  0.00  0.00    +0.016 A 
ATOM      6  C   UNL     1       4.311   5.108   5.355  0.00  0.00    +0.008 A 
ATOM      7  C   UNL     1       5.030   4.099   5.979  0.00  0.00    -0.000 A 
ATOM      8  C   UNL     1       5.311   2.922   5.316  0.00  0.00    +0.034 A 
ATOM      9  C   UNL     1       4.872   2.744   4.013  0.00  0.00    +0.056 A 
ATOM     10  N   UNL     1       5.132   1.576   3.311  0.00  0.00    -0.307 N 
ATOM     11  H   UNL     1       5.634   0.862   3.735  0.00  0.00    +0.170 HD
ATOM     12  C   UNL     1       4.692   1.422   2.050  0.00  0.00    +0.330 A 
ATOM     13  O   UNL     1       4.938   0.382   1.471  0.00  0.00    -0.246 OA
ENDROOT
BRANCH   7  14
ATOM     14  C   UNL     1       5.509   4.291   7.395  0.00  0.00    +0.242 C 
ATOM     15  N   UNL     1       6.969   4.056   7.468  0.00  0.00    -0.265 NA
ATOM     16  C   UNL     1       7.159   3.368   8.773  0.00  0.00    +0.180 C 
ATOM     17  N   UNL     1       5.947   2.510   8.856  0.00  0.00    -0.177 NA
ATOM     18  O   UNL     1       4.877   3.334   8.258  0.00  0.00    -0.274 OA
ATOM     19  H   UNL     1       7.281   3.476   6.704  0.00  0.00    +0.127 HD
ATOM     20  H   UNL     1       6.074   1.652   8.341  0.00  0.00    +0.156 HD
BRANCH  16  21
ATOM     21  C   UNL     1       8.413   2.531   8.760  0.00  0.00    -0.014 A 
ATOM     22  C   UNL     1       9.491   2.913   7.984  0.00  0.00    +0.006 A 
ATOM     23  C   UNL     1      10.641   2.147   7.972  0.00  0.00    +0.001 A 
ATOM     24  C   UNL     1      10.713   0.998   8.738  0.00  0.00    +0.012 A 
ATOM     25  C   UNL     1       9.636   0.616   9.515  0.00  0.00    +0.055 A 
ATOM     26  C   UNL     1       8.487   1.385   9.530  0.00  0.00    +0.019 A 
BRANCH  25  27
ATOM     27  C   UNL     1       9.714  -0.637  10.348  0.00  0.00    +0.417 C 
ATOM     28  F   UNL     1      10.965  -1.237  10.172  0.00  0.00    -0.166 F 
ATOM     29  F   UNL     1       9.540  -0.311  11.698  0.00  0.00    -0.166 F 
ATOM     30  F   UNL     1       8.710  -1.526   9.950  0.00  0.00    -0.166 F 
ENDBRANCH  25  27
ENDBRANCH  16  21
ENDBRANCH   7  14
BRANCH   1  31
ATOM     31  C   UNL     1       3.560   2.124   0.025  0.00  0.00    +0.165 C 
BRANCH  31  34
ATOM     32  C   UNL     1      -0.190   1.685   0.027  0.00  0.00    +0.002 A 
ATOM     33  C   UNL     1       1.061   2.272   0.014  0.00  0.00    +0.005 A 
ATOM     34  C   UNL     1       2.196   1.483   0.039  0.00  0.00    -0.026 A 
ATOM     35  C   UNL     1       2.079   0.106   0.076  0.00  0.00    +0.025 A 
ATOM     36  C   UNL     1       0.828  -0.482   0.089  0.00  0.00    +0.041 A 
ATOM     37  C   UNL     1      -0.308   0.309   0.065  0.00  0.00    +0.020 A 
ATOM     38 CL   UNL     1       0.681  -2.211   0.136  0.00  0.00    -0.084 Cl
ENDBRANCH  31  34
ENDBRANCH   1  31
TORSDOF 5
