REMARK  Name = ZINC40388711
REMARK  4 active torsions:
REMARK  status: ('A' for Active; 'I' for Inactive)
REMARK    1  A    between atoms: C_1  and  C_2
REMARK    2  A    between atoms: C_5  and  C_35
REMARK    3  A    between atoms: C_22  and  C_24
REMARK    4  A    between atoms: N_26  and  C_27
REMARK                            x       y       z     vdW  Elec       q    Type
REMARK                         _______ _______ _______ _____ _____    ______ ____
ROOT
ATOM      1  C   UNL     1      -3.020  -2.585   2.130  0.00  0.00    +0.009 C 
ATOM      2  C   UNL     1      -1.598  -2.042   2.279  0.00  0.00    +0.004 C 
ATOM      3  C   UNL     1      -1.614  -0.519   2.124  0.00  0.00    +0.009 C 
ATOM      4  C   UNL     1      -0.196   0.028   2.306  0.00  0.00    +0.004 C 
ATOM      5  C   UNL     1       0.717  -0.559   1.225  0.00  0.00    +0.111 C 
ATOM      6  N   UNL     1       0.625  -2.024   1.273  0.00  0.00    -0.301 N 
ATOM      7  C   UNL     1      -0.701  -2.653   1.198  0.00  0.00    +0.111 C 
ATOM      8  C   UNL     1       1.754  -2.791   1.387  0.00  0.00    +0.200 A 
ATOM      9  N   UNL     1       2.974  -2.187   1.352  0.00  0.00    -0.295 N 
ATOM     10  H   UNL     1       3.035  -1.223   1.261  0.00  0.00    +0.172 HD
ATOM     11  C   UNL     1       4.098  -2.929   1.445  0.00  0.00    +0.258 A 
ATOM     12  O   UNL     1       5.198  -2.401   1.400  0.00  0.00    -0.267 OA
ATOM     13  C   UNL     1       3.977  -4.314   1.594  0.00  0.00    +0.069 A 
ATOM     14  C   UNL     1       2.715  -4.878   1.645  0.00  0.00    +0.138 A 
ATOM     15  N   UNL     1       1.636  -4.094   1.531  0.00  0.00    -0.200 NA
ATOM     16  N   UNL     1       2.566  -6.241   1.835  0.00  0.00    -0.270 N 
ATOM     17  C   UNL     1       3.602  -7.000   2.232  0.00  0.00    +0.219 C 
ATOM     18  O   UNL     1       3.475  -8.204   2.288  0.00  0.00    -0.275 OA
ATOM     19  C   UNL     1       4.919  -6.372   2.607  0.00  0.00    +0.114 C 
ATOM     20  C   UNL     1       5.203  -5.181   1.688  0.00  0.00    +0.122 C 
ATOM     21  C   UNL     1      -0.218   1.553   2.183  0.00  0.00    +0.009 C 
ATOM     22  H   UNL     1       1.702  -6.654   1.681  0.00  0.00    +0.156 HD
ENDROOT
BRANCH  20  23
ATOM     23  C   UNL     1       6.346  -4.376   2.251  0.00  0.00    +0.225 C 
ATOM     24  O   UNL     1       6.290  -3.956   3.387  0.00  0.00    -0.275 OA
ATOM     25  N   UNL     1       7.429  -4.122   1.490  0.00  0.00    -0.284 N 
ATOM     26  H   UNL     1       7.440  -4.388   0.557  0.00  0.00    +0.155 HD
BRANCH  25  27
ATOM     27  C   UNL     1       8.539  -3.476   2.047  0.00  0.00    +0.053 A 
ATOM     28  C   UNL     1       8.772  -3.547   3.414  0.00  0.00    +0.044 A 
ATOM     29  C   UNL     1       9.869  -2.908   3.961  0.00  0.00    +0.043 A 
ATOM     30  C   UNL     1      10.735  -2.197   3.147  0.00  0.00    +0.021 A 
ATOM     31  C   UNL     1      10.505  -2.124   1.786  0.00  0.00    +0.023 A 
ATOM     32  C   UNL     1       9.413  -2.766   1.232  0.00  0.00    +0.062 A 
ATOM     33 CL   UNL     1       9.129  -2.679  -0.478  0.00  0.00    -0.082 Cl
ATOM     34 CL   UNL     1      10.162  -2.996   5.669  0.00  0.00    -0.083 Cl
ENDBRANCH  25  27
ENDBRANCH  20  23
TORSDOF 2
