REMARK  Name = ZINC09601850
REMARK  10 active torsions:
REMARK  status: ('A' for Active; 'I' for Inactive)
REMARK    1  A    between atoms: C_1  and  C_2
REMARK    2  A    between atoms: C_2  and  C_3
REMARK    3  A    between atoms: C_3  and  C_4
REMARK    4  A    between atoms: C_4  and  S_5
REMARK    5  A    between atoms: S_5  and  C_6
REMARK    6  A    between atoms: C_19  and  C_22
REMARK    7  A    between atoms: C_25  and  O_30
REMARK    8  A    between atoms: C_26  and  O_28
REMARK    9  A    between atoms: O_28  and  C_29
REMARK   10  A    between atoms: O_30  and  C_31
REMARK                            x       y       z     vdW  Elec       q    Type
REMARK                         _______ _______ _______ _____ _____    ______ ____
ROOT
ATOM      1  C   UNL     1      -9.117  -2.836   3.480  0.00  0.00    +0.212 A 
ATOM      2  N   UNL     1      -7.974  -2.158   3.549  0.00  0.00    -0.184 NA
ATOM      3  C   UNL     1      -7.247  -2.006   2.455  0.00  0.00    +0.248 A 
ATOM      4  C   UNL     1      -7.713  -2.566   1.245  0.00  0.00    +0.156 A 
ATOM      5  N   UNL     1      -8.858  -3.233   1.246  0.00  0.00    -0.141 NA
ATOM      6  N   UNL     1      -9.534  -3.360   2.334  0.00  0.00    -0.122 NA
ATOM      7  C   UNL     1      -6.923  -2.395   0.008  0.00  0.00    +0.029 A 
ATOM      8  C   UNL     1      -6.643  -3.467  -0.831  0.00  0.00    +0.027 A 
ATOM      9  C   UNL     1      -5.911  -3.262  -1.985  0.00  0.00    +0.019 A 
ATOM     10  C   UNL     1      -5.456  -1.995  -2.311  0.00  0.00    +0.017 A 
ATOM     11  C   UNL     1      -5.723  -0.921  -1.481  0.00  0.00    +0.025 A 
ATOM     12  C   UNL     1      -6.448  -1.111  -0.320  0.00  0.00    +0.040 A 
ATOM     13  N   UNL     1      -6.705  -0.055   0.560  0.00  0.00    -0.305 N 
ATOM     14  C   UNL     1      -6.045  -0.047   1.862  0.00  0.00    +0.294 C 
ATOM     15  O   UNL     1      -6.073  -1.330   2.477  0.00  0.00    -0.449 OA
ATOM     16 BR   UNL     1      -5.529  -4.720  -3.127  0.00  0.00    -0.050 Br
ATOM     17  H   UNL     1      -7.312   0.660   0.310  0.00  0.00    +0.150 HD
ENDROOT
BRANCH  14  18
ATOM     18  C   UNL     1      -4.611   0.380   1.683  0.00  0.00    +0.015 A 
ATOM     19  C   UNL     1      -4.292   1.351   0.751  0.00  0.00    +0.013 A 
ATOM     20  C   UNL     1      -2.979   1.751   0.588  0.00  0.00    +0.050 A 
ATOM     21  C   UNL     1      -1.978   1.170   1.349  0.00  0.00    +0.162 A 
ATOM     22  C   UNL     1      -2.299   0.193   2.287  0.00  0.00    +0.162 A 
ATOM     23  C   UNL     1      -3.618  -0.199   2.450  0.00  0.00    +0.058 A 
BRANCH  22  24
ATOM     24  O   UNL     1      -1.321  -0.376   3.041  0.00  0.00    -0.491 OA
ATOM     25  C   UNL     1      -1.724  -1.372   3.982  0.00  0.00    +0.277 C 
ENDBRANCH  22  24
BRANCH  21  26
ATOM     26  O   UNL     1      -0.685   1.558   1.185  0.00  0.00    -0.491 OA
ATOM     27  C   UNL     1      -0.429   2.566   0.205  0.00  0.00    +0.277 C 
ENDBRANCH  21  26
ENDBRANCH  14  18
BRANCH   1  28
ATOM     28  S   UNL     1     -10.091  -3.042   4.934  0.00  0.00    -0.084 S 
BRANCH  28  29
ATOM     29  C   UNL     1     -11.466  -4.004   4.256  0.00  0.00    +0.077 C 
BRANCH  29  30
ATOM     30  C   UNL     1     -12.471  -4.311   5.369  0.00  0.00    +0.011 C 
BRANCH  30  32
ATOM     31  C   UNL     1     -14.637  -5.432   5.910  0.00  0.00    +0.004 C 
ATOM     32  C   UNL     1     -13.633  -5.125   4.797  0.00  0.00    -0.003 C 
ENDBRANCH  30  32
ENDBRANCH  29  30
ENDBRANCH  28  29
ENDBRANCH   1  28
TORSDOF 7
