REMARK  Name = ZINC64479996
REMARK  6 active torsions:
REMARK  status: ('A' for Active; 'I' for Inactive)
REMARK    1  A    between atoms: C_4  and  S_7
REMARK    2  A    between atoms: S_7  and  N_10
REMARK    3  A    between atoms: C_14  and  C_17
REMARK    4  A    between atoms: N_19  and  C_20
REMARK    5  A    between atoms: C_20  and  C_21
REMARK    6  A    between atoms: C_21  and  C_22
REMARK                            x       y       z     vdW  Elec       q    Type
REMARK                         _______ _______ _______ _____ _____    ______ ____
ROOT
ATOM      1  C   UNL     1       2.955  -3.128   4.356  0.00  0.00    +0.217 C 
ATOM      2  O   UNL     1       3.260  -4.223   3.932  0.00  0.00    -0.275 OA
ATOM      3  N   UNL     1       2.338  -3.016   5.549  0.00  0.00    -0.315 N 
ATOM      4  H   UNL     1       2.095  -2.140   5.888  0.00  0.00    +0.149 HD
ENDROOT
BRANCH   1   9
ATOM      5  N   UNL     1       4.378  -1.079   1.536  0.00  0.00    -0.176 NA
ATOM      6  C   UNL     1       5.190  -0.084   2.249  0.00  0.00    +0.109 C 
ATOM      7  C   UNL     1       4.477   0.294   3.551  0.00  0.00    +0.018 C 
ATOM      8  C   UNL     1       4.187  -0.976   4.356  0.00  0.00    +0.015 C 
ATOM      9  C   UNL     1       3.266  -1.894   3.549  0.00  0.00    +0.091 C 
ATOM     10  C   UNL     1       3.961  -2.293   2.249  0.00  0.00    +0.122 C 
BRANCH   5  11
ATOM     11  S   UNL     1       3.934  -0.832  -0.041  0.00  0.00    +0.061 S 
ATOM     12  O   UNL     1       3.674  -2.114  -0.595  0.00  0.00    -0.153 OA
ATOM     13  O   UNL     1       4.890   0.060  -0.597  0.00  0.00    -0.153 OA
BRANCH  11  17
ATOM     14  C   UNL     1      -0.017   1.378   0.010  0.00  0.00    +0.000 A 
ATOM     15  C   UNL     1       1.171   2.086   0.002  0.00  0.00    +0.002 A 
ATOM     16  C   UNL     1       2.377   1.411  -0.013  0.00  0.00    +0.028 A 
ATOM     17  C   UNL     1       2.396   0.029  -0.020  0.00  0.00    +0.105 A 
ATOM     18  C   UNL     1       1.208  -0.679  -0.012  0.00  0.00    +0.028 A 
ATOM     19  C   UNL     1       0.002  -0.004   0.002  0.00  0.00    +0.002 A 
ENDBRANCH  11  17
ENDBRANCH   5  11
ENDBRANCH   1   9
BRANCH   3  20
ATOM     20  C   UNL     1       2.036  -4.216   6.333  0.00  0.00    +0.108 C 
BRANCH  20  21
ATOM     21  C   UNL     1       1.340  -3.812   7.635  0.00  0.00    +0.052 C 
BRANCH  21  22
ATOM     22  C   UNL     1       1.029  -5.046   8.441  0.00  0.00    -0.040 C 
ATOM     23  C   UNL     1       1.776  -5.579   9.435  0.00  0.00    +0.000 A 
ATOM     24  C   UNL     1       3.055  -5.183  10.038  0.00  0.00    +0.030 A 
ATOM     25  C   UNL     1       3.567  -5.933  11.041  0.00  0.00    +0.042 A 
ATOM     26  C   UNL     1       2.909  -7.077  11.517  0.00  0.00    +0.022 A 
ATOM     27  C   UNL     1       1.731  -7.503  11.013  0.00  0.00    +0.027 A 
ATOM     28  C   UNL     1       1.102  -6.789   9.956  0.00  0.00    +0.043 A 
ATOM     29  N   UNL     1      -0.020  -6.997   9.309  0.00  0.00    -0.380 N 
ATOM     30  C   UNL     1      -0.186  -5.937   8.308  0.00  0.00    +0.144 C 
ATOM     31 CL   UNL     1       5.079  -5.469  11.757  0.00  0.00    -0.084 Cl
ATOM     32  H   UNL     1      -0.638  -7.728   9.468  0.00  0.00    +0.160 HD
ENDBRANCH  21  22
ENDBRANCH  20  21
ENDBRANCH   3  20
TORSDOF 6
