REMARK  Name = ZINC34757669
REMARK  7 active torsions:
REMARK  status: ('A' for Active; 'I' for Inactive)
REMARK    1  A    between atoms: C_1  and  C_2
REMARK    2  A    between atoms: C_2  and  C_3
REMARK    3  A    between atoms: C_2  and  C_4
REMARK    4  A    between atoms: C_4  and  N_5
REMARK    5  A    between atoms: C_18  and  S_20
REMARK    6  A    between atoms: S_20  and  C_21
REMARK    7  A    between atoms: C_21  and  C_22
REMARK                            x       y       z     vdW  Elec       q    Type
REMARK                         _______ _______ _______ _____ _____    ______ ____
ROOT
ATOM      1  N   UNL     1      -1.529  -2.014  -0.021  0.00  0.00    +0.382 N 
ATOM      2  C   UNL     1      -1.093  -2.250  -1.403  0.00  0.00    -0.060 C 
ATOM      3  C   UNL     1      -0.840  -3.748  -1.609  0.00  0.00    +0.088 C 
ATOM      4  N   UNL     1      -2.054  -4.483  -1.222  0.00  0.00    -0.318 N 
ATOM      5  C   UNL     1      -2.655  -4.187   0.088  0.00  0.00    +0.088 C 
ATOM      6  C   UNL     1      -2.822  -2.670   0.214  0.00  0.00    -0.060 C 
ATOM      7  C   UNL     1      -2.614  -5.426  -2.065  0.00  0.00    +0.134 A 
ATOM      8  C   UNL     1      -2.275  -6.801  -1.935  0.00  0.00    +0.051 A 
ATOM      9  C   UNL     1      -1.353  -7.428  -0.972  0.00  0.00    -0.025 A 
ATOM     10  C   UNL     1      -1.201  -8.758  -1.055  0.00  0.00    -0.004 A 
ATOM     11  S   UNL     1      -2.259  -9.262  -2.393  0.00  0.00    -0.073 S 
ATOM     12  C   UNL     1      -2.902  -7.673  -2.842  0.00  0.00    +0.115 A 
ATOM     13  N   UNL     1      -3.749  -7.232  -3.752  0.00  0.00    -0.214 NA
ATOM     14  C   UNL     1      -4.030  -5.938  -3.829  0.00  0.00    +0.191 A 
ATOM     15  N   UNL     1      -3.476  -5.061  -2.999  0.00  0.00    -0.206 NA
ATOM     16  C   UNL     1      -0.234  -9.286  -0.029  0.00  0.00    +0.043 C 
ATOM     17  C   UNL     1       0.543  -8.039   0.448  0.00  0.00    +0.010 C 
ATOM     18  C   UNL     1      -0.472  -6.913   0.171  0.00  0.00    +0.037 C 
ATOM     19  H   UNL     1      -0.842  -2.391   0.615  0.00  0.00    -0.082 HD
ENDROOT
BRANCH   1  20
ATOM     20  C   UNL     1      -1.666  -0.570   0.208  0.00  0.00    -0.076 C 
BRANCH  20  22
ATOM     21  C   UNL     1      -0.453   1.615   0.200  0.00  0.00    +0.005 C 
ATOM     22  C   UNL     1      -0.294   0.098   0.085  0.00  0.00    -0.034 C 
ATOM     23  C   UNL     1       0.619  -0.405   1.205  0.00  0.00    +0.005 C 
ENDBRANCH  20  22
ENDBRANCH   1  20
BRANCH  14  24
ATOM     24  S   UNL     1      -5.164  -5.371  -5.053  0.00  0.00    -0.077 S 
BRANCH  24  25
ATOM     25  C   UNL     1      -5.656  -6.882  -5.928  0.00  0.00    +0.172 C 
BRANCH  25  26
ATOM     26  C   UNL     1      -6.639  -6.534  -7.016  0.00  0.00    +0.221 C 
ATOM     27  O   UNL     1      -6.974  -5.381  -7.185  0.00  0.00    -0.275 OA
ATOM     28  N   UNL     1      -7.145  -7.505  -7.802  0.00  0.00    -0.329 N 
ATOM     29  H   UNL     1      -6.878  -8.428  -7.667  0.00  0.00    +0.145 HD
ATOM     30  H   UNL     1      -7.778  -7.282  -8.503  0.00  0.00    +0.145 HD
ENDBRANCH  25  26
ENDBRANCH  24  25
ENDBRANCH  14  24
TORSDOF 5
