REMARK  Name = ZINC28711322
REMARK  7 active torsions:
REMARK  status: ('A' for Active; 'I' for Inactive)
REMARK    1  A    between atoms: C_6  and  C_8
REMARK    2  A    between atoms: C_11  and  C_14
REMARK    3  A    between atoms: N_16  and  C_17
REMARK    4  A    between atoms: C_17  and  C_18
REMARK    5  A    between atoms: C_19  and  C_20
REMARK    6  A    between atoms: C_20  and  N_21
REMARK    7  A    between atoms: N_24  and  C_27
REMARK                            x       y       z     vdW  Elec       q    Type
REMARK                         _______ _______ _______ _____ _____    ______ ____
ROOT
ATOM      1  C   UNL     1       8.391   6.398   0.061  0.00  0.00    +0.131 C 
ENDROOT
BRANCH   1   4
ATOM      2  C   UNL     1       5.961   6.244  -0.019  0.00  0.00    +0.244 C 
ATOM      3  O   UNL     1       5.916   7.456  -0.104  0.00  0.00    -0.270 OA
ATOM      4  N   UNL     1       7.151   5.618   0.068  0.00  0.00    -0.308 N 
ATOM      5  H   UNL     1       7.192   4.521   0.144  0.00  0.00    +0.149 HD
BRANCH   2   9
ATOM      6  C   UNL     1       2.363   3.981   0.001  0.00  0.00    +0.002 A 
ATOM      7  C   UNL     1       3.595   3.333   0.097  0.00  0.00    +0.011 A 
ATOM      8  C   UNL     1       4.761   4.065   0.085  0.00  0.00    +0.014 A 
ATOM      9  C   UNL     1       4.710   5.457  -0.013  0.00  0.00    +0.037 A 
ATOM     10  C   UNL     1       3.476   6.106  -0.103  0.00  0.00    +0.014 A 
ATOM     11  C   UNL     1       2.311   5.372  -0.096  0.00  0.00    +0.011 A 
BRANCH   6  17
ATOM     12  C   UNL     1      -0.069   1.160  -0.462  0.00  0.00    +0.004 A 
ATOM     13  C   UNL     1      -1.215   1.768   0.031  0.00  0.00    +0.021 A 
ATOM     14  C   UNL     1      -1.145   3.067   0.501  0.00  0.00    +0.134 A 
ATOM     15  N   UNL     1      -0.009   3.735   0.477  0.00  0.00    -0.139 N 
ATOM     16  O   UNL     1       0.021   5.065   0.963  0.00  0.00    -0.164 OA
ATOM     17  C   UNL     1       1.108   3.192   0.009  0.00  0.00    +0.092 A 
ATOM     18  C   UNL     1       1.111   1.885  -0.476  0.00  0.00    +0.030 A 
ENDBRANCH   6  17
ENDBRANCH   2   9
ENDBRANCH   1   4
BRANCH   1  19
ATOM     19  C   UNL     1       9.571   5.467   0.169  0.00  0.00    -0.014 C 
ATOM     20  C   UNL     1      10.523   5.509  -0.730  0.00  0.00    -0.048 C 
BRANCH  20  21
ATOM     21  C   UNL     1      11.703   4.577  -0.622  0.00  0.00    -0.051 C 
BRANCH  21  22
ATOM     22  N   UNL     1      11.841   3.815  -1.870  0.00  0.00    +0.384 N 
ATOM     23  C   UNL     1      10.700   2.909  -2.063  0.00  0.00    -0.059 C 
ATOM     24  C   UNL     1      10.841   2.193  -3.408  0.00  0.00    +0.086 C 
ATOM     25  N   UNL     1      12.110   1.452  -3.436  0.00  0.00    -0.332 N 
ATOM     26  C   UNL     1      13.251   2.359  -3.243  0.00  0.00    +0.086 C 
ATOM     27  C   UNL     1      13.109   3.074  -1.897  0.00  0.00    -0.059 C 
ATOM     28  H   UNL     1      11.849   4.533  -2.704  0.00  0.00    -0.081 HD
BRANCH  25  29
ATOM     29  C   UNL     1      12.241   0.727  -4.623  0.00  0.00    +0.050 A 
ATOM     30  C   UNL     1      12.319   1.393  -5.840  0.00  0.00    +0.025 A 
ATOM     31  C   UNL     1      12.449   0.674  -7.012  0.00  0.00    +0.003 A 
ATOM     32  C   UNL     1      12.501  -0.708  -6.976  0.00  0.00    +0.021 A 
ATOM     33  C   UNL     1      12.424  -1.375  -5.766  0.00  0.00    +0.061 A 
ATOM     34  C   UNL     1      12.300  -0.661  -4.588  0.00  0.00    +0.080 A 
ATOM     35 CL   UNL     1      12.210  -1.497  -3.070  0.00  0.00    -0.080 Cl
ATOM     36 CL   UNL     1      12.491  -3.109  -5.727  0.00  0.00    -0.082 Cl
ENDBRANCH  25  29
ENDBRANCH  21  22
ENDBRANCH  20  21
ENDBRANCH   1  19
TORSDOF 7
