REMARK  Name = ZINC15674142
REMARK  6 active torsions:
REMARK  status: ('A' for Active; 'I' for Inactive)
REMARK    1  A    between atoms: C_6  and  C_7
REMARK    2  A    between atoms: C_7  and  N_46
REMARK    3  A    between atoms: C_9  and  O_29
REMARK    4  A    between atoms: C_12  and  C_14
REMARK    5  A    between atoms: C_16  and  C_19
REMARK    6  A    between atoms: C_22  and  C_25
REMARK                            x       y       z     vdW  Elec       q    Type
REMARK                         _______ _______ _______ _____ _____    ______ ____
ROOT
ATOM      1  C   UNL     1      -1.984   0.816  -1.396  0.00  0.00    -0.046 C 
ATOM      2  C   UNL     1      -2.319   1.032  -2.887  0.00  0.00    +0.097 C 
ATOM      3  C   UNL     1      -0.970   1.364  -3.557  0.00  0.00    +0.023 C 
ATOM      4  C   UNL     1       0.067   1.320  -2.414  0.00  0.00    +0.025 C 
ATOM      5  N   UNL     1      -0.732   1.561  -1.216  0.00  0.00    +0.392 N 
ATOM      6  H   UNL     1      -0.931   2.564  -1.122  0.00  0.00    -0.080 HD
ENDROOT
BRANCH   4   7
ATOM      7  C   UNL     1       1.104   2.398  -2.604  0.00  0.00    +0.214 A 
ATOM      8  N   UNL     1       2.361   2.220  -2.925  0.00  0.00    -0.193 NA
ATOM      9  C   UNL     1       2.900   3.459  -2.984  0.00  0.00    +0.202 A 
ATOM     10  N   UNL     1       1.949   4.307  -2.689  0.00  0.00    -0.056 NA
ATOM     11  O   UNL     1       0.914   3.714  -2.469  0.00  0.00    -0.339 OA
BRANCH   9  12
ATOM     12  C   UNL     1       4.307   3.793  -3.316  0.00  0.00    +0.022 A 
ATOM     13  C   UNL     1       5.217   2.778  -3.606  0.00  0.00    +0.012 A 
ATOM     14  C   UNL     1       6.523   3.095  -3.918  0.00  0.00    +0.013 A 
ATOM     15  C   UNL     1       6.933   4.416  -3.933  0.00  0.00    +0.055 A 
ATOM     16  C   UNL     1       6.035   5.427  -3.641  0.00  0.00    +0.013 A 
ATOM     17  C   UNL     1       4.725   5.122  -3.333  0.00  0.00    +0.012 A 
BRANCH  15  18
ATOM     18  C   UNL     1       8.363   4.755  -4.268  0.00  0.00    +0.417 C 
ATOM     19  F   UNL     1       9.124   4.775  -3.095  0.00  0.00    -0.166 F 
ATOM     20  F   UNL     1       8.877   3.792  -5.143  0.00  0.00    -0.166 F 
ATOM     21  F   UNL     1       8.413   6.013  -4.879  0.00  0.00    -0.166 F 
ENDBRANCH  15  18
ENDBRANCH   9  12
ENDBRANCH   4   7
BRANCH   2  22
ATOM     22  O   UNL     1      -2.872  -0.160  -3.449  0.00  0.00    -0.394 OA
ATOM     23  H   UNL     1      -3.722  -0.417  -3.066  0.00  0.00    +0.210 HD
ENDBRANCH   2  22
BRANCH   5  24
ATOM     24  C   UNL     1      -0.013   1.086   0.008  0.00  0.00    -0.042 C 
BRANCH  24  30
ATOM     25  C   UNL     1      -0.360   2.779   1.819  0.00  0.00    +0.003 A 
ATOM     26  C   UNL     1      -1.010   3.227   2.953  0.00  0.00    +0.020 A 
ATOM     27  C   UNL     1      -2.011   2.463   3.524  0.00  0.00    +0.041 A 
ATOM     28  C   UNL     1      -2.366   1.252   2.955  0.00  0.00    +0.020 A 
ATOM     29  C   UNL     1      -1.719   0.808   1.817  0.00  0.00    +0.003 A 
ATOM     30  C   UNL     1      -0.718   1.572   1.248  0.00  0.00    -0.064 A 
ATOM     31 CL   UNL     1      -2.823   3.022   4.953  0.00  0.00    -0.084 Cl
ENDBRANCH  24  30
ENDBRANCH   5  24
TORSDOF 6
