REMARK  Name = ZINC35887703
REMARK  13 active torsions:
REMARK  status: ('A' for Active; 'I' for Inactive)
REMARK    1  A    between atoms: C_1  and  C_2
REMARK    2  A    between atoms: C_5  and  C_8
REMARK    3  A    between atoms: N_10  and  C_11
REMARK    4  A    between atoms: N_10  and  C_33
REMARK    5  A    between atoms: C_11  and  C_12
REMARK    6  A    between atoms: N_15  and  C_27
REMARK    7  A    between atoms: C_17  and  C_19
REMARK    8  A    between atoms: C_23  and  O_25
REMARK    9  A    between atoms: O_25  and  C_26
REMARK   10  A    between atoms: C_27  and  C_28
REMARK   11  A    between atoms: C_33  and  C_34
REMARK   12  A    between atoms: C_34  and  C_35
REMARK   13  A    between atoms: C_34  and  C_36
REMARK                            x       y       z     vdW  Elec       q    Type
REMARK                         _______ _______ _______ _____ _____    ______ ____
ROOT
ATOM      1  C   UNL     1       1.780  -6.434   0.675  0.00  0.00    -0.005 C 
ATOM      2  C   UNL     1       2.459  -6.734  -0.678  0.00  0.00    -0.073 C 
ATOM      3  N   UNL     1       3.349  -7.891  -0.403  0.00  0.00    +0.383 N 
ATOM      4  C   UNL     1       2.556  -8.751   0.512  0.00  0.00    -0.070 C 
ATOM      5  C   UNL     1       1.844  -7.760   1.461  0.00  0.00    +0.005 C 
ATOM      6  H   UNL     1       4.197  -7.584   0.049  0.00  0.00    -0.081 HD
ENDROOT
BRANCH   5   7
ATOM      7  C   UNL     1       0.454  -8.246   1.781  0.00  0.00    -0.042 A 
ATOM      8  C   UNL     1      -0.045  -8.117   3.064  0.00  0.00    +0.004 A 
ATOM      9  C   UNL     1      -1.320  -8.562   3.360  0.00  0.00    +0.004 A 
ATOM     10  C   UNL     1      -2.099  -9.137   2.375  0.00  0.00    +0.045 A 
ATOM     11  C   UNL     1      -1.601  -9.267   1.087  0.00  0.00    +0.120 A 
ATOM     12  C   UNL     1      -0.323  -8.814   0.790  0.00  0.00    +0.049 A 
BRANCH  11  13
ATOM     13  O   UNL     1      -2.365  -9.833   0.115  0.00  0.00    -0.495 OA
ATOM     14  C   UNL     1      -3.672 -10.271   0.491  0.00  0.00    +0.277 C 
ENDBRANCH  11  13
ENDBRANCH   5   7
BRANCH   1  15
ATOM     15  C   UNL     1       0.325  -6.013   0.459  0.00  0.00    +0.110 C 
BRANCH  15  18
ATOM     16  C   UNL     1       0.286  -4.561  -1.498  0.00  0.00    +0.247 C 
ATOM     17  O   UNL     1       0.196  -5.551  -2.198  0.00  0.00    -0.270 OA
ATOM     18  N   UNL     1       0.287  -4.684  -0.156  0.00  0.00    -0.297 N 
BRANCH  16  23
ATOM     19  C   UNL     1       0.708   0.645  -3.911  0.00  0.00    +0.044 C 
ATOM     20  C   UNL     1       0.598  -0.718  -3.279  0.00  0.00    -0.050 A 
ATOM     21  C   UNL     1      -0.335  -0.941  -2.282  0.00  0.00    +0.004 A 
ATOM     22  C   UNL     1      -0.442  -2.187  -1.699  0.00  0.00    +0.013 A 
ATOM     23  C   UNL     1       0.394  -3.224  -2.118  0.00  0.00    +0.037 A 
ATOM     24  C   UNL     1       1.333  -2.992  -3.125  0.00  0.00    +0.013 A 
ATOM     25  C   UNL     1       1.425  -1.743  -3.703  0.00  0.00    +0.004 A 
ENDBRANCH  16  23
BRANCH  18  26
ATOM     26  C   UNL     1       0.250  -3.488   0.689  0.00  0.00    +0.111 C 
BRANCH  26  27
ATOM     27  C   UNL     1      -1.190  -3.224   1.136  0.00  0.00    +0.000 C 
ATOM     28  C   UNL     1      -1.651  -4.352   2.062  0.00  0.00    +0.009 C 
ATOM     29  C   UNL     1      -1.255  -1.891   1.885  0.00  0.00    +0.009 C 
ENDBRANCH  26  27
ENDBRANCH  18  26
ENDBRANCH  15  18
ENDBRANCH   1  15
BRANCH   3  30
ATOM     30  C   UNL     1       3.657  -8.610  -1.646  0.00  0.00    -0.042 C 
BRANCH  30  31
ATOM     31  C   UNL     1       4.656  -9.701  -1.360  0.00  0.00    -0.057 A 
ATOM     32  C   UNL     1       6.013  -9.449  -1.440  0.00  0.00    +0.009 A 
ATOM     33  C   UNL     1       6.885 -10.454  -1.177  0.00  0.00    +0.045 A 
ATOM     34  S   UNL     1       5.784 -11.809  -0.802  0.00  0.00    -0.105 S 
ATOM     35  C   UNL     1       4.237 -10.944  -1.016  0.00  0.00    +0.047 A 
ENDBRANCH  30  31
ENDBRANCH   3  30
TORSDOF 9
