REMARK  Name = ZINC41514609
REMARK  14 active torsions:
REMARK  status: ('A' for Active; 'I' for Inactive)
REMARK    1  A    between atoms: C_1  and  C_2
REMARK    2  A    between atoms: C_4  and  O_35
REMARK    3  A    between atoms: C_5  and  C_25
REMARK    4  A    between atoms: C_11  and  C_12
REMARK    5  A    between atoms: C_15  and  O_22
REMARK    6  A    between atoms: C_16  and  O_20
REMARK    7  A    between atoms: C_17  and  O_18
REMARK    8  A    between atoms: O_18  and  C_19
REMARK    9  A    between atoms: O_20  and  C_21
REMARK   10  A    between atoms: O_22  and  C_23
REMARK   11  A    between atoms: C_25  and  N_26
REMARK   12  A    between atoms: N_26  and  C_27
REMARK   13  A    between atoms: N_26  and  C_28
REMARK   14  A    between atoms: C_28  and  C_29
REMARK                            x       y       z     vdW  Elec       q    Type
REMARK                         _______ _______ _______ _____ _____    ______ ____
ROOT
ATOM      1  C   UNL     1      -0.712   1.601   0.143  0.00  0.00    +0.045 C 
ATOM      2  C   UNL     1      -0.780   0.095   0.115  0.00  0.00    -0.033 A 
ATOM      3  C   UNL     1      -1.036  -0.557  -1.058  0.00  0.00    +0.050 A 
ATOM      4  C   UNL     1      -1.099  -1.947  -1.086  0.00  0.00    +0.122 A 
ATOM      5  C   UNL     1      -0.904  -2.685   0.070  0.00  0.00    +0.020 A 
ATOM      6  C   UNL     1      -0.643  -2.037   1.272  0.00  0.00    +0.145 A 
ATOM      7  C   UNL     1      -0.576  -0.635   1.286  0.00  0.00    +0.071 A 
ATOM      8  C   UNL     1      -0.282  -0.247   2.678  0.00  0.00    +0.232 C 
ATOM      9  O   UNL     1      -0.147   0.878   3.127  0.00  0.00    -0.283 OA
ATOM     10  C   UNL     1      -0.190  -1.520   3.403  0.00  0.00    +0.176 C 
ATOM     11  C   UNL     1       0.068  -1.672   4.729  0.00  0.00    +0.062 C 
ATOM     12  O   UNL     1      -0.420  -2.516   2.515  0.00  0.00    -0.451 OA
ENDROOT
BRANCH  11  13
ATOM     13  C   UNL     1      -0.018  -2.998   5.346  0.00  0.00    +0.024 A 
ATOM     14  C   UNL     1      -0.009  -4.149   4.545  0.00  0.00    +0.015 A 
ATOM     15  C   UNL     1      -0.090  -5.393   5.127  0.00  0.00    +0.050 A 
ATOM     16  C   UNL     1      -0.181  -5.516   6.510  0.00  0.00    +0.165 A 
ATOM     17  C   UNL     1      -0.191  -4.383   7.316  0.00  0.00    +0.204 A 
ATOM     18  C   UNL     1      -0.104  -3.123   6.743  0.00  0.00    +0.172 A 
BRANCH  18  19
ATOM     19  O   UNL     1      -0.108  -2.015   7.528  0.00  0.00    -0.491 OA
ATOM     20  C   UNL     1      -1.380  -1.438   7.829  0.00  0.00    +0.277 C 
ENDBRANCH  18  19
BRANCH  17  21
ATOM     21  O   UNL     1      -0.281  -4.511   8.668  0.00  0.00    -0.488 OA
ATOM     22  C   UNL     1       0.947  -4.618   9.393  0.00  0.00    +0.277 C 
ENDBRANCH  17  21
BRANCH  16  23
ATOM     23  O   UNL     1      -0.261  -6.749   7.074  0.00  0.00    -0.491 OA
ATOM     24  C   UNL     1      -0.246  -7.870   6.189  0.00  0.00    +0.277 C 
ENDBRANCH  16  23
ENDBRANCH  11  13
BRANCH   4  25
ATOM     25  O   UNL     1      -1.353  -2.586  -2.257  0.00  0.00    -0.506 OA
ATOM     26  H   UNL     1      -0.561  -2.806  -2.765  0.00  0.00    +0.292 HD
ENDBRANCH   4  25
BRANCH   5  27
ATOM     27  C   UNL     1      -0.976  -4.189   0.025  0.00  0.00    -0.035 C 
BRANCH  27  28
ATOM     28  N   UNL     1       0.359  -4.735  -0.254  0.00  0.00    +0.383 N 
ATOM     29  C   UNL     1       1.260  -4.422   0.863  0.00  0.00    -0.095 C 
ATOM     30  H   UNL     1       0.720  -4.324  -1.102  0.00  0.00    -0.081 HD
BRANCH  28  31
ATOM     31  C   UNL     1       0.268  -6.192  -0.417  0.00  0.00    -0.043 C 
BRANCH  31  32
ATOM     32  C   UNL     1       1.613  -6.737  -0.824  0.00  0.00    -0.064 A 
ATOM     33  C   UNL     1       1.942  -6.835  -2.163  0.00  0.00    +0.002 A 
ATOM     34  C   UNL     1       3.175  -7.335  -2.537  0.00  0.00    +0.000 A 
ATOM     35  C   UNL     1       4.080  -7.737  -1.572  0.00  0.00    +0.000 A 
ATOM     36  C   UNL     1       3.751  -7.638  -0.233  0.00  0.00    +0.000 A 
ATOM     37  C   UNL     1       2.520  -7.134   0.141  0.00  0.00    +0.002 A 
ENDBRANCH  31  32
ENDBRANCH  28  31
ENDBRANCH  27  28
ENDBRANCH   5  27
TORSDOF 9
