REMARK  Name = ZINC36545507
REMARK  11 active torsions:
REMARK  status: ('A' for Active; 'I' for Inactive)
REMARK    1  A    between atoms: C_1  and  C_2
REMARK    2  A    between atoms: C_2  and  C_3
REMARK    3  A    between atoms: C_3  and  C_4
REMARK    4  A    between atoms: C_4  and  N_5
REMARK    5  A    between atoms: C_6  and  C_8
REMARK    6  A    between atoms: C_8  and  C_10
REMARK    7  A    between atoms: C_8  and  N_19
REMARK    8  A    between atoms: N_19  and  C_20
REMARK    9  A    between atoms: C_27  and  C_29
REMARK   10  A    between atoms: C_33  and  O_36
REMARK   11  A    between atoms: C_34  and  O_35
REMARK                            x       y       z     vdW  Elec       q    Type
REMARK                         _______ _______ _______ _____ _____    ______ ____
ROOT
ATOM      1  N   UNL     1       2.033  -5.695  -4.210  0.00  0.00    -0.250 N 
ATOM      2  C   UNL     1       1.618  -6.031  -5.448  0.00  0.00    +0.255 C 
ATOM      3  O   UNL     1       1.147  -5.184  -6.182  0.00  0.00    -0.269 OA
ENDROOT
BRANCH   1   4
ATOM      4  C   UNL     1       2.485  -6.685  -3.331  0.00  0.00    +0.056 A 
ATOM      5  C   UNL     1       1.587  -7.332  -2.492  0.00  0.00    +0.025 A 
ATOM      6  C   UNL     1       2.036  -8.309  -1.625  0.00  0.00    +0.002 A 
ATOM      7  C   UNL     1       3.378  -8.643  -1.591  0.00  0.00    +0.002 A 
ATOM      8  C   UNL     1       4.274  -8.001  -2.425  0.00  0.00    +0.022 A 
ATOM      9  C   UNL     1       3.831  -7.026  -3.299  0.00  0.00    +0.062 A 
ATOM     10 CL   UNL     1       4.957  -6.225  -4.351  0.00  0.00    -0.082 Cl
ENDBRANCH   1   4
BRANCH   2  11
ATOM     11  C   UNL     1       1.737  -7.426  -5.912  0.00  0.00    +0.082 A 
ATOM     12  C   UNL     1       1.170  -8.465  -5.166  0.00  0.00    +0.017 A 
ATOM     13  C   UNL     1       1.283  -9.767  -5.602  0.00  0.00    +0.005 A 
ATOM     14  C   UNL     1       1.956 -10.055  -6.779  0.00  0.00    +0.049 A 
ATOM     15  C   UNL     1       2.522  -9.038  -7.528  0.00  0.00    +0.159 A 
ATOM     16  C   UNL     1       2.411  -7.717  -7.103  0.00  0.00    +0.171 A 
BRANCH  16  17
ATOM     17  O   UNL     1       2.960  -6.716  -7.838  0.00  0.00    -0.503 OA
ATOM     18  H   UNL     1       3.875  -6.511  -7.602  0.00  0.00    +0.292 HD
ENDBRANCH  16  17
BRANCH  15  19
ATOM     19  O   UNL     1       3.181  -9.329  -8.681  0.00  0.00    -0.503 OA
ATOM     20  H   UNL     1       2.619  -9.327  -9.467  0.00  0.00    +0.292 HD
ENDBRANCH  15  19
ENDBRANCH   2  11
BRANCH   1  21
ATOM     21  C   UNL     1       2.011  -4.293  -3.786  0.00  0.00    +0.198 C 
BRANCH  21  22
ATOM     22  C   UNL     1       3.376  -3.898  -3.284  0.00  0.00    -0.014 A 
ATOM     23  C   UNL     1       4.061  -2.861  -3.890  0.00  0.00    +0.010 A 
ATOM     24  C   UNL     1       5.313  -2.495  -3.433  0.00  0.00    +0.050 A 
ATOM     25  C   UNL     1       5.885  -3.168  -2.365  0.00  0.00    +0.166 A 
ATOM     26  C   UNL     1       5.195  -4.213  -1.755  0.00  0.00    +0.167 A 
ATOM     27  C   UNL     1       3.938  -4.570  -2.215  0.00  0.00    +0.055 A 
ATOM     28  O   UNL     1       5.962  -4.708  -0.740  0.00  0.00    -0.453 OA
ATOM     29  C   UNL     1       7.295  -4.228  -0.996  0.00  0.00    +0.466 C 
ATOM     30  O   UNL     1       7.084  -3.009  -1.733  0.00  0.00    -0.453 OA
ENDBRANCH  21  22
BRANCH  21  32
ATOM     31  N   UNL     1       0.806  -2.902  -2.133  0.00  0.00    -0.313 N 
ATOM     32  C   UNL     1       1.000  -4.118  -2.683  0.00  0.00    +0.238 C 
ATOM     33  O   UNL     1       0.360  -5.070  -2.289  0.00  0.00    -0.273 OA
ATOM     34  H   UNL     1       1.317  -2.141  -2.447  0.00  0.00    +0.149 HD
BRANCH  31  35
ATOM     35  C   UNL     1      -0.177  -2.732  -1.060  0.00  0.00    +0.104 C 
BRANCH  35  36
ATOM     36  C   UNL     1      -0.200  -1.268  -0.617  0.00  0.00    +0.018 C 
BRANCH  36  38
ATOM     37  C   UNL     1      -1.250   0.374   0.947  0.00  0.00    +0.004 C 
ATOM     38  C   UNL     1      -1.227  -1.090   0.503  0.00  0.00    -0.002 C 
ENDBRANCH  36  38
ENDBRANCH  35  36
ENDBRANCH  31  35
ENDBRANCH  21  32
ENDBRANCH   1  21
TORSDOF 10
