REMARK  Name = ZINC15678247
REMARK  9 active torsions:
REMARK  status: ('A' for Active; 'I' for Inactive)
REMARK    1  A    between atoms: C_1  and  C_2
REMARK    2  A    between atoms: C_2  and  C_21
REMARK    3  A    between atoms: C_5  and  C_16
REMARK    4  A    between atoms: N_11  and  C_12
REMARK    5  A    between atoms: C_12  and  C_13
REMARK    6  A    between atoms: C_13  and  N_68
REMARK    7  A    between atoms: C_14  and  N_68
REMARK    8  A    between atoms: C_15  and  N_68
REMARK    9  A    between atoms: N_23  and  C_24
REMARK                            x       y       z     vdW  Elec       q    Type
REMARK                         _______ _______ _______ _____ _____    ______ ____
ROOT
ATOM      1  C   UNL     1      -4.867   3.794   2.149  0.00  0.00    +0.043 C 
ATOM      2  C   UNL     1      -5.032   3.840   0.629  0.00  0.00    +0.128 C 
ATOM      3  C   UNL     1      -3.669   3.607  -0.023  0.00  0.00    +0.157 C 
ATOM      4  N   UNL     1      -2.850   4.812   0.130  0.00  0.00    -0.331 N 
ATOM      5  C   UNL     1      -1.504   4.947   0.212  0.00  0.00    +0.085 A 
ATOM      6  C   UNL     1      -1.210   6.297   0.331  0.00  0.00    +0.032 A 
ATOM      7  C   UNL     1      -2.416   6.998   0.317  0.00  0.00    +0.033 A 
ATOM      8  C   UNL     1      -3.421   6.078   0.203  0.00  0.00    +0.105 A 
ATOM      9  C   UNL     1      -4.877   6.250   0.165  0.00  0.00    +0.264 C 
ATOM     10  O   UNL     1      -5.390   7.348   0.056  0.00  0.00    -0.268 OA
ATOM     11  N   UNL     1      -5.619   5.122   0.257  0.00  0.00    -0.282 N 
ENDROOT
BRANCH   5  12
ATOM     12  C   UNL     1      -0.525   3.851   0.187  0.00  0.00    +0.151 A 
ATOM     13  C   UNL     1       0.822   3.975   0.365  0.00  0.00    +0.051 A 
ATOM     14  C   UNL     1       1.365   2.682   0.261  0.00  0.00    +0.042 A 
ATOM     15  C   UNL     1       0.338   1.839   0.027  0.00  0.00    +0.196 A 
ATOM     16  O   UNL     1      -0.800   2.548  -0.022  0.00  0.00    -0.461 OA
ENDBRANCH   5  12
BRANCH   2  17
ATOM     17  C   UNL     1      -5.968   2.737   0.208  0.00  0.00    +0.238 C 
ATOM     18  O   UNL     1      -6.266   1.862   0.993  0.00  0.00    -0.273 OA
ATOM     19  N   UNL     1      -6.475   2.723  -1.041  0.00  0.00    -0.311 N 
ATOM     20  H   UNL     1      -6.184   3.382  -1.690  0.00  0.00    +0.149 HD
BRANCH  19  21
ATOM     21  C   UNL     1      -7.465   1.711  -1.419  0.00  0.00    +0.073 C 
ATOM     22  C   UNL     1      -6.749   0.406  -1.775  0.00  0.00    +0.022 C 
ATOM     23  C   UNL     1      -7.759  -0.744  -1.780  0.00  0.00    +0.002 C 
ATOM     24  C   UNL     1      -8.670  -0.630  -0.556  0.00  0.00    +0.000 C 
ATOM     25  C   UNL     1     -10.095  -0.308  -1.010  0.00  0.00    +0.000 C 
ATOM     26  C   UNL     1     -10.181   1.166  -1.411  0.00  0.00    +0.000 C 
ATOM     27  C   UNL     1      -9.529   1.361  -2.781  0.00  0.00    +0.002 C 
ATOM     28  C   UNL     1      -8.261   2.203  -2.629  0.00  0.00    +0.022 C 
ENDBRANCH  19  21
ENDBRANCH   2  17
BRANCH  11  29
ATOM     29  C   UNL     1      -7.055   5.190  -0.026  0.00  0.00    +0.091 C 
BRANCH  29  30
ATOM     30  C   UNL     1      -7.802   5.636   1.232  0.00  0.00    -0.060 C 
BRANCH  30  33
ATOM     31  C   UNL     1      -9.779   4.258   0.996  0.00  0.00    -0.097 C 
ATOM     32  C   UNL     1      -9.960   6.485   1.929  0.00  0.00    -0.097 C 
ATOM     33  N   UNL     1      -9.252   5.638   0.946  0.00  0.00    +0.377 N 
ATOM     34  H   UNL     1      -9.406   6.019   0.005  0.00  0.00    -0.083 HD
ENDBRANCH  30  33
ENDBRANCH  29  30
ENDBRANCH  11  29
TORSDOF 6
