REMARK  Name = ZINC01908228
REMARK  13 active torsions:
REMARK  status: ('A' for Active; 'I' for Inactive)
REMARK    1  A    between atoms: C_1  and  C_2
REMARK    2  A    between atoms: C_9  and  C_27
REMARK    3  A    between atoms: C_10  and  O_13
REMARK    4  A    between atoms: O_13  and  C_14
REMARK    5  A    between atoms: C_14  and  C_15
REMARK    6  A    between atoms: N_17  and  C_18
REMARK    7  A    between atoms: C_19  and  C_26
REMARK    8  A    between atoms: C_21  and  C_25
REMARK    9  A    between atoms: C_23  and  C_24
REMARK   10  A    between atoms: C_30  and  C_33
REMARK   11  A    between atoms: C_33  and  C_34
REMARK   12  A    between atoms: C_33  and  C_35
REMARK   13  A    between atoms: C_33  and  C_36
REMARK                            x       y       z     vdW  Elec       q    Type
REMARK                         _______ _______ _______ _____ _____    ______ ____
ROOT
ATOM      1  C   UNL     1     -13.080  -1.059  -0.800  0.00  0.00    +0.044 C 
ATOM      2  C   UNL     1     -11.681  -0.600  -0.481  0.00  0.00    -0.047 A 
ATOM      3  C   UNL     1     -11.218  -0.664   0.826  0.00  0.00    +0.004 A 
ATOM      4  C   UNL     1      -9.941  -0.248   1.132  0.00  0.00    +0.016 A 
ATOM      5  C   UNL     1      -9.115   0.238   0.120  0.00  0.00    +0.068 A 
ATOM      6  C   UNL     1      -9.582   0.304  -1.203  0.00  0.00    +0.140 A 
ATOM      7  C   UNL     1     -10.873  -0.121  -1.490  0.00  0.00    +0.050 A 
ATOM      8  O   UNL     1      -8.777   0.776  -2.177  0.00  0.00    -0.451 OA
ATOM      9  C   UNL     1      -7.525   1.199  -1.933  0.00  0.00    +0.181 A 
ATOM     10  C   UNL     1      -6.973   1.173  -0.688  0.00  0.00    +0.211 A 
ATOM     11  C   UNL     1      -7.741   0.693   0.405  0.00  0.00    +0.235 A 
ATOM     12  O   UNL     1      -7.283   0.659   1.536  0.00  0.00    -0.283 OA
ENDROOT
BRANCH   9  13
ATOM     13  C   UNL     1      -6.716   1.706  -3.058  0.00  0.00    +0.021 A 
ATOM     14  C   UNL     1      -6.025   2.914  -2.938  0.00  0.00    +0.012 A 
ATOM     15  C   UNL     1      -5.266   3.380  -3.991  0.00  0.00    +0.005 A 
ATOM     16  C   UNL     1      -5.197   2.658  -5.170  0.00  0.00    -0.042 A 
ATOM     17  C   UNL     1      -5.883   1.463  -5.299  0.00  0.00    +0.005 A 
ATOM     18  C   UNL     1      -6.641   0.983  -4.251  0.00  0.00    +0.012 A 
BRANCH  16  19
ATOM     19  C   UNL     1      -4.371   3.176  -6.319  0.00  0.00    -0.013 C 
ATOM     20  C   UNL     1      -5.272   3.393  -7.537  0.00  0.00    +0.015 C 
ATOM     21  C   UNL     1      -3.721   4.503  -5.922  0.00  0.00    +0.015 C 
ATOM     22  C   UNL     1      -3.283   2.158  -6.665  0.00  0.00    +0.015 C 
ENDBRANCH  16  19
ENDBRANCH   9  13
BRANCH  10  23
ATOM     23  O   UNL     1      -5.699   1.608  -0.492  0.00  0.00    -0.476 OA
BRANCH  23  24
ATOM     24  C   UNL     1      -4.668   0.619  -0.497  0.00  0.00    +0.325 C 
BRANCH  24  25
ATOM     25  C   UNL     1      -3.334   1.283  -0.268  0.00  0.00    +0.255 C 
ATOM     26  O   UNL     1      -3.273   2.484  -0.115  0.00  0.00    -0.272 OA
ATOM     27  N   UNL     1      -2.210   0.541  -0.232  0.00  0.00    -0.282 N 
ATOM     28  H   UNL     1      -2.265  -0.427  -0.274  0.00  0.00    +0.155 HD
BRANCH  27  29
ATOM     29  C   UNL     1      -0.962   1.166  -0.135  0.00  0.00    +0.039 A 
ATOM     30  C   UNL     1      -0.695   2.027   0.922  0.00  0.00    -0.029 A 
ATOM     31  C   UNL     1       0.539   2.638   1.019  0.00  0.00    +0.008 A 
ATOM     32  C   UNL     1       1.508   2.398   0.062  0.00  0.00    -0.050 A 
ATOM     33  C   UNL     1       1.244   1.546  -0.995  0.00  0.00    +0.008 A 
ATOM     34  C   UNL     1       0.011   0.932  -1.097  0.00  0.00    -0.029 A 
ATOM     35  C   UNL     1      -0.276   0.004  -2.249  0.00  0.00    +0.045 C 
ATOM     36  C   UNL     1       2.854   3.066   0.170  0.00  0.00    +0.044 C 
ATOM     37  C   UNL     1      -1.750   2.289   1.966  0.00  0.00    +0.045 C 
ENDBRANCH  27  29
ENDBRANCH  24  25
ENDBRANCH  23  24
ENDBRANCH  10  23
TORSDOF 6
