REMARK  Name = ZINC16633252
REMARK  11 active torsions:
REMARK  status: ('A' for Active; 'I' for Inactive)
REMARK    1  A    between atoms: C_1  and  C_2
REMARK    2  A    between atoms: C_2  and  C_4
REMARK    3  A    between atoms: C_2  and  N_58
REMARK    4  A    between atoms: N_6  and  C_7
REMARK    5  A    between atoms: C_10  and  O_13
REMARK    6  A    between atoms: O_13  and  C_14
REMARK    7  A    between atoms: C_14  and  C_15
REMARK    8  A    between atoms: C_21  and  N_58
REMARK    9  A    between atoms: C_22  and  C_23
REMARK   10  A    between atoms: C_22  and  N_58
REMARK   11  A    between atoms: N_25  and  C_26
REMARK                            x       y       z     vdW  Elec       q    Type
REMARK                         _______ _______ _______ _____ _____    ______ ____
ROOT
ATOM      1  C   UNL     1       0.161  -0.196  -0.036  0.00  0.00    +0.203 C 
ATOM      2  O   UNL     1       1.227  -0.767  -0.134  0.00  0.00    -0.277 OA
ATOM      3  N   UNL     1       0.115   1.151  -0.042  0.00  0.00    -0.287 N 
ATOM      4  H   UNL     1      -0.741   1.607  -0.035  0.00  0.00    +0.155 HD
ENDROOT
BRANCH   3   5
ATOM      5  C   UNL     1       1.304   1.893  -0.066  0.00  0.00    +0.034 A 
ATOM      6  C   UNL     1       1.382   3.101   0.614  0.00  0.00    +0.027 A 
ATOM      7  C   UNL     1       2.555   3.829   0.595  0.00  0.00    +0.047 A 
ATOM      8  C   UNL     1       3.652   3.358  -0.113  0.00  0.00    +0.121 A 
ATOM      9  C   UNL     1       3.573   2.154  -0.796  0.00  0.00    +0.047 A 
ATOM     10  C   UNL     1       2.402   1.422  -0.773  0.00  0.00    +0.027 A 
BRANCH   8  11
ATOM     11  O   UNL     1       4.806   4.078  -0.135  0.00  0.00    -0.487 OA
BRANCH  11  12
ATOM     12  C   UNL     1       4.817   5.309   0.590  0.00  0.00    +0.264 C 
BRANCH  12  13
ATOM     13  C   UNL     1       6.168   5.962   0.451  0.00  0.00    -0.010 A 
ATOM     14  C   UNL     1       7.166   5.687   1.367  0.00  0.00    +0.007 A 
ATOM     15  C   UNL     1       8.407   6.282   1.236  0.00  0.00    +0.000 A 
ATOM     16  C   UNL     1       8.646   7.160   0.196  0.00  0.00    +0.000 A 
ATOM     17  C   UNL     1       7.646   7.440  -0.717  0.00  0.00    +0.000 A 
ATOM     18  C   UNL     1       6.407   6.840  -0.589  0.00  0.00    +0.007 A 
ENDBRANCH  12  13
ENDBRANCH  11  12
ENDBRANCH   8  11
ENDBRANCH   3   5
BRANCH   1  20
ATOM     19  C   UNL     1      -1.802  -0.640   1.412  0.00  0.00    -0.004 C 
ATOM     20  C   UNL     1      -1.111  -0.993   0.093  0.00  0.00    +0.017 C 
BRANCH  20  22
ATOM     21  C   UNL     1      -0.020  -2.811   1.261  0.00  0.00    -0.094 C 
ATOM     22  N   UNL     1      -0.779  -2.432   0.051  0.00  0.00    +0.391 N 
ATOM     23  H   UNL     1      -0.200  -2.617  -0.777  0.00  0.00    -0.080 HD
BRANCH  22  24
ATOM     24  C   UNL     1      -2.017  -3.234  -0.041  0.00  0.00    +0.020 C 
BRANCH  24  25
ATOM     25  C   UNL     1      -1.647  -4.671  -0.304  0.00  0.00    +0.201 C 
ATOM     26  O   UNL     1      -0.480  -4.992  -0.387  0.00  0.00    -0.278 OA
ATOM     27  N   UNL     1      -2.612  -5.601  -0.446  0.00  0.00    -0.286 N 
ATOM     28  H   UNL     1      -3.545  -5.335  -0.446  0.00  0.00    +0.155 HD
BRANCH  27  29
ATOM     29  C   UNL     1      -2.269  -6.949  -0.595  0.00  0.00    +0.047 A 
ATOM     30  C   UNL     1      -1.119  -7.302  -1.289  0.00  0.00    +0.024 A 
ATOM     31  C   UNL     1      -0.781  -8.634  -1.431  0.00  0.00    +0.002 A 
ATOM     32  C   UNL     1      -1.591  -9.616  -0.890  0.00  0.00    +0.001 A 
ATOM     33  C   UNL     1      -2.740  -9.269  -0.203  0.00  0.00    +0.017 A 
ATOM     34  C   UNL     1      -3.081  -7.938  -0.054  0.00  0.00    +0.039 A 
ATOM     35 BR   UNL     1      -4.653  -7.464   0.885  0.00  0.00    -0.048 Br
ENDBRANCH  27  29
ENDBRANCH  24  25
ENDBRANCH  22  24
ENDBRANCH  20  22
ENDBRANCH   1  20
TORSDOF 9
