REMARK  Name = ZINC39623511
REMARK  8 active torsions:
REMARK  status: ('A' for Active; 'I' for Inactive)
REMARK    1  A    between atoms: C_1  and  C_2
REMARK    2  A    between atoms: C_2  and  C_3
REMARK    3  A    between atoms: C_3  and  C_4
REMARK    4  A    between atoms: C_4  and  C_5
REMARK    5  A    between atoms: C_5  and  N_6
REMARK    6  A    between atoms: C_7  and  C_9
REMARK    7  A    between atoms: C_20  and  C_22
REMARK    8  A    between atoms: C_25  and  C_27
REMARK                            x       y       z     vdW  Elec       q    Type
REMARK                         _______ _______ _______ _____ _____    ______ ____
ROOT
ATOM      1  C   UNL     1       2.078  -6.153  -3.560  0.00  0.00    +0.100 C 
ATOM      2  C   UNL     1       0.639  -6.711  -3.498  0.00  0.00    +0.121 C 
ATOM      3  N   UNL     1       0.271  -6.957  -4.912  0.00  0.00    -0.294 N 
ATOM      4  C   UNL     1       1.508  -7.496  -5.526  0.00  0.00    +0.115 C 
ATOM      5  C   UNL     1       2.646  -6.673  -4.891  0.00  0.00    -0.004 C 
ATOM      6  C   UNL     1       3.021  -5.505  -5.799  0.00  0.00    -0.010 C 
ATOM      7  C   UNL     1       3.636  -6.047  -7.092  0.00  0.00    -0.082 C 
ATOM      8  N   UNL     1       4.825  -6.847  -6.774  0.00  0.00    +0.379 N 
ATOM      9  C   UNL     1       4.442  -8.019  -5.978  0.00  0.00    -0.082 C 
ATOM     10  C   UNL     1       3.861  -7.561  -4.637  0.00  0.00    -0.010 C 
ATOM     11  C   UNL     1      -0.919  -6.739  -5.506  0.00  0.00    +0.282 C 
ATOM     12  O   UNL     1      -1.066  -6.995  -6.687  0.00  0.00    -0.267 OA
ATOM     13  H   UNL     1       5.263  -7.152  -7.630  0.00  0.00    -0.086 HD
ATOM     14  H   UNL     1       5.477  -6.284  -6.248  0.00  0.00    -0.086 HD
ENDROOT
BRANCH  11  15
ATOM     15  C   UNL     1      -2.036  -6.195  -4.731  0.00  0.00    +0.190 A 
ATOM     16  C   UNL     1      -3.301  -5.931  -5.209  0.00  0.00    +0.055 A 
ATOM     17  C   UNL     1      -4.041  -5.425  -4.136  0.00  0.00    +0.050 A 
ATOM     18  C   UNL     1      -3.211  -5.399  -3.052  0.00  0.00    +0.136 A 
ATOM     19  O   UNL     1      -2.008  -5.870  -3.421  0.00  0.00    -0.450 OA
BRANCH  18  20
ATOM     20  C   UNL     1      -3.576  -4.936  -1.699  0.00  0.00    +0.017 A 
ATOM     21  C   UNL     1      -4.870  -4.477  -1.440  0.00  0.00    +0.014 A 
ATOM     22  C   UNL     1      -5.206  -4.046  -0.175  0.00  0.00    +0.039 A 
ATOM     23  C   UNL     1      -4.262  -4.067   0.841  0.00  0.00    +0.123 A 
ATOM     24  C   UNL     1      -2.976  -4.520   0.590  0.00  0.00    +0.039 A 
ATOM     25  C   UNL     1      -2.631  -4.959  -0.671  0.00  0.00    +0.014 A 
ATOM     26  F   UNL     1      -4.597  -3.643   2.079  0.00  0.00    -0.205 F 
ENDBRANCH  18  20
ENDBRANCH  11  15
BRANCH   1  28
ATOM     27  N   UNL     1       3.101  -3.961  -3.043  0.00  0.00    -0.315 N 
ATOM     28  C   UNL     1       2.058  -4.646  -3.552  0.00  0.00    +0.218 C 
ATOM     29  O   UNL     1       1.103  -4.050  -4.003  0.00  0.00    -0.275 OA
ATOM     30  H   UNL     1       3.865  -4.437  -2.683  0.00  0.00    +0.149 HD
BRANCH  27  31
ATOM     31  C   UNL     1       3.081  -2.496  -3.035  0.00  0.00    +0.104 C 
BRANCH  31  32
ATOM     32  C   UNL     1       4.375  -1.972  -2.408  0.00  0.00    +0.019 C 
BRANCH  32  33
ATOM     33  C   UNL     1       4.354  -0.442  -2.400  0.00  0.00    +0.001 C 
BRANCH  33  35
ATOM     34  C   UNL     1       5.627   1.612  -1.764  0.00  0.00    +0.004 C 
ATOM     35  C   UNL     1       5.647   0.082  -1.773  0.00  0.00    -0.003 C 
ENDBRANCH  33  35
ENDBRANCH  32  33
ENDBRANCH  31  32
ENDBRANCH  27  31
ENDBRANCH   1  28
TORSDOF 7
