REMARK  Name = ZINC15868944
REMARK  10 active torsions:
REMARK  status: ('A' for Active; 'I' for Inactive)
REMARK    1  A    between atoms: C_1  and  C_2
REMARK    2  A    between atoms: C_2  and  N_3
REMARK    3  A    between atoms: C_7  and  C_9
REMARK    4  A    between atoms: C_9  and  N_10
REMARK    5  A    between atoms: N_10  and  C_11
REMARK    6  A    between atoms: N_10  and  S_22
REMARK    7  A    between atoms: C_11  and  C_12
REMARK    8  A    between atoms: C_12  and  S_13
REMARK    9  A    between atoms: S_13  and  N_16
REMARK   10  A    between atoms: S_22  and  C_25
REMARK                            x       y       z     vdW  Elec       q    Type
REMARK                         _______ _______ _______ _____ _____    ______ ____
ROOT
ATOM      1  N   UNL     1      -1.655  -1.643   2.515  0.00  0.00    -0.177 NA
ENDROOT
BRANCH   1   2
ATOM      2  S   UNL     1      -0.420  -2.079   3.528  0.00  0.00    +0.061 S 
ATOM      3  O   UNL     1      -0.522  -1.246   4.675  0.00  0.00    -0.153 OA
ATOM      4  O   UNL     1      -0.445  -3.497   3.611  0.00  0.00    -0.153 OA
BRANCH   2   5
ATOM      5  C   UNL     1       1.089  -1.648   2.726  0.00  0.00    +0.106 A 
ATOM      6  C   UNL     1       1.717  -2.557   1.895  0.00  0.00    +0.029 A 
ATOM      7  C   UNL     1       2.899  -2.213   1.273  0.00  0.00    +0.006 A 
ATOM      8  C   UNL     1       3.464  -0.960   1.473  0.00  0.00    -0.044 A 
ATOM      9  C   UNL     1       2.836  -0.053   2.297  0.00  0.00    -0.042 A 
ATOM     10  C   UNL     1       1.644  -0.401   2.921  0.00  0.00    +0.032 A 
ATOM     11  C   UNL     1       3.382   1.328   2.547  0.00  0.00    +0.035 C 
ATOM     12  C   UNL     1       4.857   1.402   2.157  0.00  0.00    +0.005 C 
ATOM     13  C   UNL     1       5.009   0.852   0.734  0.00  0.00    +0.005 C 
ATOM     14  C   UNL     1       4.760  -0.654   0.769  0.00  0.00    +0.035 C 
ENDBRANCH   2   5
ENDBRANCH   1   2
BRANCH   1  15
ATOM     15  C   UNL     1      -2.277  -2.644   1.645  0.00  0.00    +0.094 C 
BRANCH  15  20
ATOM     16  N   UNL     1      -3.357  -3.714   3.578  0.00  0.00    +0.382 N 
ATOM     17  C   UNL     1      -3.802  -5.123   3.531  0.00  0.00    -0.078 C 
ATOM     18  C   UNL     1      -4.856  -5.168   2.397  0.00  0.00    -0.020 C 
ATOM     19  C   UNL     1      -4.250  -4.179   1.367  0.00  0.00    -0.016 C 
ATOM     20  C   UNL     1      -3.601  -3.101   2.260  0.00  0.00    -0.053 C 
ATOM     21  H   UNL     1      -2.372  -3.678   3.792  0.00  0.00    -0.081 HD
BRANCH  16  23
ATOM     22  C   UNL     1      -3.762  -3.551   5.988  0.00  0.00    -0.017 C 
ATOM     23  C   UNL     1      -4.115  -2.991   4.608  0.00  0.00    -0.082 C 
ENDBRANCH  16  23
ENDBRANCH  15  20
ENDBRANCH   1  15
BRANCH   1  24
ATOM     24  C   UNL     1      -2.125  -0.255   2.489  0.00  0.00    +0.133 C 
BRANCH  24  25
ATOM     25  C   UNL     1      -3.304  -0.098   3.452  0.00  0.00    +0.202 C 
BRANCH  25  26
ATOM     26  S   UNL     1      -3.886   1.620   3.419  0.00  0.00    +0.033 S 
ATOM     27  O   UNL     1      -2.905   2.480   3.982  0.00  0.00    -0.158 OA
ATOM     28  O   UNL     1      -4.471   1.914   2.158  0.00  0.00    -0.158 OA
BRANCH  26  29
ATOM     29  N   UNL     1      -5.148   1.661   4.490  0.00  0.00    -0.185 NA
ATOM     30  C   UNL     1      -6.524   1.385   4.049  0.00  0.00    +0.090 C 
ATOM     31  C   UNL     1      -7.133   0.337   4.985  0.00  0.00    -0.065 C 
ATOM     32  N   UNL     1      -7.024   0.799   6.374  0.00  0.00    +0.381 N 
ATOM     33  C   UNL     1      -5.610   0.898   6.758  0.00  0.00    -0.065 C 
ATOM     34  C   UNL     1      -4.925   1.969   5.911  0.00  0.00    +0.090 C 
ATOM     35  H   UNL     1      -7.459   1.706   6.461  0.00  0.00    -0.086 HD
ATOM     36  H   UNL     1      -7.492   0.145   6.983  0.00  0.00    -0.086 HD
ENDBRANCH  26  29
ENDBRANCH  25  26
ENDBRANCH  24  25
ENDBRANCH   1  24
TORSDOF 9
