REMARK  Name = ZINC40000389
REMARK  10 active torsions:
REMARK  status: ('A' for Active; 'I' for Inactive)
REMARK    1  A    between atoms: C_1  and  C_2
REMARK    2  A    between atoms: C_2  and  S_3
REMARK    3  A    between atoms: S_3  and  C_4
REMARK    4  A    between atoms: C_10  and  C_30
REMARK    5  A    between atoms: C_12  and  C_17
REMARK    6  A    between atoms: C_17  and  C_19
REMARK    7  A    between atoms: C_26  and  C_29
REMARK    8  A    between atoms: C_33  and  N_36
REMARK    9  A    between atoms: N_36  and  C_37
REMARK   10  A    between atoms: N_36  and  C_38
REMARK                            x       y       z     vdW  Elec       q    Type
REMARK                         _______ _______ _______ _____ _____    ______ ____
ROOT
ATOM      1  C   UNL     1       0.908  -2.650  -0.667  0.00  0.00    +0.160 A 
ATOM      2  N   UNL     1       0.673  -3.686  -1.460  0.00  0.00    -0.133 NA
ATOM      3  N   UNL     1       0.719  -4.873  -1.036  0.00  0.00    -0.125 NA
ATOM      4  C   UNL     1       1.005  -5.157   0.225  0.00  0.00    +0.192 A 
ATOM      5  S   UNL     1       1.242  -3.503   0.871  0.00  0.00    -0.024 S 
ATOM      6  N   UNL     1       1.100  -6.387   0.865  0.00  0.00    -0.230 N 
ATOM      7  C   UNL     1       0.899  -7.701   0.243  0.00  0.00    +0.152 C 
ATOM      8  C   UNL     1       1.109  -8.721   1.338  0.00  0.00    +0.077 C 
ATOM      9  C   UNL     1       1.401  -8.030   2.465  0.00  0.00    +0.250 C 
ATOM     10  C   UNL     1       1.399  -6.585   2.162  0.00  0.00    +0.293 C 
ATOM     11  O   UNL     1       1.630  -5.703   2.966  0.00  0.00    -0.266 OA
ATOM     12  O   UNL     1       1.659  -8.576   3.676  0.00  0.00    -0.282 OA
ENDROOT
BRANCH   7  13
ATOM     13  C   UNL     1       1.902  -7.911  -0.862  0.00  0.00    -0.022 A 
ATOM     14  C   UNL     1       3.224  -7.554  -0.670  0.00  0.00    +0.007 A 
ATOM     15  C   UNL     1       4.146  -7.745  -1.681  0.00  0.00    +0.023 A 
ATOM     16  C   UNL     1       3.744  -8.296  -2.891  0.00  0.00    +0.029 A 
ATOM     17  C   UNL     1       2.414  -8.653  -3.080  0.00  0.00    +0.023 A 
ATOM     18  C   UNL     1       1.499  -8.465  -2.063  0.00  0.00    +0.007 A 
BRANCH  16  19
ATOM     19  N   UNL     1       4.673  -8.489  -3.916  0.00  0.00    -0.336 N 
ATOM     20  C   UNL     1       6.074  -8.112  -3.715  0.00  0.00    +0.129 C 
ATOM     21  C   UNL     1       4.247  -9.071  -5.191  0.00  0.00    +0.129 C 
ENDBRANCH  16  19
ENDBRANCH   7  13
BRANCH   8  22
ATOM     22  C   UNL     1       1.015 -10.178   1.206  0.00  0.00    +0.195 C 
ATOM     23  O   UNL     1       2.000 -10.870   1.388  0.00  0.00    -0.287 OA
BRANCH  22  24
ATOM     24  C   UNL     1      -0.273 -10.805   0.851  0.00  0.00    +0.023 A 
ATOM     25  C   UNL     1      -1.431 -10.028   0.749  0.00  0.00    +0.015 A 
ATOM     26  C   UNL     1      -2.629 -10.613   0.414  0.00  0.00    +0.046 A 
ATOM     27  C   UNL     1      -2.703 -11.986   0.174  0.00  0.00    +0.124 A 
ATOM     28  C   UNL     1      -1.548 -12.756   0.285  0.00  0.00    -0.002 A 
ATOM     29  C   UNL     1      -0.344 -12.181   0.609  0.00  0.00    +0.019 A 
ATOM     30  C   UNL     1      -1.943 -14.192  -0.005  0.00  0.00    +0.083 C 
ATOM     31  C   UNL     1      -3.484 -14.129   0.114  0.00  0.00    +0.175 C 
ATOM     32  O   UNL     1      -3.771 -12.751  -0.177  0.00  0.00    -0.488 OA
ATOM     33  C   UNL     1      -4.145 -15.053  -0.911  0.00  0.00    +0.052 C 
ENDBRANCH  22  24
ENDBRANCH   8  22
BRANCH   1  34
ATOM     34  S   UNL     1       0.902  -0.925  -1.027  0.00  0.00    -0.097 S 
BRANCH  34  36
ATOM     35  C   UNL     1       0.436   0.616  -3.239  0.00  0.00    +0.016 C 
ATOM     36  C   UNL     1       0.477  -0.846  -2.789  0.00  0.00    +0.073 C 
ENDBRANCH  34  36
ENDBRANCH   1  34
TORSDOF 6
