REMARK  Name = ZINC23442418
REMARK  11 active torsions:
REMARK  status: ('A' for Active; 'I' for Inactive)
REMARK    1  A    between atoms: C_1  and  C_2
REMARK    2  A    between atoms: C_4  and  C_8
REMARK    3  A    between atoms: C_5  and  C_7
REMARK    4  A    between atoms: N_13  and  C_16
REMARK    5  A    between atoms: C_16  and  C_17
REMARK    6  A    between atoms: C_17  and  C_19
REMARK    7  A    between atoms: C_17  and  O_30
REMARK    8  A    between atoms: C_23  and  N_25
REMARK    9  A    between atoms: O_30  and  C_31
REMARK   10  A    between atoms: C_31  and  C_32
REMARK   11  A    between atoms: C_35  and  C_38
REMARK                            x       y       z     vdW  Elec       q    Type
REMARK                         _______ _______ _______ _____ _____    ______ ____
ROOT
ATOM      1  C   UNL     1      -1.713  -1.239   3.363  0.00  0.00    +0.132 C 
ENDROOT
BRANCH   1   2
ATOM      2  C   UNL     1      -1.731  -2.070   4.620  0.00  0.00    -0.019 A 
ATOM      3  C   UNL     1      -0.646  -2.047   5.479  0.00  0.00    +0.006 A 
ATOM      4  C   UNL     1      -0.661  -2.804   6.636  0.00  0.00    +0.002 A 
ATOM      5  C   UNL     1      -1.755  -3.594   6.933  0.00  0.00    +0.023 A 
ATOM      6  C   UNL     1      -2.842  -3.623   6.070  0.00  0.00    +0.030 A 
ATOM      7  C   UNL     1      -2.827  -2.858   4.911  0.00  0.00    +0.029 A 
BRANCH   6   8
ATOM      8  N   UNL     1      -3.950  -4.422   6.367  0.00  0.00    -0.330 N 
ATOM      9  C   UNL     1      -3.580  -5.860   6.381  0.00  0.00    +0.105 C 
ATOM     10  C   UNL     1      -4.716  -6.510   7.210  0.00  0.00    +0.020 C 
ATOM     11  C   UNL     1      -4.998  -5.450   8.300  0.00  0.00    +0.020 C 
ATOM     12  C   UNL     1      -4.469  -4.125   7.719  0.00  0.00    +0.105 C 
ENDBRANCH   6   8
ENDBRANCH   1   2
BRANCH   1  13
ATOM     13  C   UNL     1      -0.995  -2.010   2.253  0.00  0.00    -0.042 C 
BRANCH  13  19
ATOM     14  C   UNL     1      -1.709  -0.674  -2.958  0.00  0.00    +0.250 C 
ATOM     15  O   UNL     1      -2.856  -0.486  -3.314  0.00  0.00    -0.270 OA
ATOM     16  N   UNL     1      -1.375  -0.537  -1.659  0.00  0.00    -0.301 N 
ATOM     17  C   UNL     1      -2.360  -0.071  -0.672  0.00  0.00    +0.089 C 
ATOM     18  C   UNL     1      -2.371  -1.052   0.505  0.00  0.00    -0.059 C 
ATOM     19  N   UNL     1      -1.004  -1.212   1.019  0.00  0.00    +0.384 N 
ATOM     20  C   UNL     1      -0.119  -1.800   0.005  0.00  0.00    -0.059 C 
ATOM     21  C   UNL     1      -0.016  -0.850  -1.192  0.00  0.00    +0.089 C 
ATOM     22  H   UNL     1      -0.618  -0.211   1.259  0.00  0.00    -0.082 HD
BRANCH  14  26
ATOM     23  C   UNL     1       2.746  -1.271  -5.372  0.00  0.00    +0.086 C 
ATOM     24  C   UNL     1       1.287  -1.305  -4.995  0.00  0.00    +0.103 A 
ATOM     25  C   UNL     1       0.758  -0.771  -3.883  0.00  0.00    +0.057 A 
ATOM     26  C   UNL     1      -0.683  -1.052  -3.947  0.00  0.00    +0.078 A 
ATOM     27  C   UNL     1      -0.874  -1.730  -5.115  0.00  0.00    +0.114 A 
ATOM     28  O   UNL     1       0.309  -1.869  -5.720  0.00  0.00    -0.464 OA
ATOM     29  C   UNL     1      -2.195  -2.237  -5.634  0.00  0.00    +0.087 C 
ENDBRANCH  14  26
ENDBRANCH  13  19
ENDBRANCH   1  13
BRANCH   1  30
ATOM     30  O   UNL     1      -1.024  -0.012   3.613  0.00  0.00    -0.369 OA
BRANCH  30  31
ATOM     31  C   UNL     1      -1.873   1.052   4.048  0.00  0.00    +0.195 C 
BRANCH  31  32
ATOM     32  C   UNL     1      -1.066   2.319   4.172  0.00  0.00    -0.022 A 
ATOM     33  C   UNL     1      -0.372   2.583   5.340  0.00  0.00    +0.007 A 
ATOM     34  C   UNL     1       0.372   3.738   5.458  0.00  0.00    +0.019 A 
ATOM     35  C   UNL     1       0.416   4.648   4.399  0.00  0.00    +0.052 A 
ATOM     36  C   UNL     1      -0.291   4.378   3.225  0.00  0.00    +0.019 A 
ATOM     37  C   UNL     1      -1.027   3.216   3.119  0.00  0.00    +0.007 A 
BRANCH  35  38
ATOM     38  C   UNL     1       1.182   5.852   4.516  0.00  0.00    +0.099 C 
ATOM     39  N   UNL     1       1.790   6.807   4.610  0.00  0.00    -0.191 NA
ENDBRANCH  35  38
ENDBRANCH  31  32
ENDBRANCH  30  31
ENDBRANCH   1  30
TORSDOF 9
