REMARK  Name = ZINC66444038
REMARK  7 active torsions:
REMARK  status: ('A' for Active; 'I' for Inactive)
REMARK    1  A    between atoms: C_1  and  C_2
REMARK    2  A    between atoms: C_5  and  C_9
REMARK    3  A    between atoms: C_6  and  C_8
REMARK    4  A    between atoms: C_9  and  C_10
REMARK    5  A    between atoms: C_10  and  C_12
REMARK    6  A    between atoms: C_10  and  N_13
REMARK    7  A    between atoms: C_14  and  C_16
REMARK                            x       y       z     vdW  Elec       q    Type
REMARK                         _______ _______ _______ _____ _____    ______ ____
ROOT
ATOM      1  N   UNL     1      -2.143  -4.420  -1.074  0.00  0.00    -0.307 N 
ATOM      2  C   UNL     1      -3.484  -4.311  -0.997  0.00  0.00    +0.265 C 
ATOM      3  O   UNL     1      -4.053  -4.532   0.055  0.00  0.00    -0.268 OA
ATOM      4  H   UNL     1      -1.690  -4.245  -1.914  0.00  0.00    +0.149 HD
ENDROOT
BRANCH   2   5
ATOM      5  C   UNL     1      -4.263  -3.924  -2.190  0.00  0.00    +0.153 A 
ATOM      6  C   UNL     1      -5.728  -3.796  -2.114  0.00  0.00    +0.020 A 
ATOM      7  C   UNL     1      -6.444  -4.027  -0.944  0.00  0.00    +0.011 A 
ATOM      8  C   UNL     1      -7.816  -3.888  -0.952  0.00  0.00    +0.001 A 
ATOM      9  C   UNL     1      -8.486  -3.521  -2.112  0.00  0.00    +0.001 A 
ATOM     10  C   UNL     1      -7.795  -3.288  -3.282  0.00  0.00    +0.014 A 
ATOM     11  C   UNL     1      -6.411  -3.422  -3.294  0.00  0.00    +0.050 A 
ATOM     12  C   UNL     1      -5.597  -3.193  -4.496  0.00  0.00    +0.272 A 
ATOM     13  O   UNL     1      -6.117  -2.868  -5.548  0.00  0.00    -0.266 OA
ATOM     14  N   UNL     1      -4.260  -3.351  -4.407  0.00  0.00    -0.242 N 
ATOM     15  H   UNL     1      -3.726  -3.198  -5.202  0.00  0.00    +0.192 HD
ATOM     16  N   UNL     1      -3.659  -3.685  -3.328  0.00  0.00    -0.166 NA
ENDBRANCH   2   5
BRANCH   1  17
ATOM     17  C   UNL     1      -1.370  -4.804   0.109  0.00  0.00    +0.074 C 
ATOM     18  C   UNL     1      -1.341  -6.330   0.226  0.00  0.00    +0.028 C 
BRANCH  17  19
ATOM     19  C   UNL     1       0.059  -4.275  -0.021  0.00  0.00    +0.057 C 
BRANCH  19  24
ATOM     20  C   UNL     1      -0.018   1.503   0.010  0.00  0.00    +0.044 C 
ATOM     21  C   UNL     1       0.002  -0.004   0.002  0.00  0.00    -0.050 A 
ATOM     22  C   UNL     1       0.006  -0.689  -1.199  0.00  0.00    +0.003 A 
ATOM     23  C   UNL     1       0.025  -2.071  -1.207  0.00  0.00    +0.004 A 
ATOM     24  C   UNL     1       0.040  -2.768  -0.013  0.00  0.00    -0.043 A 
ATOM     25  C   UNL     1       0.037  -2.084   1.188  0.00  0.00    -0.047 A 
ATOM     26  C   UNL     1       0.023  -0.702   1.195  0.00  0.00    +0.007 A 
ATOM     27  C   UNL     1       0.054  -2.845   2.489  0.00  0.00    +0.044 C 
ENDBRANCH  19  24
ENDBRANCH  17  19
ENDBRANCH   1  17
TORSDOF 4
