REMARK  Name = ZINC03821115
REMARK  8 active torsions:
REMARK  status: ('A' for Active; 'I' for Inactive)
REMARK    1  A    between atoms: C_4  and  C_7
REMARK    2  A    between atoms: C_7  and  C_31
REMARK    3  A    between atoms: N_12  and  C_15
REMARK    4  A    between atoms: C_15  and  C_16
REMARK    5  A    between atoms: C_16  and  C_17
REMARK    6  A    between atoms: C_17  and  C_18
REMARK    7  A    between atoms: C_18  and  N_69
REMARK    8  A    between atoms: N_21  and  C_24
REMARK                            x       y       z     vdW  Elec       q    Type
REMARK                         _______ _______ _______ _____ _____    ______ ____
ROOT
ATOM      1  C   UNL     1       9.395  -3.354   5.867  0.00  0.00    -0.002 C 
ATOM      2  C   UNL     1       8.701  -2.236   5.512  0.00  0.00    +0.032 C 
ATOM      3  C   UNL     1       8.499  -0.975   6.332  0.00  0.00    +0.137 C 
ATOM      4  C   UNL     1       7.662  -0.097   5.426  0.00  0.00    +0.227 C 
ATOM      5  O   UNL     1       7.263   1.021   5.674  0.00  0.00    -0.275 OA
ATOM      6  N   UNL     1       7.442  -0.789   4.295  0.00  0.00    -0.238 N 
ATOM      7  C   UNL     1       8.011  -1.999   4.299  0.00  0.00    +0.250 C 
ATOM      8  O   UNL     1       7.946  -2.793   3.378  0.00  0.00    -0.270 OA
ENDROOT
BRANCH   1  12
ATOM      9  C   UNL     1       9.655  -6.635   3.182  0.00  0.00    +0.000 A 
ATOM     10  C   UNL     1      10.797  -5.933   3.523  0.00  0.00    +0.001 A 
ATOM     11  C   UNL     1      10.720  -4.866   4.394  0.00  0.00    +0.008 A 
ATOM     12  C   UNL     1       9.485  -4.496   4.932  0.00  0.00    -0.017 A 
ATOM     13  C   UNL     1       8.337  -5.212   4.587  0.00  0.00    +0.008 A 
ATOM     14  C   UNL     1       8.428  -6.274   3.711  0.00  0.00    +0.001 A 
ENDBRANCH   1  12
BRANCH   1  15
ATOM     15  C   UNL     1      10.057  -3.425   7.186  0.00  0.00    -0.017 A 
ATOM     16  C   UNL     1      11.117  -2.567   7.486  0.00  0.00    +0.008 A 
ATOM     17  C   UNL     1      11.728  -2.635   8.721  0.00  0.00    +0.001 A 
ATOM     18  C   UNL     1      11.300  -3.559   9.658  0.00  0.00    +0.000 A 
ATOM     19  C   UNL     1      10.254  -4.417   9.365  0.00  0.00    +0.001 A 
ATOM     20  C   UNL     1       9.630  -4.355   8.136  0.00  0.00    +0.008 A 
ENDBRANCH   1  15
BRANCH   6  21
ATOM     21  C   UNL     1       6.662  -0.268   3.170  0.00  0.00    +0.116 C 
BRANCH  21  22
ATOM     22  C   UNL     1       5.191  -0.650   3.349  0.00  0.00    +0.018 C 
BRANCH  22  23
ATOM     23  C   UNL     1       4.376  -0.106   2.173  0.00  0.00    -0.017 C 
BRANCH  23  24
ATOM     24  C   UNL     1       2.905  -0.488   2.352  0.00  0.00    -0.079 C 
BRANCH  24  30
ATOM     25  C   UNL     1       0.757  -0.508   1.234  0.00  0.00    -0.060 C 
ATOM     26  C   UNL     1       0.002  -0.004   0.002  0.00  0.00    +0.086 C 
ATOM     27  N   UNL     1      -0.018   1.465   0.010  0.00  0.00    -0.333 N 
ATOM     28  C   UNL     1       1.348   2.008   0.000  0.00  0.00    +0.086 C 
ATOM     29  C   UNL     1       2.103   1.504   1.232  0.00  0.00    -0.060 C 
ATOM     30  N   UNL     1       2.135   0.026   1.200  0.00  0.00    +0.382 N 
ATOM     31  H   UNL     1       2.590  -0.279   0.332  0.00  0.00    -0.082 HD
BRANCH  27  32
ATOM     32  C   UNL     1      -0.762   1.962  -1.064  0.00  0.00    +0.030 A 
ATOM     33  C   UNL     1      -1.356   1.086  -1.963  0.00  0.00    +0.026 A 
ATOM     34  C   UNL     1      -2.095   1.579  -3.021  0.00  0.00    +0.040 A 
ATOM     35  C   UNL     1      -2.235   2.946  -3.191  0.00  0.00    +0.124 A 
ATOM     36  C   UNL     1      -1.640   3.822  -2.299  0.00  0.00    +0.040 A 
ATOM     37  C   UNL     1      -0.904   3.333  -1.237  0.00  0.00    +0.026 A 
ATOM     38  F   UNL     1      -2.955   3.426  -4.229  0.00  0.00    -0.205 F 
ENDBRANCH  27  32
ENDBRANCH  24  30
ENDBRANCH  23  24
ENDBRANCH  22  23
ENDBRANCH  21  22
ENDBRANCH   6  21
TORSDOF 8
