REMARK  Name = ZINC05032169
REMARK  7 active torsions:
REMARK  status: ('A' for Active; 'I' for Inactive)
REMARK    1  A    between atoms: C_1  and  C_2
REMARK    2  A    between atoms: C_2  and  C_3
REMARK    3  A    between atoms: C_2  and  C_4
REMARK    4  A    between atoms: C_2  and  C_5
REMARK    5  A    between atoms: C_8  and  N_57
REMARK    6  A    between atoms: C_11  and  N_57
REMARK    7  A    between atoms: C_23  and  N_26
REMARK                            x       y       z     vdW  Elec       q    Type
REMARK                         _______ _______ _______ _____ _____    ______ ____
ROOT
ATOM      1  C   UNL     1      -1.200  -0.919   0.009  0.00  0.00    -0.023 C 
ATOM      2  C   UNL     1      -0.743  -2.324   0.417  0.00  0.00    -0.009 C 
ATOM      3  C   UNL     1       0.461  -2.735  -0.435  0.00  0.00    +0.003 C 
ATOM      4  C   UNL     1       1.679  -1.897  -0.027  0.00  0.00    +0.037 C 
ATOM      5  C   UNL     1       1.279  -0.444  -0.013  0.00  0.00    -0.021 A 
ATOM      6  C   UNL     1       0.002  -0.004   0.002  0.00  0.00    +0.006 A 
ATOM      7  N   UNL     1      -0.017   1.366   0.010  0.00  0.00    -0.359 N 
ATOM      8  H   UNL     1      -0.818   1.913   0.016  0.00  0.00    +0.166 HD
ATOM      9  C   UNL     1       1.262   1.846  -0.000  0.00  0.00    +0.047 A 
ATOM     10  C   UNL     1       2.133   0.726  -0.014  0.00  0.00    +0.005 A 
ATOM     11  C   UNL     1       3.521   0.886  -0.026  0.00  0.00    +0.043 A 
ATOM     12  C   UNL     1       3.997   2.175  -0.024  0.00  0.00    +0.127 A 
ATOM     13  C   UNL     1       3.152   3.271  -0.011  0.00  0.00    +0.035 A 
ATOM     14  C   UNL     1       1.773   3.142   0.001  0.00  0.00    +0.028 A 
ENDROOT
BRANCH  12  15
ATOM     15  N   UNL     1       5.460   2.398  -0.036  0.00  0.00    +0.056 N 
ATOM     16  O   UNL     1       6.221   1.447  -0.047  0.00  0.00    -0.126 OA
ATOM     17  O   UNL     1       5.903   3.532  -0.035  0.00  0.00    -0.126 OA
ENDBRANCH  12  15
BRANCH   1  18
ATOM     18  N   UNL     1      -2.189  -0.417   0.983  0.00  0.00    +0.386 N 
ATOM     19  H   UNL     1      -1.952  -0.770   1.918  0.00  0.00    -0.085 HD
ATOM     20  H   UNL     1      -2.168   0.609   0.988  0.00  0.00    -0.085 HD
BRANCH  18  24
ATOM     21  C   UNL     1      -5.098   1.462   1.461  0.00  0.00    -0.006 C 
ATOM     22  C   UNL     1      -4.490   0.497   2.481  0.00  0.00    +0.002 C 
ATOM     23  C   UNL     1      -4.416  -0.906   1.875  0.00  0.00    -0.015 C 
ATOM     24  C   UNL     1      -3.543  -0.875   0.619  0.00  0.00    -0.071 C 
ATOM     25  C   UNL     1      -4.151   0.090  -0.401  0.00  0.00    -0.015 C 
ATOM     26  C   UNL     1      -4.224   1.493   0.205  0.00  0.00    +0.002 C 
BRANCH  21  28
ATOM     27  C   UNL     1      -3.763   3.334   2.436  0.00  0.00    +0.011 C 
ATOM     28  C   UNL     1      -5.171   2.865   2.066  0.00  0.00    -0.035 C 
ATOM     29  C   UNL     1      -5.779   3.829   1.046  0.00  0.00    +0.011 C 
ATOM     30  C   UNL     1      -6.044   2.833   3.322  0.00  0.00    +0.011 C 
ENDBRANCH  21  28
ENDBRANCH  18  24
ENDBRANCH   1  18
TORSDOF 4
