REMARK  Name = ZINC48333890
REMARK  4 active torsions:
REMARK  status: ('A' for Active; 'I' for Inactive)
REMARK    1  A    between atoms: C_3  and  O_14
REMARK    2  A    between atoms: C_4  and  C_8
REMARK    3  A    between atoms: O_14  and  C_15
REMARK    4  A    between atoms: C_15  and  C_16
REMARK                            x       y       z     vdW  Elec       q    Type
REMARK                         _______ _______ _______ _____ _____    ______ ____
ROOT
ATOM      1  C   UNL     1      -0.017   1.379   0.010  0.00  0.00    +0.023 A 
ATOM      2  C   UNL     1       1.170   2.087   0.002  0.00  0.00    +0.047 A 
ATOM      3  C   UNL     1       2.380   1.410  -0.013  0.00  0.00    +0.125 A 
ATOM      4  C   UNL     1       2.397   0.023  -0.021  0.00  0.00    -0.001 A 
ATOM      5  C   UNL     1       1.209  -0.681  -0.013  0.00  0.00    +0.027 A 
ATOM      6  C   UNL     1       0.002  -0.004   0.002  0.00  0.00    +0.041 A 
ATOM      7 CL   UNL     1      -1.490  -0.891   0.011  0.00  0.00    -0.084 Cl
ENDROOT
BRANCH   4   8
ATOM      8  C   UNL     1       3.711  -0.715  -0.038  0.00  0.00    +0.023 C 
ATOM      9  C   UNL     1       3.790  -1.587  -1.292  0.00  0.00    +0.008 C 
ATOM     10  C   UNL     1       5.123  -2.337  -1.310  0.00  0.00    +0.001 C 
ATOM     11  C   UNL     1       5.227  -3.222  -0.066  0.00  0.00    +0.000 C 
ATOM     12  C   UNL     1       5.148  -2.350   1.189  0.00  0.00    +0.001 C 
ATOM     13  C   UNL     1       3.814  -1.601   1.206  0.00  0.00    +0.008 C 
ENDBRANCH   4   8
BRANCH   3  14
ATOM     14  O   UNL     1       3.549   2.105  -0.021  0.00  0.00    -0.482 OA
BRANCH  14  15
ATOM     15  C   UNL     1       3.455   3.531  -0.013  0.00  0.00    +0.324 C 
BRANCH  15  16
ATOM     16  C   UNL     1       4.840   4.125  -0.023  0.00  0.00    +0.254 C 
ATOM     17  O   UNL     1       5.812   3.398  -0.036  0.00  0.00    -0.272 OA
ATOM     18  N   UNL     1       5.000   5.463  -0.018  0.00  0.00    -0.288 N 
ATOM     19  C   UNL     1       6.339   6.075  -0.034  0.00  0.00    +0.127 C 
ATOM     20  C   UNL     1       6.467   6.911  -1.309  0.00  0.00    +0.123 C 
ATOM     21  N   UNL     1       5.286   7.743  -1.502  0.00  0.00    -0.313 N 
ATOM     22  C   UNL     1       4.092   7.500  -0.960  0.00  0.00    +0.230 C 
ATOM     23  O   UNL     1       3.164   8.221  -1.258  0.00  0.00    -0.274 OA
ATOM     24  C   UNL     1       3.844   6.371  -0.002  0.00  0.00    +0.203 C 
ATOM     25  H   UNL     1       5.375   8.529  -2.063  0.00  0.00    +0.149 HD
ENDBRANCH  15  16
ENDBRANCH  14  15
ENDBRANCH   3  14
TORSDOF 4
