REMARK  Name = ZINC12371975
REMARK  6 active torsions:
REMARK  status: ('A' for Active; 'I' for Inactive)
REMARK    1  A    between atoms: C_1  and  N_2
REMARK    2  A    between atoms: C_11  and  C_25
REMARK    3  A    between atoms: C_13  and  C_21
REMARK    4  A    between atoms: C_13  and  C_23
REMARK    5  A    between atoms: C_14  and  N_20
REMARK    6  A    between atoms: C_15  and  C_18
REMARK                            x       y       z     vdW  Elec       q    Type
REMARK                         _______ _______ _______ _____ _____    ______ ____
ROOT
ATOM      1  C   UNL     1       3.423   0.907  -1.191  0.00  0.00    +0.105 C 
ATOM      2  N   UNL     1       1.998   0.952  -0.954  0.00  0.00    -0.295 NA
ATOM      3  C   UNL     1       1.423  -0.309  -0.418  0.00  0.00    +0.080 C 
ATOM      4  C   UNL     1      -0.032   0.080  -0.066  0.00  0.00    +0.024 C 
ATOM      5  C   UNL     1      -0.033   1.627  -0.021  0.00  0.00    +0.021 C 
ATOM      6  C   UNL     1       1.493   1.976  -0.024  0.00  0.00    +0.065 C 
ATOM      7  C   UNL     1       1.935   1.767   1.414  0.00  0.00    +0.047 C 
ATOM      8  C   UNL     1       2.887   2.818   1.946  0.00  0.00    +0.069 C 
ATOM      9  C   UNL     1       3.112   2.622   3.448  0.00  0.00    +0.188 C 
ATOM     10  C   UNL     1       3.413   1.198   3.791  0.00  0.00    +0.054 C 
ATOM     11  C   UNL     1       3.113   0.140   2.990  0.00  0.00    +0.074 C 
ATOM     12  C   UNL     1       2.418   0.376   1.706  0.00  0.00    -0.026 C 
ATOM     13  C   UNL     1       2.189  -0.612   0.853  0.00  0.00    -0.003 C 
ENDROOT
BRANCH   8  14
ATOM     14  C   UNL     1       4.224   2.790   1.252  0.00  0.00    -0.022 A 
ATOM     15  C   UNL     1       5.061   1.701   1.407  0.00  0.00    +0.005 A 
ATOM     16  C   UNL     1       6.285   1.672   0.766  0.00  0.00    +0.000 A 
ATOM     17  C   UNL     1       6.678   2.738  -0.023  0.00  0.00    +0.001 A 
ATOM     18  C   UNL     1       5.845   3.830  -0.175  0.00  0.00    +0.020 A 
ATOM     19  C   UNL     1       4.617   3.856   0.463  0.00  0.00    +0.045 A 
ATOM     20 CL   UNL     1       3.569   5.228   0.273  0.00  0.00    -0.083 Cl
ENDBRANCH   8  14
BRANCH  10  21
ATOM     21  N   UNL     1       4.038   0.939   4.980  0.00  0.00    -0.358 N 
ATOM     22  H   UNL     1       4.274  -0.097   5.263  0.00  0.00    +0.142 HD
ATOM     23  H   UNL     1       4.304   1.768   5.652  0.00  0.00    +0.142 HD
ENDBRANCH  10  21
BRANCH  11  24
ATOM     24  C   UNL     1       3.474  -1.182   3.413  0.00  0.00    +0.101 C 
ATOM     25  N   UNL     1       3.760  -2.229   3.747  0.00  0.00    -0.191 NA
ENDBRANCH  11  24
BRANCH   9  26
ATOM     26  C   UNL     1       1.925   3.068   4.191  0.00  0.00    +0.091 C 
ATOM     27  N   UNL     1       1.008   3.413   4.765  0.00  0.00    -0.194 NA
ENDBRANCH   9  26
BRANCH   9  28
ATOM     28  C   UNL     1       4.260   3.455   3.857  0.00  0.00    +0.091 C 
ATOM     29  N   UNL     1       5.144   4.095   4.173  0.00  0.00    -0.194 NA
ENDBRANCH   9  28
TORSDOF 5
