REMARK  Name = ZINC32901281
REMARK  11 active torsions:
REMARK  status: ('A' for Active; 'I' for Inactive)
REMARK    1  A    between atoms: C_1  and  C_2
REMARK    2  A    between atoms: C_3  and  C_27
REMARK    3  A    between atoms: C_4  and  S_11
REMARK    4  A    between atoms: C_6  and  C_7
REMARK    5  A    between atoms: C_7  and  O_9
REMARK    6  A    between atoms: O_9  and  C_10
REMARK    7  A    between atoms: S_11  and  N_14
REMARK    8  A    between atoms: N_14  and  C_15
REMARK    9  A    between atoms: C_20  and  C_23
REMARK   10  A    between atoms: C_27  and  O_29
REMARK   11  A    between atoms: O_29  and  C_30
REMARK                            x       y       z     vdW  Elec       q    Type
REMARK                         _______ _______ _______ _____ _____    ______ ____
ROOT
ATOM      1  S   UNL     1       4.654   0.663  -1.984  0.00  0.00    +0.066 S 
ATOM      2  O   UNL     1       5.992   1.132  -1.890  0.00  0.00    -0.153 OA
ATOM      3  O   UNL     1       4.238  -0.571  -1.415  0.00  0.00    -0.153 OA
ENDROOT
BRANCH   1   7
ATOM      4  C   UNL     1       5.003  -0.871  -7.111  0.00  0.00    +0.046 C 
ATOM      5  C   UNL     1       4.395  -0.076  -5.984  0.00  0.00    -0.013 A 
ATOM      6  C   UNL     1       4.883  -0.176  -4.689  0.00  0.00    +0.096 A 
ATOM      7  C   UNL     1       4.269   0.581  -3.701  0.00  0.00    +0.157 A 
ATOM      8  S   UNL     1       3.036   1.431  -4.573  0.00  0.00    -0.061 S 
ATOM      9  C   UNL     1       3.344   0.774  -6.201  0.00  0.00    +0.102 A 
BRANCH   9  10
ATOM     10  C   UNL     1       2.648   1.070  -7.457  0.00  0.00    +0.346 C 
ATOM     11  O   UNL     1       2.994   0.524  -8.487  0.00  0.00    -0.244 OA
BRANCH  10  12
ATOM     12  O   UNL     1       1.624   1.947  -7.469  0.00  0.00    -0.464 OA
ATOM     13  C   UNL     1       0.981   2.192  -8.748  0.00  0.00    +0.280 C 
ENDBRANCH  10  12
ENDBRANCH   9  10
BRANCH   6  14
ATOM     14  C   UNL     1       6.015  -1.061  -4.372  0.00  0.00    +0.342 C 
ATOM     15  O   UNL     1       5.812  -2.216  -4.053  0.00  0.00    -0.245 OA
BRANCH  14  16
ATOM     16  O   UNL     1       7.277  -0.591  -4.436  0.00  0.00    -0.464 OA
ATOM     17  C   UNL     1       8.344  -1.521  -4.109  0.00  0.00    +0.280 C 
ENDBRANCH  14  16
ENDBRANCH   6  14
ENDBRANCH   1   7
BRANCH   1  18
ATOM     18  N   UNL     1       3.693   1.838  -1.322  0.00  0.00    -0.186 NA
ATOM     19  H   UNL     1       3.045   1.585  -0.470  0.00  0.00    +0.148 HD
BRANCH  18  20
ATOM     20  C   UNL     1       3.865   3.237  -1.722  0.00  0.00    +0.077 C 
ATOM     21  C   UNL     1       4.771   3.947  -0.714  0.00  0.00    +0.020 C 
ATOM     22  C   UNL     1       4.951   5.408  -1.131  0.00  0.00    +0.002 C 
ATOM     23  C   UNL     1       3.587   6.100  -1.168  0.00  0.00    +0.012 C 
ATOM     24  C   UNL     1       2.681   5.389  -2.176  0.00  0.00    +0.095 C 
ATOM     25  C   UNL     1       2.501   3.929  -1.758  0.00  0.00    +0.032 C 
BRANCH  24  26
ATOM     26  C   UNL     1       1.317   6.081  -2.212  0.00  0.00    +0.393 C 
ATOM     27  F   UNL     1       0.733   6.028  -0.942  0.00  0.00    -0.170 F 
ATOM     28  F   UNL     1       1.482   7.417  -2.594  0.00  0.00    -0.170 F 
ATOM     29  F   UNL     1       0.489   5.432  -3.134  0.00  0.00    -0.170 F 
ENDBRANCH  24  26
ENDBRANCH  18  20
ENDBRANCH   1  18
TORSDOF 8
