REMARK  Name = ZINC37867312
REMARK  15 active torsions:
REMARK  status: ('A' for Active; 'I' for Inactive)
REMARK    1  A    between atoms: C_1  and  C_2
REMARK    2  A    between atoms: N_4  and  C_5
REMARK    3  A    between atoms: C_5  and  C_6
REMARK    4  A    between atoms: C_6  and  C_7
REMARK    5  A    between atoms: C_7  and  C_8
REMARK    6  A    between atoms: C_8  and  C_9
REMARK    7  A    between atoms: C_9  and  C_11
REMARK    8  A    between atoms: C_9  and  N_29
REMARK    9  A    between atoms: C_18  and  C_25
REMARK   10  A    between atoms: C_20  and  O_21
REMARK   11  A    between atoms: C_30  and  O_32
REMARK   12  A    between atoms: O_32  and  C_33
REMARK   13  A    between atoms: C_33  and  C_34
REMARK   14  A    between atoms: C_33  and  C_35
REMARK   15  A    between atoms: C_33  and  C_36
REMARK                            x       y       z     vdW  Elec       q    Type
REMARK                         _______ _______ _______ _____ _____    ______ ____
ROOT
ATOM      1  C   UNL     1      -0.750  -7.700  -5.199  0.00  0.00    +0.238 C 
ATOM      2  O   UNL     1       0.299  -7.991  -5.746  0.00  0.00    -0.273 OA
ATOM      3  N   UNL     1      -1.820  -7.434  -5.923  0.00  0.00    -0.284 N 
ATOM      4  C   UNL     1      -1.790  -7.615  -7.272  0.00  0.00    +0.037 A 
ATOM      5  C   UNL     1      -2.773  -7.015  -8.079  0.00  0.00    +0.024 A 
ATOM      6  C   UNL     1      -2.755  -7.188  -9.427  0.00  0.00    +0.014 A 
ATOM      7  C   UNL     1      -1.748  -7.970 -10.021  0.00  0.00    +0.029 A 
ATOM      8  C   UNL     1      -1.712  -8.161 -11.418  0.00  0.00    +0.072 A 
ATOM      9  C   UNL     1      -0.703  -8.938 -11.951  0.00  0.00    +0.100 A 
ATOM     10  C   UNL     1       0.245  -9.511 -11.115  0.00  0.00    +0.285 A 
ATOM     11  O   UNL     1       0.207  -9.327  -9.790  0.00  0.00    -0.425 OA
ATOM     12  C   UNL     1      -0.757  -8.577  -9.217  0.00  0.00    +0.141 A 
ATOM     13  C   UNL     1      -0.782  -8.391  -7.847  0.00  0.00    +0.070 A 
ATOM     14  H   UNL     1      -2.627  -7.111  -5.495  0.00  0.00    +0.155 HD
ENDROOT
BRANCH   8  15
ATOM     15  C   UNL     1      -2.751  -7.531 -12.309  0.00  0.00    +0.418 C 
ATOM     16  F   UNL     1      -2.479  -6.166 -12.449  0.00  0.00    -0.166 F 
ATOM     17  F   UNL     1      -2.721  -8.144 -13.566  0.00  0.00    -0.166 F 
ATOM     18  F   UNL     1      -4.017  -7.698 -11.739  0.00  0.00    -0.166 F 
ENDBRANCH   8  15
BRANCH  10  19
ATOM     19  O   UNL     1       1.224 -10.266 -11.648  0.00  0.00    -0.480 OA
ATOM     20  H   UNL     1       1.842 -10.626 -10.996  0.00  0.00    +0.295 HD
ENDBRANCH  10  19
BRANCH   1  21
ATOM     21  C   UNL     1      -0.825  -7.643  -3.695  0.00  0.00    +0.162 C 
BRANCH  21  22
ATOM     22  N   UNL     1       0.283  -8.410  -3.121  0.00  0.00    -0.270 N 
ATOM     23  C   UNL     1       1.556  -8.065  -3.397  0.00  0.00    +0.401 C 
ATOM     24  O   UNL     1       1.785  -7.117  -4.122  0.00  0.00    -0.226 OA
ATOM     25  H   UNL     1       0.100  -9.167  -2.543  0.00  0.00    +0.153 HD
BRANCH  23  26
ATOM     26  O   UNL     1       2.575  -8.771  -2.870  0.00  0.00    -0.445 OA
BRANCH  26  27
ATOM     27  C   UNL     1       3.898  -8.349  -3.205  0.00  0.00    +0.107 C 
ATOM     28  C   UNL     1       4.109  -6.908  -2.733  0.00  0.00    +0.055 C 
ATOM     29  C   UNL     1       4.914  -9.264  -2.518  0.00  0.00    +0.055 C 
ATOM     30  C   UNL     1       4.089  -8.422  -4.721  0.00  0.00    +0.055 C 
ENDBRANCH  26  27
ENDBRANCH  23  26
ENDBRANCH  21  22
BRANCH  21  31
ATOM     31  C   UNL     1      -0.729  -6.187  -3.234  0.00  0.00    +0.032 C 
BRANCH  31  32
ATOM     32  C   UNL     1      -0.929  -6.117  -1.719  0.00  0.00    +0.004 C 
BRANCH  32  33
ATOM     33  C   UNL     1      -0.833  -4.661  -1.259  0.00  0.00    +0.019 C 
BRANCH  33  34
ATOM     34  C   UNL     1      -1.034  -4.591   0.256  0.00  0.00    +0.104 C 
BRANCH  34  38
ATOM     35  C   UNL     1      -0.994  -1.458   2.456  0.00  0.00    +0.109 C 
ATOM     36  C   UNL     1      -1.088  -2.892   2.002  0.00  0.00    +0.210 C 
ATOM     37  O   UNL     1      -1.296  -3.771   2.811  0.00  0.00    -0.276 OA
ATOM     38  N   UNL     1      -0.942  -3.197   0.697  0.00  0.00    -0.316 N 
ATOM     39  H   UNL     1      -0.776  -2.494   0.051  0.00  0.00    +0.149 HD
ENDBRANCH  34  38
ENDBRANCH  33  34
ENDBRANCH  32  33
ENDBRANCH  31  32
ENDBRANCH  21  31
ENDBRANCH   1  21
TORSDOF 11
