REMARK  Name = ZINC22137361
REMARK  14 active torsions:
REMARK  status: ('A' for Active; 'I' for Inactive)
REMARK    1  A    between atoms: C_1  and  C_2
REMARK    2  A    between atoms: C_2  and  C_4
REMARK    3  A    between atoms: C_2  and  S_14
REMARK    4  A    between atoms: N_6  and  C_7
REMARK    5  A    between atoms: C_7  and  C_8
REMARK    6  A    between atoms: C_7  and  C_9
REMARK    7  A    between atoms: C_7  and  C_11
REMARK    8  A    between atoms: C_11  and  C_12
REMARK    9  A    between atoms: C_11  and  C_13
REMARK   10  A    between atoms: S_14  and  C_15
REMARK   11  A    between atoms: C_18  and  C_27
REMARK   12  A    between atoms: N_19  and  C_20
REMARK   13  A    between atoms: C_32  and  O_33
REMARK   14  A    between atoms: O_33  and  C_34
REMARK                            x       y       z     vdW  Elec       q    Type
REMARK                         _______ _______ _______ _____ _____    ______ ____
ROOT
ATOM      1  C   UNL     1       2.536  -0.038   1.268  0.00  0.00    +0.197 A 
ATOM      2  N   UNL     1       2.990   0.553   0.186  0.00  0.00    -0.122 NA
ATOM      3  N   UNL     1       4.238   0.826   0.321  0.00  0.00    -0.128 NA
ATOM      4  C   UNL     1       4.661   0.427   1.499  0.00  0.00    +0.173 A 
ATOM      5  N   UNL     1       3.582  -0.134   2.146  0.00  0.00    -0.270 N 
ENDROOT
BRANCH   5   6
ATOM      6  C   UNL     1       3.560  -0.690   3.433  0.00  0.00    +0.051 A 
ATOM      7  C   UNL     1       3.745   0.122   4.544  0.00  0.00    +0.028 A 
ATOM      8  C   UNL     1       3.722  -0.427   5.811  0.00  0.00    +0.022 A 
ATOM      9  C   UNL     1       3.516  -1.786   5.974  0.00  0.00    +0.041 A 
ATOM     10  C   UNL     1       3.331  -2.597   4.868  0.00  0.00    +0.022 A 
ATOM     11  C   UNL     1       3.347  -2.051   3.599  0.00  0.00    +0.028 A 
ATOM     12 CL   UNL     1       3.489  -2.474   7.567  0.00  0.00    -0.084 Cl
ENDBRANCH   5   6
BRANCH   4  13
ATOM     13  C   UNL     1       6.032   0.560   2.032  0.00  0.00    +0.061 A 
ATOM     14  C   UNL     1       6.653  -0.526   2.650  0.00  0.00    +0.015 A 
ATOM     15  C   UNL     1       7.934  -0.395   3.146  0.00  0.00    +0.001 A 
ATOM     16  C   UNL     1       8.606   0.810   3.032  0.00  0.00    +0.004 A 
ATOM     17  C   UNL     1       8.002   1.892   2.422  0.00  0.00    +0.046 A 
ATOM     18  C   UNL     1       6.718   1.776   1.914  0.00  0.00    +0.131 A 
BRANCH  18  19
ATOM     19  O   UNL     1       6.125   2.837   1.309  0.00  0.00    -0.494 OA
ATOM     20  C   UNL     1       6.886   4.044   1.225  0.00  0.00    +0.277 C 
ENDBRANCH  18  19
ENDBRANCH   4  13
BRANCH   1  21
ATOM     21  S   UNL     1       0.887  -0.595   1.542  0.00  0.00    -0.073 S 
BRANCH  21  23
ATOM     22  C   UNL     1      -0.020   1.352  -0.153  0.00  0.00    +0.029 C 
ATOM     23  C   UNL     1       0.020  -0.169   0.006  0.00  0.00    +0.137 C 
BRANCH  23  24
ATOM     24  C   UNL     1      -1.387  -0.706   0.058  0.00  0.00    +0.227 C 
ATOM     25  O   UNL     1      -1.923  -0.899   1.129  0.00  0.00    -0.275 OA
ATOM     26  N   UNL     1      -2.050  -0.972  -1.085  0.00  0.00    -0.296 N 
ATOM     27  H   UNL     1      -1.621  -0.818  -1.941  0.00  0.00    +0.150 HD
BRANCH  26  28
ATOM     28  C   UNL     1      -3.418  -1.494  -1.034  0.00  0.00    +0.121 C 
ATOM     29  C   UNL     1      -3.428  -2.826  -0.282  0.00  0.00    +0.048 C 
BRANCH  28  30
ATOM     30  C   UNL     1      -3.936  -1.708  -2.458  0.00  0.00    +0.020 C 
ATOM     31  C   UNL     1      -3.111  -2.800  -3.141  0.00  0.00    +0.010 C 
ATOM     32  C   UNL     1      -5.405  -2.133  -2.408  0.00  0.00    +0.010 C 
ENDBRANCH  28  30
BRANCH  28  33
ATOM     33  C   UNL     1      -4.285  -0.530  -0.336  0.00  0.00    +0.088 C 
ATOM     34  N   UNL     1      -4.954   0.213   0.202  0.00  0.00    -0.194 NA
ENDBRANCH  28  33
ENDBRANCH  26  28
ENDBRANCH  23  24
ENDBRANCH  21  23
ENDBRANCH   1  21
TORSDOF 9
