REMARK  Name = ZINC22851853
REMARK  6 active torsions:
REMARK  status: ('A' for Active; 'I' for Inactive)
REMARK    1  A    between atoms: C_4  and  C_7
REMARK    2  A    between atoms: C_7  and  C_8
REMARK    3  A    between atoms: N_11  and  C_14
REMARK    4  A    between atoms: C_14  and  C_16
REMARK    5  A    between atoms: C_14  and  C_23
REMARK    6  A    between atoms: C_29  and  C_31
REMARK                            x       y       z     vdW  Elec       q    Type
REMARK                         _______ _______ _______ _____ _____    ______ ____
ROOT
ATOM      1  C   UNL     1       2.515   3.328  -0.004  0.00  0.00    +0.007 C 
ENDROOT
BRANCH   1   2
ATOM      2  C   UNL     1       2.007   1.916  -0.139  0.00  0.00    +0.050 A 
ATOM      3  C   UNL     1       2.692   0.766  -0.105  0.00  0.00    +0.282 A 
ATOM      4  N   UNL     1       2.046  -0.438  -0.247  0.00  0.00    -0.169 N 
ATOM      5  C   UNL     1       0.690  -0.402  -0.424  0.00  0.00    +0.200 A 
ATOM      6  S   UNL     1       0.335   1.339  -0.386  0.00  0.00    -0.050 S 
ATOM      7  N   UNL     1       0.229  -1.615  -0.543  0.00  0.00    -0.197 NA
ATOM      8  C   UNL     1       1.244  -2.486  -0.452  0.00  0.00    +0.218 A 
ATOM      9  N   UNL     1       2.365  -1.821  -0.273  0.00  0.00    -0.138 NA
ATOM     10  O   UNL     1       4.040   0.790   0.073  0.00  0.00    -0.265 OA
BRANCH   8  11
ATOM     11  C   UNL     1       1.124  -3.956  -0.539  0.00  0.00    +0.173 A 
ATOM     12  C   UNL     1      -0.029  -4.652  -0.724  0.00  0.00    +0.053 A 
ATOM     13  C   UNL     1       0.321  -6.018  -0.745  0.00  0.00    +0.042 A 
ATOM     14  C   UNL     1       1.655  -6.086  -0.574  0.00  0.00    +0.196 A 
ATOM     15  O   UNL     1       2.138  -4.838  -0.456  0.00  0.00    -0.460 OA
ENDBRANCH   8  11
ENDBRANCH   1   2
BRANCH   1  19
ATOM     16  C   UNL     1       1.809   5.931  -3.322  0.00  0.00    -0.010 C 
ATOM     17  C   UNL     1       1.383   4.463  -3.411  0.00  0.00    -0.015 C 
ATOM     18  C   UNL     1       2.162   3.647  -2.378  0.00  0.00    -0.077 C 
ATOM     19  N   UNL     1       1.894   4.172  -1.033  0.00  0.00    +0.387 N 
ATOM     20  C   UNL     1       2.338   5.566  -0.909  0.00  0.00    -0.077 C 
ATOM     21  C   UNL     1       1.564   6.440  -1.899  0.00  0.00    -0.015 C 
ATOM     22  H   UNL     1       0.805   4.153  -0.877  0.00  0.00    -0.080 HD
BRANCH  16  23
ATOM     23  C   UNL     1       0.990   6.762  -4.311  0.00  0.00    +0.038 C 
BRANCH  23  27
ATOM     24  C   UNL     1       2.416  10.789  -4.312  0.00  0.00    +0.000 A 
ATOM     25  C   UNL     1       2.959   9.863  -5.183  0.00  0.00    +0.000 A 
ATOM     26  C   UNL     1       2.497   8.560  -5.183  0.00  0.00    +0.003 A 
ATOM     27  C   UNL     1       1.493   8.183  -4.311  0.00  0.00    -0.047 A 
ATOM     28  C   UNL     1       0.947   9.110  -3.444  0.00  0.00    +0.003 A 
ATOM     29  C   UNL     1       1.411  10.412  -3.441  0.00  0.00    +0.000 A 
ENDBRANCH  23  27
ENDBRANCH  16  23
ENDBRANCH   1  19
BRANCH   1  30
ATOM     30  C   UNL     1       2.164   3.860   1.361  0.00  0.00    -0.038 A 
ATOM     31  C   UNL     1       0.981   4.550   1.551  0.00  0.00    +0.004 A 
ATOM     32  C   UNL     1       0.659   5.039   2.804  0.00  0.00    +0.000 A 
ATOM     33  C   UNL     1       1.519   4.836   3.867  0.00  0.00    +0.001 A 
ATOM     34  C   UNL     1       2.701   4.146   3.679  0.00  0.00    +0.020 A 
ATOM     35  C   UNL     1       3.022   3.653   2.426  0.00  0.00    +0.043 A 
ATOM     36 CL   UNL     1       4.504   2.780   2.191  0.00  0.00    -0.083 Cl
ENDBRANCH   1  30
TORSDOF 6
