REMARK  Name = ZINC41014926
REMARK  5 active torsions:
REMARK  status: ('A' for Active; 'I' for Inactive)
REMARK    1  A    between atoms: C_1  and  C_2
REMARK    2  A    between atoms: C_2  and  N_3
REMARK    3  A    between atoms: C_6  and  N_14
REMARK    4  A    between atoms: C_15  and  C_17
REMARK    5  A    between atoms: C_17  and  C_18
REMARK                            x       y       z     vdW  Elec       q    Type
REMARK                         _______ _______ _______ _____ _____    ______ ____
ROOT
ATOM      1  N   UNL     1      -1.714   0.021   4.808  0.00  0.00    -0.285 N 
ATOM      2  C   UNL     1      -2.413  -0.143   5.949  0.00  0.00    +0.222 C 
ATOM      3  O   UNL     1      -3.421  -0.818   5.950  0.00  0.00    -0.275 OA
ATOM      4  H   UNL     1      -0.873   0.504   4.820  0.00  0.00    +0.155 HD
ENDROOT
BRANCH   1   8
ATOM      5  N   UNL     1      -2.279   0.323   0.013  0.00  0.00    -0.266 N 
ATOM      6  C   UNL     1      -2.479  -0.349   1.228  0.00  0.00    +0.080 A 
ATOM      7  C   UNL     1      -1.995   0.175   2.414  0.00  0.00    +0.050 A 
ATOM      8  C   UNL     1      -2.203  -0.506   3.605  0.00  0.00    +0.035 A 
ATOM      9  C   UNL     1      -2.894  -1.711   3.606  0.00  0.00    +0.027 A 
ATOM     10  C   UNL     1      -3.378  -2.235   2.421  0.00  0.00    +0.049 A 
ATOM     11  C   UNL     1      -3.174  -1.558   1.232  0.00  0.00    +0.143 A 
ATOM     12  O   UNL     1      -3.648  -2.060   0.059  0.00  0.00    -0.481 OA
ATOM     13  C   UNL     1      -4.062  -1.111  -0.927  0.00  0.00    +0.325 C 
ATOM     14  C   UNL     1      -3.021  -0.029  -1.059  0.00  0.00    +0.257 C 
ATOM     15  O   UNL     1      -2.847   0.522  -2.126  0.00  0.00    -0.272 OA
BRANCH   5  17
ATOM     16  C   UNL     1      -1.942   2.733   0.253  0.00  0.00    +0.025 C 
ATOM     17  C   UNL     1      -1.285   1.394  -0.088  0.00  0.00    +0.110 C 
ENDBRANCH   5  17
ENDBRANCH   1   8
BRANCH   2  18
ATOM     18  C   UNL     1      -1.942   0.511   7.221  0.00  0.00    +0.131 C 
BRANCH  18  19
ATOM     19  C   UNL     1      -2.892   0.174   8.341  0.00  0.00    -0.031 A 
ATOM     20  C   UNL     1      -3.907   1.024   8.658  0.00  0.00    +0.005 A 
ATOM     21  C   UNL     1      -4.795   0.729   9.690  0.00  0.00    +0.001 A 
ATOM     22  C   UNL     1      -4.674  -0.418  10.412  0.00  0.00    +0.008 A 
ATOM     23  C   UNL     1      -3.639  -1.321  10.115  0.00  0.00    -0.018 A 
ATOM     24  C   UNL     1      -2.739  -1.023   9.061  0.00  0.00    -0.014 A 
ATOM     25  C   UNL     1      -1.707  -1.929   8.760  0.00  0.00    +0.009 A 
ATOM     26  C   UNL     1      -1.590  -3.079   9.478  0.00  0.00    +0.001 A 
ATOM     27  C   UNL     1      -2.479  -3.374  10.511  0.00  0.00    +0.001 A 
ATOM     28  C   UNL     1      -3.482  -2.515  10.839  0.00  0.00    +0.008 A 
ENDBRANCH  18  19
ENDBRANCH   2  18
TORSDOF 4
