REMARK  Name = ZINC26495840
REMARK  9 active torsions:
REMARK  status: ('A' for Active; 'I' for Inactive)
REMARK    1  A    between atoms: C_5  and  C_7
REMARK    2  A    between atoms: C_7  and  C_8
REMARK    3  A    between atoms: C_8  and  N_9
REMARK    4  A    between atoms: N_9  and  C_10
REMARK    5  A    between atoms: C_10  and  C_11
REMARK    6  A    between atoms: C_15  and  C_17
REMARK    7  A    between atoms: C_17  and  O_18
REMARK    8  A    between atoms: O_18  and  C_19
REMARK    9  A    between atoms: C_29  and  C_32
REMARK                            x       y       z     vdW  Elec       q    Type
REMARK                         _______ _______ _______ _____ _____    ______ ____
ROOT
ATOM      1  C   UNL     1      -2.386   1.160   0.020  0.00  0.00    +0.286 C 
ENDROOT
BRANCH   1   6
ATOM      2  C   UNL     1      -5.890   2.272   0.043  0.00  0.00    +0.055 A 
ATOM      3  C   UNL     1      -5.801   3.652   0.050  0.00  0.00    +0.024 A 
ATOM      4  C   UNL     1      -4.549   4.247   0.048  0.00  0.00    +0.004 A 
ATOM      5  C   UNL     1      -3.429   3.430   0.043  0.00  0.00    +0.027 A 
ATOM      6  C   UNL     1      -3.597   2.058   0.030  0.00  0.00    +0.079 A 
ATOM      7  N   UNL     1      -4.803   1.526   0.033  0.00  0.00    -0.252 NA
BRANCH   2   8
ATOM      8  C   UNL     1      -7.246   1.614   0.046  0.00  0.00    +0.136 C 
BRANCH   8   9
ATOM      9  N   UNL     1      -7.641   1.299  -1.333  0.00  0.00    -0.310 NA
ATOM     10  H   UNL     1      -6.890   0.623  -1.769  0.00  0.00    +0.122 HD
BRANCH   9  11
ATOM     11  C   UNL     1      -8.960   0.654  -1.369  0.00  0.00    +0.086 C 
BRANCH  11  12
ATOM     12  C   UNL     1      -9.336   0.342  -2.819  0.00  0.00    +0.053 C 
BRANCH  12  17
ATOM     13  C   UNL     1     -12.027  -2.304  -2.915  0.00  0.00    +0.000 A 
ATOM     14  C   UNL     1     -13.174  -1.533  -2.923  0.00  0.00    +0.003 A 
ATOM     15  C   UNL     1     -13.081  -0.155  -2.898  0.00  0.00    +0.038 A 
ATOM     16  C   UNL     1     -11.838   0.454  -2.864  0.00  0.00    +0.127 A 
ATOM     17  C   UNL     1     -10.690  -0.319  -2.856  0.00  0.00    -0.011 A 
ATOM     18  C   UNL     1     -10.785  -1.698  -2.887  0.00  0.00    +0.006 A 
ATOM     19  F   UNL     1     -11.746   1.802  -2.840  0.00  0.00    -0.205 F 
ENDBRANCH  12  17
ENDBRANCH  11  12
ENDBRANCH   9  11
ENDBRANCH   8   9
ENDBRANCH   2   8
ENDBRANCH   1   6
BRANCH   1  20
ATOM     20  O   UNL     1      -1.201   1.958   0.018  0.00  0.00    -0.469 OA
BRANCH  20  21
ATOM     21  C   UNL     1      -0.016   1.300   0.009  0.00  0.00    +0.241 A 
ATOM     22  C   UNL     1       1.240   2.058   0.001  0.00  0.00    +0.049 A 
ATOM     23  C   UNL     1       1.255   3.453   0.006  0.00  0.00    +0.014 A 
ATOM     24  C   UNL     1       2.458   4.122  -0.002  0.00  0.00    +0.001 A 
ATOM     25  C   UNL     1       3.658   3.422  -0.016  0.00  0.00    +0.001 A 
ATOM     26  C   UNL     1       3.668   2.045  -0.023  0.00  0.00    +0.012 A 
ATOM     27  C   UNL     1       2.461   1.348  -0.015  0.00  0.00    +0.033 A 
ATOM     28  C   UNL     1       2.409  -0.117  -0.022  0.00  0.00    +0.186 A 
ATOM     29  N   UNL     1       3.326  -1.063  -0.035  0.00  0.00    -0.127 NA
ATOM     30  N   UNL     1       2.750  -2.214  -0.036  0.00  0.00    -0.123 NA
ATOM     31  C   UNL     1       1.450  -2.067  -0.023  0.00  0.00    +0.258 A 
ATOM     32  N   UNL     1       1.188  -0.738  -0.013  0.00  0.00    -0.185 N 
ATOM     33  N   UNL     1       0.002  -0.004   0.002  0.00  0.00    -0.125 NA
BRANCH  31  34
ATOM     34  C   UNL     1       0.429  -3.175  -0.019  0.00  0.00    +0.454 C 
ATOM     35  F   UNL     1       1.054  -4.383   0.310  0.00  0.00    -0.163 F 
ATOM     36  F   UNL     1      -0.563  -2.891   0.925  0.00  0.00    -0.163 F 
ATOM     37  F   UNL     1      -0.150  -3.280  -1.288  0.00  0.00    -0.163 F 
ENDBRANCH  31  34
ENDBRANCH  20  21
ENDBRANCH   1  20
TORSDOF 9
