REMARK  Name = ZINC03219757
REMARK  7 active torsions:
REMARK  status: ('A' for Active; 'I' for Inactive)
REMARK    1  A    between atoms: C_1  and  C_2
REMARK    2  A    between atoms: C_2  and  C_3
REMARK    3  A    between atoms: C_3  and  C_4
REMARK    4  A    between atoms: C_4  and  O_5
REMARK    5  A    between atoms: O_5  and  C_6
REMARK    6  A    between atoms: C_9  and  C_12
REMARK    7  A    between atoms: C_18  and  C_20
REMARK                            x       y       z     vdW  Elec       q    Type
REMARK                         _______ _______ _______ _____ _____    ______ ____
ROOT
ATOM      1  C   UNL     1      -2.513   0.977   0.019  0.00  0.00    +0.294 C 
ATOM      2  N   UNL     1      -3.505   1.675   0.807  0.00  0.00    -0.175 NA
ATOM      3  C   UNL     1      -3.569   3.095   0.341  0.00  0.00    +0.138 C 
ATOM      4  C   UNL     1      -4.493   3.670   1.379  0.00  0.00    +0.023 C 
ATOM      5  C   UNL     1      -4.325   2.866   2.456  0.00  0.00    +0.047 C 
ATOM      6  N   UNL     1      -3.390   1.850   2.143  0.00  0.00    -0.273 N 
ATOM      7  C   UNL     1      -4.077   3.040  -1.062  0.00  0.00    +0.017 A 
ATOM      8  C   UNL     1      -4.840   4.055  -1.597  0.00  0.00    +0.009 A 
ATOM      9  C   UNL     1      -5.284   3.974  -2.905  0.00  0.00    +0.001 A 
ATOM     10  C   UNL     1      -4.959   2.872  -3.675  0.00  0.00    +0.004 A 
ATOM     11  C   UNL     1      -4.199   1.851  -3.142  0.00  0.00    +0.046 A 
ATOM     12  C   UNL     1      -3.754   1.921  -1.827  0.00  0.00    +0.128 A 
ATOM     13  O   UNL     1      -3.032   0.885  -1.320  0.00  0.00    -0.468 OA
ATOM     14  H   UNL     1      -2.798   1.383   2.753  0.00  0.00    +0.167 HD
ENDROOT
BRANCH   5  15
ATOM     15  C   UNL     1      -5.014   3.024   3.757  0.00  0.00    +0.000 A 
ATOM     16  C   UNL     1      -5.919   4.068   3.947  0.00  0.00    +0.013 A 
ATOM     17  C   UNL     1      -6.558   4.214   5.161  0.00  0.00    +0.050 A 
ATOM     18  C   UNL     1      -6.303   3.325   6.197  0.00  0.00    +0.162 A 
ATOM     19  C   UNL     1      -5.403   2.280   6.012  0.00  0.00    +0.163 A 
ATOM     20  C   UNL     1      -4.763   2.126   4.794  0.00  0.00    +0.059 A 
ATOM     21  O   UNL     1      -5.148   1.395   7.015  0.00  0.00    -0.485 OA
ATOM     22  C   UNL     1      -5.525   1.795   8.337  0.00  0.00    +0.270 C 
ATOM     23  C   UNL     1      -6.946   2.371   8.278  0.00  0.00    +0.270 C 
ATOM     24  O   UNL     1      -6.939   3.492   7.388  0.00  0.00    -0.485 OA
ENDBRANCH   5  15
BRANCH   1  28
ATOM     25  C   UNL     1       1.152   3.175   0.014  0.00  0.00    +0.121 A 
ATOM     26  C   UNL     1       0.642   2.671  -1.174  0.00  0.00    +0.046 A 
ATOM     27  C   UNL     1      -0.541   1.958  -1.169  0.00  0.00    +0.012 A 
ATOM     28  C   UNL     1      -1.220   1.750   0.017  0.00  0.00    +0.009 A 
ATOM     29  C   UNL     1      -0.711   2.246   1.203  0.00  0.00    +0.012 A 
ATOM     30  C   UNL     1       0.472   2.960   1.204  0.00  0.00    +0.046 A 
BRANCH  25  31
ATOM     31  O   UNL     1       2.315   3.878   0.011  0.00  0.00    -0.492 OA
BRANCH  31  32
ATOM     32  C   UNL     1       2.780   4.366   1.271  0.00  0.00    +0.229 C 
BRANCH  32  33
ATOM     33  C   UNL     1       4.093   5.126   1.070  0.00  0.00    +0.041 C 
BRANCH  33  35
ATOM     34  C   UNL     1       5.903   6.410   2.218  0.00  0.00    +0.004 C 
ATOM     35  C   UNL     1       4.591   5.649   2.419  0.00  0.00    -0.000 C 
ENDBRANCH  33  35
ENDBRANCH  32  33
ENDBRANCH  31  32
ENDBRANCH  25  31
ENDBRANCH   1  28
TORSDOF 6
