REMARK  Name = ZINC36073840
REMARK  12 active torsions:
REMARK  status: ('A' for Active; 'I' for Inactive)
REMARK    1  A    between atoms: C_1  and  C_2
REMARK    2  A    between atoms: C_3  and  C_38
REMARK    3  A    between atoms: N_6  and  C_31
REMARK    4  A    between atoms: C_7  and  N_9
REMARK    5  A    between atoms: N_9  and  C_10
REMARK    6  A    between atoms: C_10  and  C_11
REMARK    7  A    between atoms: C_11  and  C_30
REMARK    8  A    between atoms: C_15  and  C_29
REMARK    9  A    between atoms: C_24  and  C_26
REMARK   10  A    between atoms: C_26  and  C_27
REMARK   11  A    between atoms: C_26  and  C_28
REMARK   12  A    between atoms: C_31  and  C_32
REMARK                            x       y       z     vdW  Elec       q    Type
REMARK                         _______ _______ _______ _____ _____    ______ ____
ROOT
ATOM      1  C   UNL     1       2.982  -1.286   4.200  0.00  0.00    -0.044 C 
ATOM      2  C   UNL     1       2.839   0.222   4.420  0.00  0.00    +0.005 C 
ATOM      3  C   UNL     1       3.868   0.757   5.407  0.00  0.00    +0.001 C 
ATOM      4  C   UNL     1       3.732   0.034   6.749  0.00  0.00    +0.011 C 
ATOM      5  C   UNL     1       3.996  -1.456   6.552  0.00  0.00    -0.004 C 
ATOM      6  C   UNL     1       3.053  -2.032   5.513  0.00  0.00    +0.004 C 
ATOM      7  C   UNL     1       3.324  -3.526   5.354  0.00  0.00    +0.009 C 
ATOM      8  C   UNL     1       2.851  -4.226   6.630  0.00  0.00    +0.036 C 
ATOM      9  C   UNL     1       3.261  -3.477   7.868  0.00  0.00    -0.043 A 
ATOM     10  C   UNL     1       3.784  -2.202   7.852  0.00  0.00    -0.038 A 
ATOM     11  C   UNL     1       4.137  -1.578   9.037  0.00  0.00    +0.005 A 
ATOM     12  C   UNL     1       3.965  -2.224  10.246  0.00  0.00    +0.004 A 
ATOM     13  C   UNL     1       3.440  -3.502  10.269  0.00  0.00    -0.045 A 
ATOM     14  C   UNL     1       3.091  -4.123   9.088  0.00  0.00    +0.007 A 
ATOM     15  C   UNL     1       5.465  -1.649   6.173  0.00  0.00    +0.016 C 
ATOM     16  C   UNL     1       4.177  -1.574   3.292  0.00  0.00    +0.009 C 
ENDROOT
BRANCH  13  17
ATOM     17  C   UNL     1       3.247  -4.216  11.583  0.00  0.00    +0.013 C 
ATOM     18  C   UNL     1       4.598  -4.359  12.288  0.00  0.00    +0.012 C 
ATOM     19  C   UNL     1       2.294  -3.409  12.466  0.00  0.00    +0.012 C 
ENDBRANCH  13  17
BRANCH   1  20
ATOM     20  C   UNL     1       1.711  -1.747   3.447  0.00  0.00    -0.073 C 
BRANCH  20  21
ATOM     21  N   UNL     1       1.554  -0.955   2.220  0.00  0.00    +0.394 N 
ATOM     22  H   UNL     1       2.400  -1.011   1.673  0.00  0.00    -0.083 HD
ATOM     23  H   UNL     1       1.374   0.008   2.462  0.00  0.00    -0.083 HD
BRANCH  21  30
ATOM     24  C   UNL     1      -1.234  -1.815   3.533  0.00  0.00    +0.039 C 
ATOM     25  C   UNL     1      -0.870  -1.262   2.179  0.00  0.00    -0.062 C 
ATOM     26  C   UNL     1      -1.628  -0.484   1.413  0.00  0.00    +0.010 C 
ATOM     27  C   UNL     1      -0.915  -0.161   0.173  0.00  0.00    +0.241 C 
ATOM     28  O   UNL     1      -1.354   0.534  -0.723  0.00  0.00    -0.270 OA
ATOM     29  N   UNL     1       0.297  -0.746   0.173  0.00  0.00    -0.305 N 
ATOM     30  C   UNL     1       0.428  -1.482   1.438  0.00  0.00    +0.046 C 
ATOM     31  C   UNL     1      -3.013  -0.006   1.766  0.00  0.00    +0.049 C 
BRANCH  29  32
ATOM     32  C   UNL     1       1.303  -0.659  -0.888  0.00  0.00    +0.138 C 
BRANCH  32  33
ATOM     33  C   UNL     1       2.104   0.635  -0.728  0.00  0.00    +0.136 C 
ATOM     34  C   UNL     1       3.103   0.781  -1.896  0.00  0.00    +0.035 C 
ATOM     35  C   UNL     1       4.358   1.358  -1.186  0.00  0.00    +0.031 C 
ATOM     36  C   UNL     1       4.266   0.655   0.192  0.00  0.00    +0.160 C 
ATOM     37  O   UNL     1       2.860   0.592   0.488  0.00  0.00    -0.375 OA
ENDBRANCH  32  33
ENDBRANCH  29  32
ENDBRANCH  21  30
ENDBRANCH  20  21
ENDBRANCH   1  20
TORSDOF 6
