REMARK  Name = ZINC22325064
REMARK  7 active torsions:
REMARK  status: ('A' for Active; 'I' for Inactive)
REMARK    1  A    between atoms: C_1  and  C_2
REMARK    2  A    between atoms: C_5  and  C_36
REMARK    3  A    between atoms: N_8  and  C_10
REMARK    4  A    between atoms: C_10  and  C_11
REMARK    5  A    between atoms: N_16  and  C_17
REMARK    6  A    between atoms: C_17  and  C_19
REMARK    7  A    between atoms: N_28  and  C_30
REMARK                            x       y       z     vdW  Elec       q    Type
REMARK                         _______ _______ _______ _____ _____    ______ ____
ROOT
ATOM      1  C   UNL     1       1.274   3.683   6.802  0.00  0.00    +0.290 C 
ATOM      2  O   UNL     1       0.789   2.830   7.527  0.00  0.00    -0.266 OA
ENDROOT
BRANCH   1   3
ATOM      3  C   UNL     1       0.929   5.107   7.003  0.00  0.00    +0.156 A 
ATOM      4  C   UNL     1      -0.089   5.486   7.993  0.00  0.00    +0.020 A 
ATOM      5  C   UNL     1      -0.754   4.534   8.764  0.00  0.00    +0.011 A 
ATOM      6  C   UNL     1      -1.701   4.940   9.679  0.00  0.00    +0.001 A 
ATOM      7  C   UNL     1      -1.999   6.287   9.841  0.00  0.00    +0.001 A 
ATOM      8  C   UNL     1      -1.355   7.245   9.090  0.00  0.00    +0.014 A 
ATOM      9  C   UNL     1      -0.393   6.856   8.159  0.00  0.00    +0.051 A 
ATOM     10  C   UNL     1       0.326   7.833   7.331  0.00  0.00    +0.280 A 
ATOM     11  O   UNL     1       0.096   9.023   7.441  0.00  0.00    -0.265 OA
ATOM     12  N   UNL     1       1.245   7.392   6.448  0.00  0.00    -0.196 N 
ATOM     13  N   UNL     1       1.535   6.035   6.303  0.00  0.00    -0.158 NA
BRANCH  12  14
ATOM     14  C   UNL     1       1.930   8.321   5.659  0.00  0.00    +0.069 A 
ATOM     15  C   UNL     1       2.509   9.440   6.245  0.00  0.00    +0.028 A 
ATOM     16  C   UNL     1       3.185  10.355   5.463  0.00  0.00    +0.002 A 
ATOM     17  C   UNL     1       3.285  10.160   4.098  0.00  0.00    +0.000 A 
ATOM     18  C   UNL     1       2.710   9.048   3.511  0.00  0.00    +0.002 A 
ATOM     19  C   UNL     1       2.038   8.125   4.288  0.00  0.00    +0.028 A 
ENDBRANCH  12  14
ENDBRANCH   1   3
BRANCH   1  25
ATOM     20  C   UNL     1       3.436   0.154   4.708  0.00  0.00    +0.008 A 
ATOM     21  C   UNL     1       2.774  -0.558   5.626  0.00  0.00    +0.067 A 
ATOM     22  S   UNL     1       1.888   0.711   6.511  0.00  0.00    -0.061 S 
ATOM     23  C   UNL     1       2.427   2.048   5.647  0.00  0.00    +0.163 A 
ATOM     24  N   UNL     1       3.263   1.503   4.721  0.00  0.00    -0.341 N 
ATOM     25  N   UNL     1       2.117   3.331   5.828  0.00  0.00    -0.151 NA
ATOM     26  H   UNL     1       3.723   2.066   4.079  0.00  0.00    +0.167 HD
BRANCH  20  27
ATOM     27  C   UNL     1       4.343  -0.510   3.704  0.00  0.00    -0.024 C 
BRANCH  27  33
ATOM     28  C   UNL     1       1.687   0.751   0.677  0.00  0.00    +0.005 C 
ATOM     29  C   UNL     1       1.902  -0.752   0.864  0.00  0.00    -0.031 C 
ATOM     30  C   UNL     1       2.856  -1.270  -0.216  0.00  0.00    +0.003 C 
ATOM     31  C   UNL     1       4.219  -0.595  -0.046  0.00  0.00    -0.031 C 
ATOM     32  C   UNL     1       4.742  -0.863   1.367  0.00  0.00    -0.075 C 
ATOM     33  N   UNL     1       3.800  -0.320   2.353  0.00  0.00    +0.384 N 
ATOM     34  C   UNL     1       2.510  -1.014   2.243  0.00  0.00    -0.075 C 
ATOM     35  C   UNL     1       5.202  -1.163  -1.072  0.00  0.00    +0.005 C 
ATOM     36  H   UNL     1       3.666   0.665   2.181  0.00  0.00    -0.081 HD
ENDBRANCH  27  33
ENDBRANCH  20  27
ENDBRANCH   1  25
TORSDOF 5
