REMARK  Name = ZINC33708602
REMARK  5 active torsions:
REMARK  status: ('A' for Active; 'I' for Inactive)
REMARK    1  A    between atoms: C_1  and  C_2
REMARK    2  A    between atoms: C_7  and  N_8
REMARK    3  A    between atoms: C_13  and  C_30
REMARK    4  A    between atoms: C_16  and  C_21
REMARK    5  A    between atoms: C_16  and  C_27
REMARK                            x       y       z     vdW  Elec       q    Type
REMARK                         _______ _______ _______ _____ _____    ______ ____
ROOT
ATOM      1  N   UNL     1       2.067   4.302  -2.478  0.00  0.00    -0.210 N 
ATOM      2  C   UNL     1       0.802   3.902  -2.832  0.00  0.00    +0.229 C 
ATOM      3  O   UNL     1       0.169   4.235  -3.811  0.00  0.00    -0.275 OA
ATOM      4  C   UNL     1       0.389   2.999  -1.784  0.00  0.00    +0.078 C 
ATOM      5  C   UNL     1      -0.571   1.901  -1.561  0.00  0.00    -0.026 C 
ATOM      6  N   UNL     1      -0.097   1.322  -0.257  0.00  0.00    +0.398 N 
ATOM      7  C   UNL     1       1.344   1.681  -0.095  0.00  0.00    +0.074 C 
ATOM      8  C   UNL     1       1.757   2.303  -1.418  0.00  0.00    +0.090 C 
ATOM      9  C   UNL     1       2.604   3.534  -1.483  0.00  0.00    +0.229 C 
ATOM     10  O   UNL     1       3.567   3.796  -0.795  0.00  0.00    -0.275 OA
ATOM     11  H   UNL     1      -0.691   1.742   0.568  0.00  0.00    -0.083 HD
ATOM     12  H   UNL     1      -0.218   0.229  -0.276  0.00  0.00    -0.083 HD
ENDROOT
BRANCH   5  13
ATOM     13  C   UNL     1      -0.482   0.879  -2.665  0.00  0.00    -0.057 A 
ATOM     14  C   UNL     1      -1.397   0.901  -3.701  0.00  0.00    +0.006 A 
ATOM     15  C   UNL     1      -1.317  -0.032  -4.717  0.00  0.00    +0.049 A 
ATOM     16  C   UNL     1      -0.324  -1.000  -4.695  0.00  0.00    +0.162 A 
ATOM     17  C   UNL     1       0.594  -1.024  -3.652  0.00  0.00    +0.162 A 
ATOM     18  C   UNL     1       0.510  -0.082  -2.637  0.00  0.00    +0.051 A 
ATOM     19  O   UNL     1       1.581  -1.960  -3.615  0.00  0.00    -0.485 OA
ATOM     20  C   UNL     1       1.408  -3.112  -4.448  0.00  0.00    +0.270 C 
ATOM     21  C   UNL     1       0.966  -2.638  -5.838  0.00  0.00    +0.270 C 
ATOM     22  O   UNL     1      -0.265  -1.920  -5.697  0.00  0.00    -0.485 OA
ENDBRANCH   5  13
BRANCH   1  29
ATOM     23  C   UNL     1       1.738   6.886  -1.332  0.00  0.00    +0.045 C 
ATOM     24  C   UNL     1       2.602   6.658  -2.546  0.00  0.00    -0.029 A 
ATOM     25  C   UNL     1       3.263   7.720  -3.134  0.00  0.00    +0.005 A 
ATOM     26  C   UNL     1       4.056   7.511  -4.247  0.00  0.00    +0.000 A 
ATOM     27  C   UNL     1       4.191   6.240  -4.775  0.00  0.00    +0.002 A 
ATOM     28  C   UNL     1       3.537   5.174  -4.188  0.00  0.00    +0.024 A 
ATOM     29  C   UNL     1       2.735   5.381  -3.074  0.00  0.00    +0.047 A 
ENDBRANCH   1  29
BRANCH   7  30
ATOM     30  C   UNL     1       1.511   2.677   1.024  0.00  0.00    -0.047 A 
ATOM     31  C   UNL     1       2.740   2.828   1.638  0.00  0.00    +0.003 A 
ATOM     32  C   UNL     1       2.894   3.744   2.662  0.00  0.00    +0.000 A 
ATOM     33  C   UNL     1       1.816   4.504   3.077  0.00  0.00    +0.000 A 
ATOM     34  C   UNL     1       0.586   4.350   2.466  0.00  0.00    +0.000 A 
ATOM     35  C   UNL     1       0.433   3.437   1.440  0.00  0.00    +0.003 A 
ENDBRANCH   7  30
BRANCH   7  36
ATOM     36  C   UNL     1       2.163   0.446   0.179  0.00  0.00    +0.350 C 
ATOM     37  O   UNL     1       3.275   0.344  -0.281  0.00  0.00    -0.248 OA
ATOM     38  O   UNL     1       1.656  -0.541   0.934  0.00  0.00    -0.248 OA
ENDBRANCH   7  36
TORSDOF 4
