REMARK  Name = ZINC35456794
REMARK  14 active torsions:
REMARK  status: ('A' for Active; 'I' for Inactive)
REMARK    1  A    between atoms: C_1  and  C_2
REMARK    2  A    between atoms: C_7  and  C_25
REMARK    3  A    between atoms: C_7  and  C_26
REMARK    4  A    between atoms: C_20  and  C_22
REMARK    5  A    between atoms: C_20  and  O_24
REMARK    6  A    between atoms: C_22  and  O_23
REMARK    7  A    between atoms: C_26  and  O_27
REMARK    8  A    between atoms: O_27  and  C_28
REMARK    9  A    between atoms: C_28  and  C_30
REMARK   10  A    between atoms: C_30  and  C_31
REMARK   11  A    between atoms: C_31  and  C_32
REMARK   12  A    between atoms: C_31  and  C_33
REMARK   13  A    between atoms: C_31  and  O_37
REMARK   14  A    between atoms: C_33  and  C_34
REMARK                            x       y       z     vdW  Elec       q    Type
REMARK                         _______ _______ _______ _____ _____    ______ ____
ROOT
ATOM      1  C   UNL     1      -0.137   1.465   0.074  0.00  0.00    +0.012 C 
ATOM      2  C   UNL     1      -0.071  -0.057   0.071  0.00  0.00    -0.025 C 
ATOM      3  C   UNL     1      -1.497  -0.608   0.283  0.00  0.00    +0.015 C 
ATOM      4  C   UNL     1      -2.079  -0.034   1.572  0.00  0.00    +0.075 C 
ATOM      5  C   UNL     1      -1.161  -0.319   2.731  0.00  0.00    +0.143 C 
ATOM      6  O   UNL     1      -1.643  -0.597   3.817  0.00  0.00    -0.297 OA
ATOM      7  C   UNL     1       0.340  -0.266   2.594  0.00  0.00    +0.063 C 
ATOM      8  C   UNL     1       0.801  -0.610   1.192  0.00  0.00    +0.012 C 
ATOM      9  C   UNL     1       2.269  -0.250   0.964  0.00  0.00    +0.006 C 
ATOM     10  C   UNL     1       2.735  -0.992  -0.300  0.00  0.00    +0.007 C 
ATOM     11  C   UNL     1       1.930  -0.493  -1.486  0.00  0.00    -0.023 C 
ATOM     12  C   UNL     1       0.431  -0.581  -1.269  0.00  0.00    +0.002 C 
ATOM     13  C   UNL     1      -0.347  -0.049  -2.458  0.00  0.00    +0.005 C 
ATOM     14  C   UNL     1       0.291   1.107  -3.200  0.00  0.00    +0.007 C 
ATOM     15  C   UNL     1       1.807   1.022  -3.318  0.00  0.00    +0.024 C 
ATOM     16  C   UNL     1       2.364   0.937  -1.864  0.00  0.00    +0.013 C 
ATOM     17  C   UNL     1       2.273  -0.319  -3.918  0.00  0.00    +0.092 C 
ATOM     18  C   UNL     1       2.251  -1.327  -2.752  0.00  0.00    +0.044 C 
ATOM     19  C   UNL     1       0.914  -1.327   3.565  0.00  0.00    +0.023 C 
ENDROOT
BRANCH  17  20
ATOM     20  O   UNL     1       3.622  -0.181  -4.395  0.00  0.00    -0.386 OA
ATOM     21  H   UNL     1       3.984  -0.987  -4.788  0.00  0.00    +0.210 HD
ENDBRANCH  17  20
BRANCH  17  22
ATOM     22  C   UNL     1       1.381  -0.779  -5.065  0.00  0.00    +0.190 C 
BRANCH  22  23
ATOM     23  O   UNL     1       1.793  -2.076  -5.499  0.00  0.00    -0.392 OA
ATOM     24  H   UNL     1       1.268  -2.433  -6.229  0.00  0.00    +0.210 HD
ENDBRANCH  22  23
ENDBRANCH  17  22
BRANCH   7  25
ATOM     25  C   UNL     1       0.856   1.097   3.062  0.00  0.00    +0.246 C 
BRANCH  25  26
ATOM     26  O   UNL     1       0.499   1.297   4.431  0.00  0.00    -0.464 OA
BRANCH  26  27
ATOM     27  C   UNL     1       0.880   2.453   4.997  0.00  0.00    +0.310 C 
ATOM     28  O   UNL     1       1.496   3.268   4.351  0.00  0.00    -0.251 OA
BRANCH  27  29
ATOM     29  C   UNL     1       0.539   2.735   6.438  0.00  0.00    +0.155 C 
BRANCH  29  30
ATOM     30  C   UNL     1       1.085   4.109   6.831  0.00  0.00    +0.084 C 
ATOM     31  C   UNL     1       0.457   5.182   5.940  0.00  0.00    +0.042 C 
BRANCH  30  32
ATOM     32  O   UNL     1       2.505   4.123   6.666  0.00  0.00    -0.388 OA
ATOM     33  H   UNL     1       2.970   3.467   7.202  0.00  0.00    +0.210 HD
ENDBRANCH  30  32
BRANCH  30  34
ATOM     34  C   UNL     1       0.740   4.395   8.294  0.00  0.00    +0.160 C 
BRANCH  34  35
ATOM     35  C   UNL     1       1.415   3.378   9.178  0.00  0.00    +0.359 C 
ATOM     36  O   UNL     1       2.036   2.454   8.680  0.00  0.00    -0.246 OA
ATOM     37  O   UNL     1       1.340   3.479  10.391  0.00  0.00    -0.246 OA
ENDBRANCH  34  35
ENDBRANCH  30  34
ENDBRANCH  29  30
ENDBRANCH  27  29
ENDBRANCH  26  27
ENDBRANCH  25  26
ENDBRANCH   7  25
TORSDOF 11
