REMARK  Name = ZINC10129533
REMARK  11 active torsions:
REMARK  status: ('A' for Active; 'I' for Inactive)
REMARK    1  A    between atoms: C_1  and  N_2
REMARK    2  A    between atoms: N_2  and  C_3
REMARK    3  A    between atoms: N_2  and  C_4
REMARK    4  A    between atoms: C_7  and  C_10
REMARK    5  A    between atoms: C_10  and  C_12
REMARK    6  A    between atoms: C_10  and  N_73
REMARK    7  A    between atoms: C_12  and  N_13
REMARK    8  A    between atoms: C_14  and  C_16
REMARK    9  A    between atoms: N_18  and  C_19
REMARK   10  A    between atoms: C_19  and  C_20
REMARK   11  A    between atoms: C_20  and  C_21
REMARK                            x       y       z     vdW  Elec       q    Type
REMARK                         _______ _______ _______ _____ _____    ______ ____
ROOT
ATOM      1  C   UNL     1      -0.827   2.200  -0.861  0.00  0.00    -0.020 C 
ENDROOT
BRANCH   1  11
ATOM      2  C   UNL     1       0.846   1.853   0.859  0.00  0.00    -0.073 C 
ATOM      3  C   UNL     1       1.128   0.998   2.094  0.00  0.00    +0.017 C 
ATOM      4  C   UNL     1       1.246  -0.452   1.700  0.00  0.00    -0.048 A 
ATOM      5  C   UNL     1       1.840  -1.333   2.591  0.00  0.00    +0.004 A 
ATOM      6  C   UNL     1       1.960  -2.671   2.272  0.00  0.00    +0.000 A 
ATOM      7  C   UNL     1       1.487  -3.135   1.059  0.00  0.00    +0.000 A 
ATOM      8  C   UNL     1       0.898  -2.258   0.171  0.00  0.00    +0.002 A 
ATOM      9  C   UNL     1       0.777  -0.913   0.488  0.00  0.00    -0.061 A 
ATOM     10  C   UNL     1       0.131   0.006  -0.515  0.00  0.00    -0.042 C 
ATOM     11  N   UNL     1      -0.298   1.250   0.144  0.00  0.00    +0.388 N 
ATOM     12  H   UNL     1      -1.039   1.033   0.821  0.00  0.00    -0.080 HD
ENDBRANCH   1  11
BRANCH   1  16
ATOM     13  C   UNL     1      -5.003   1.460  -1.390  0.00  0.00    +0.029 A 
ATOM     14  C   UNL     1      -4.462   2.687  -1.752  0.00  0.00    +0.023 A 
ATOM     15  C   UNL     1      -3.112   2.923  -1.580  0.00  0.00    +0.004 A 
ATOM     16  C   UNL     1      -2.299   1.939  -1.047  0.00  0.00    -0.059 A 
ATOM     17  C   UNL     1      -2.833   0.715  -0.691  0.00  0.00    +0.004 A 
ATOM     18  C   UNL     1      -4.183   0.474  -0.855  0.00  0.00    +0.023 A 
BRANCH  13  20
ATOM     19  C   UNL     1      -7.214   2.225  -2.208  0.00  0.00    +0.129 C 
ATOM     20  N   UNL     1      -6.367   1.218  -1.563  0.00  0.00    -0.336 N 
ATOM     21  C   UNL     1      -6.952  -0.042  -1.099  0.00  0.00    +0.129 C 
ENDBRANCH  13  20
ENDBRANCH   1  16
BRANCH   1  22
ATOM     22  C   UNL     1      -0.103   2.014  -2.196  0.00  0.00    +0.094 C 
BRANCH  22  23
ATOM     23  N   UNL     1       1.316   2.341  -2.032  0.00  0.00    -0.309 N 
ATOM     24  C   UNL     1       2.172   2.162  -3.057  0.00  0.00    +0.299 C 
ATOM     25  O   UNL     1       1.768   1.729  -4.116  0.00  0.00    -0.265 OA
ATOM     26  H   UNL     1       1.639   2.688  -1.185  0.00  0.00    +0.149 HD
BRANCH  24  27
ATOM     27  C   UNL     1       3.619   2.495  -2.890  0.00  0.00    +0.299 C 
ATOM     28  O   UNL     1       4.023   2.928  -1.831  0.00  0.00    -0.265 OA
ATOM     29  N   UNL     1       4.475   2.316  -3.915  0.00  0.00    -0.307 N 
ATOM     30  H   UNL     1       4.152   1.970  -4.762  0.00  0.00    +0.149 HD
BRANCH  29  31
ATOM     31  C   UNL     1       5.894   2.643  -3.751  0.00  0.00    +0.109 C 
BRANCH  31  32
ATOM     32  C   UNL     1       6.639   2.349  -5.055  0.00  0.00    +0.049 C 
BRANCH  32  33
ATOM     33  C   UNL     1       8.098   2.685  -4.886  0.00  0.00    -0.072 C 
ATOM     34  C   UNL     1       8.907   1.730  -4.556  0.00  0.00    -0.028 C 
ATOM     35  C   UNL     1      10.381   1.913  -4.343  0.00  0.00    +0.027 C 
ATOM     36  C   UNL     1      10.845   3.230  -4.968  0.00  0.00    +0.004 C 
ATOM     37  C   UNL     1       9.904   4.348  -4.499  0.00  0.00    +0.005 C 
ATOM     38  C   UNL     1       8.524   4.105  -5.117  0.00  0.00    +0.030 C 
ENDBRANCH  32  33
ENDBRANCH  31  32
ENDBRANCH  29  31
ENDBRANCH  24  27
ENDBRANCH  22  23
ENDBRANCH   1  22
TORSDOF 9
