REMARK  Name = ZINC57608660
REMARK  14 active torsions:
REMARK  status: ('A' for Active; 'I' for Inactive)
REMARK    1  A    between atoms: C_1  and  C_2
REMARK    2  A    between atoms: C_2  and  C_3
REMARK    3  A    between atoms: C_3  and  C_4
REMARK    4  A    between atoms: C_3  and  C_5
REMARK    5  A    between atoms: C_3  and  N_6
REMARK    6  A    between atoms: C_7  and  C_11
REMARK    7  A    between atoms: C_11  and  C_13
REMARK    8  A    between atoms: C_11  and  N_27
REMARK    9  A    between atoms: C_16  and  C_26
REMARK   10  A    between atoms: C_19  and  C_25
REMARK   11  A    between atoms: N_27  and  C_28
REMARK   12  A    between atoms: N_27  and  C_34
REMARK   13  A    between atoms: C_28  and  C_29
REMARK   14  A    between atoms: C_34  and  C_35
REMARK                            x       y       z     vdW  Elec       q    Type
REMARK                         _______ _______ _______ _____ _____    ______ ____
ROOT
ATOM      1  C   UNL     1       1.876  -2.170  -3.528  0.00  0.00    +0.163 C 
ENDROOT
BRANCH   1   2
ATOM      2  C   UNL     1       3.097  -2.683  -2.807  0.00  0.00    +0.042 A 
ATOM      3  C   UNL     1       4.165  -1.869  -2.624  0.00  0.00    +0.021 A 
ATOM      4  C   UNL     1       5.335  -2.397  -1.920  0.00  0.00    +0.002 A 
ATOM      5  C   UNL     1       6.467  -1.605  -1.701  0.00  0.00    -0.041 A 
ATOM      6  C   UNL     1       7.542  -2.128  -1.040  0.00  0.00    +0.004 A 
ATOM      7  C   UNL     1       7.521  -3.439  -0.584  0.00  0.00    +0.005 A 
ATOM      8  C   UNL     1       6.417  -4.238  -0.789  0.00  0.00    -0.026 A 
ATOM      9  C   UNL     1       5.310  -3.727  -1.459  0.00  0.00    +0.052 A 
ATOM     10  N   UNL     1       4.192  -4.503  -1.677  0.00  0.00    -0.322 N 
ATOM     11  H   UNL     1       4.177  -5.419  -1.358  0.00  0.00    +0.169 HD
ATOM     12  C   UNL     1       3.121  -4.007  -2.320  0.00  0.00    +0.254 A 
ATOM     13  O   UNL     1       2.147  -4.721  -2.490  0.00  0.00    -0.268 OA
ATOM     14  C   UNL     1       6.409  -5.659  -0.289  0.00  0.00    +0.046 C 
ATOM     15  C   UNL     1       6.500  -0.181  -2.192  0.00  0.00    +0.044 C 
ENDBRANCH   1   2
BRANCH   1  17
ATOM     16  N   UNL     1       0.036  -1.249  -2.021  0.00  0.00    -0.222 N 
ATOM     17  C   UNL     1       0.678  -2.270  -2.620  0.00  0.00    +0.174 A 
ATOM     18  N   UNL     1       0.058  -3.367  -2.260  0.00  0.00    -0.111 NA
ATOM     19  N   UNL     1      -0.914  -3.037  -1.481  0.00  0.00    -0.023 NA
ATOM     20  N   UNL     1      -0.927  -1.759  -1.330  0.00  0.00    -0.043 NA
BRANCH  16  21
ATOM     21  C   UNL     1       0.371   0.173  -2.129  0.00  0.00    +0.062 C 
ATOM     22  C   UNL     1       0.194   0.630  -3.579  0.00  0.00    +0.036 C 
ATOM     23  C   UNL     1       1.825   0.388  -1.702  0.00  0.00    +0.036 C 
BRANCH  21  25
ATOM     24  C   UNL     1      -0.203   2.470  -1.334  0.00  0.00    +0.006 C 
ATOM     25  C   UNL     1      -0.553   0.986  -1.221  0.00  0.00    +0.026 C 
ENDBRANCH  21  25
ENDBRANCH  16  21
ENDBRANCH   1  17
BRANCH   1  26
ATOM     26  N   UNL     1       1.645  -2.976  -4.734  0.00  0.00    -0.279 NA
BRANCH  26  27
ATOM     27  C   UNL     1       0.469  -2.495  -5.471  0.00  0.00    +0.159 C 
BRANCH  27  28
ATOM     28  C   UNL     1      -0.782  -3.034  -4.826  0.00  0.00    +0.119 A 
ATOM     29  C   UNL     1      -1.663  -2.321  -4.102  0.00  0.00    +0.046 A 
ATOM     30  C   UNL     1      -2.678  -3.216  -3.693  0.00  0.00    +0.041 A 
ATOM     31  C   UNL     1      -2.356  -4.423  -4.191  0.00  0.00    +0.195 A 
ATOM     32  O   UNL     1      -1.210  -4.306  -4.882  0.00  0.00    -0.467 OA
ENDBRANCH  27  28
ENDBRANCH  26  27
BRANCH  26  33
ATOM     33  C   UNL     1       2.836  -2.990  -5.594  0.00  0.00    +0.117 C 
BRANCH  33  34
ATOM     34  C   UNL     1       3.796  -4.082  -5.118  0.00  0.00    +0.132 C 
ATOM     35  C   UNL     1       4.966  -4.222  -6.116  0.00  0.00    +0.035 C 
ATOM     36  C   UNL     1       5.181  -5.759  -6.158  0.00  0.00    +0.031 C 
ATOM     37  C   UNL     1       3.727  -6.265  -5.984  0.00  0.00    +0.160 C 
ATOM     38  O   UNL     1       3.115  -5.341  -5.068  0.00  0.00    -0.375 OA
ENDBRANCH  33  34
ENDBRANCH  26  33
ENDBRANCH   1  26
TORSDOF 9
