REMARK  Name = ZINC64058084
REMARK  9 active torsions:
REMARK  status: ('A' for Active; 'I' for Inactive)
REMARK    1  A    between atoms: C_1  and  O_2
REMARK    2  A    between atoms: O_2  and  C_3
REMARK    3  A    between atoms: C_3  and  C_5
REMARK    4  A    between atoms: N_11  and  C_30
REMARK    5  A    between atoms: C_18  and  O_20
REMARK    6  A    between atoms: O_20  and  C_21
REMARK    7  A    between atoms: C_21  and  C_22
REMARK    8  A    between atoms: C_22  and  C_23
REMARK    9  A    between atoms: C_30  and  C_31
REMARK                            x       y       z     vdW  Elec       q    Type
REMARK                         _______ _______ _______ _____ _____    ______ ____
ROOT
ATOM      1  C   UNL     1       0.657  -2.104  -1.120  0.00  0.00    +0.147 C 
ATOM      2  C   UNL     1       1.391  -2.523  -2.391  0.00  0.00    +0.093 C 
ATOM      3  C   UNL     1       0.630  -2.068  -3.616  0.00  0.00    +0.039 C 
ATOM      4  C   UNL     1       1.597  -1.824  -4.780  0.00  0.00    +0.086 C 
ATOM      5  N   UNL     1       1.972  -3.006  -5.442  0.00  0.00    -0.299 NA
ATOM      6  C   UNL     1       2.739  -3.945  -4.600  0.00  0.00    +0.103 C 
ATOM      7  C   UNL     1       1.813  -4.708  -3.685  0.00  0.00    +0.123 C 
ATOM      8  N   UNL     1       1.569  -3.984  -2.427  0.00  0.00    -0.296 N 
ATOM      9  C   UNL     1       1.547  -4.723  -1.308  0.00  0.00    +0.218 C 
ATOM     10  O   UNL     1       1.778  -5.909  -1.415  0.00  0.00    -0.276 OA
ATOM     11  C   UNL     1       1.262  -4.196   0.063  0.00  0.00    +0.128 C 
ATOM     12  C   UNL     1       1.421  -2.652   0.093  0.00  0.00    +0.142 C 
ENDROOT
BRANCH   1  13
ATOM     13  C   UNL     1       0.598  -0.600  -1.043  0.00  0.00    +0.314 C 
ATOM     14  O   UNL     1       1.088   0.070  -1.921  0.00  0.00    -0.250 OA
BRANCH  13  16
ATOM     15  C   UNL     1      -0.017   1.425   0.010  0.00  0.00    +0.280 C 
ATOM     16  O   UNL     1       0.002  -0.004   0.002  0.00  0.00    -0.468 OA
ENDBRANCH  13  16
ENDBRANCH   1  13
BRANCH  12  17
ATOM     17  O   UNL     1       0.854  -2.130   1.296  0.00  0.00    -0.375 OA
BRANCH  17  18
ATOM     18  C   UNL     1       1.791  -1.987   2.366  0.00  0.00    +0.165 C 
BRANCH  18  19
ATOM     19  C   UNL     1       1.079  -1.424   3.597  0.00  0.00    +0.066 C 
BRANCH  19  20
ATOM     20  C   UNL     1       2.067  -1.273   4.724  0.00  0.00    -0.010 A 
ATOM     21  C   UNL     1       2.202  -2.278   5.664  0.00  0.00    +0.006 A 
ATOM     22  C   UNL     1       3.109  -2.140   6.698  0.00  0.00    +0.000 A 
ATOM     23  C   UNL     1       3.881  -0.998   6.794  0.00  0.00    +0.003 A 
ATOM     24  C   UNL     1       3.748   0.008   5.856  0.00  0.00    +0.038 A 
ATOM     25  C   UNL     1       2.844  -0.131   4.816  0.00  0.00    +0.127 A 
ATOM     26  F   UNL     1       2.717   0.849   3.895  0.00  0.00    -0.205 F 
ENDBRANCH  19  20
ENDBRANCH  18  19
ENDBRANCH  17  18
ENDBRANCH  12  17
BRANCH   5  27
ATOM     27  C   UNL     1       2.692  -2.707  -6.687  0.00  0.00    +0.113 C 
BRANCH  27  28
ATOM     28  C   UNL     1       2.865  -3.993  -7.498  0.00  0.00    +0.117 C 
ATOM     29  C   UNL     1       3.440  -3.676  -8.861  0.00  0.00    +0.008 C 
ATOM     30  C   UNL     1       2.520  -4.091  -9.761  0.00  0.00    -0.004 A 
ATOM     31  C   UNL     1       2.483  -4.065 -11.229  0.00  0.00    +0.010 A 
ATOM     32  C   UNL     1       1.400  -4.566 -11.866  0.00  0.00    +0.001 A 
ATOM     33  C   UNL     1       0.316  -5.107 -11.163  0.00  0.00    +0.002 A 
ATOM     34  C   UNL     1       0.277  -5.166  -9.815  0.00  0.00    +0.026 A 
ATOM     35  C   UNL     1       1.362  -4.668  -9.042  0.00  0.00    +0.043 A 
ATOM     36  N   UNL     1       1.558  -4.614  -7.746  0.00  0.00    -0.377 N 
ATOM     37  H   UNL     1       0.944  -4.930  -7.065  0.00  0.00    +0.160 HD
ENDBRANCH  27  28
ENDBRANCH   5  27
TORSDOF 8
