REMARK  Name = ZINC33413294
REMARK  16 active torsions:
REMARK  status: ('A' for Active; 'I' for Inactive)
REMARK    1  A    between atoms: C_1  and  C_2
REMARK    2  A    between atoms: C_2  and  C_3
REMARK    3  A    between atoms: C_3  and  C_5
REMARK    4  A    between atoms: C_3  and  C_11
REMARK    5  A    between atoms: C_11  and  O_13
REMARK    6  A    between atoms: O_13  and  C_14
REMARK    7  A    between atoms: C_19  and  C_20
REMARK    8  A    between atoms: C_21  and  N_29
REMARK    9  A    between atoms: N_29  and  C_30
REMARK   10  A    between atoms: C_30  and  C_31
REMARK   11  A    between atoms: C_30  and  C_32
REMARK   12  A    between atoms: C_30  and  C_33
REMARK   13  A    between atoms: C_33  and  C_34
REMARK   14  A    between atoms: C_34  and  C_35
REMARK   15  A    between atoms: C_34  and  C_36
REMARK   16  A    between atoms: C_34  and  C_37
REMARK                            x       y       z     vdW  Elec       q    Type
REMARK                         _______ _______ _______ _____ _____    ______ ____
ROOT
ATOM      1  C   UNL     1       1.411  -3.730  -0.013  0.00  0.00    +0.090 A 
ATOM      2  C   UNL     1       0.646  -2.615   0.261  0.00  0.00    +0.129 A 
ATOM      3  N   UNL     1      -0.225  -2.968   1.254  0.00  0.00    -0.289 N 
ATOM      4  C   UNL     1      -1.209  -2.274   1.906  0.00  0.00    +0.094 A 
ATOM      5  C   UNL     1      -1.947  -2.868   2.865  0.00  0.00    +0.018 A 
ATOM      6  C   UNL     1      -1.721  -4.214   3.204  0.00  0.00    +0.005 A 
ATOM      7  C   UNL     1      -0.751  -4.919   2.563  0.00  0.00    +0.045 A 
ATOM      8  C   UNL     1       0.016  -4.287   1.561  0.00  0.00    +0.117 A 
ATOM      9  N   UNL     1       1.001  -4.725   0.794  0.00  0.00    -0.338 N 
ATOM     10  H   UNL     1       1.484  -5.712   0.739  0.00  0.00    +0.167 HD
ENDROOT
BRANCH   1  16
ATOM     11  C   UNL     1       3.063  -5.055  -1.336  0.00  0.00    +0.141 A 
ATOM     12  C   UNL     1       4.075  -5.126  -2.279  0.00  0.00    +0.047 A 
ATOM     13  C   UNL     1       4.520  -3.977  -2.906  0.00  0.00    +0.004 A 
ATOM     14  C   UNL     1       3.959  -2.751  -2.596  0.00  0.00    +0.001 A 
ATOM     15  C   UNL     1       2.946  -2.665  -1.663  0.00  0.00    +0.014 A 
ATOM     16  C   UNL     1       2.494  -3.817  -1.021  0.00  0.00    +0.044 A 
BRANCH  11  17
ATOM     17  O   UNL     1       2.625  -6.184  -0.719  0.00  0.00    -0.425 OA
BRANCH  17  18
ATOM     18  C   UNL     1       1.585  -6.820  -1.281  0.00  0.00    +0.320 C 
ATOM     19  O   UNL     1       1.141  -6.437  -2.337  0.00  0.00    -0.250 OA
BRANCH  18  20
ATOM     20  C   UNL     1       0.971  -8.013  -0.593  0.00  0.00    +0.128 C 
BRANCH  20  21
ATOM     21  C   UNL     1      -0.171  -8.539  -1.424  0.00  0.00    -0.034 A 
ATOM     22  C   UNL     1       0.058  -8.973  -2.717  0.00  0.00    +0.004 A 
ATOM     23  C   UNL     1      -0.989  -9.460  -3.477  0.00  0.00    +0.000 A 
ATOM     24  C   UNL     1      -2.266  -9.504  -2.949  0.00  0.00    +0.000 A 
ATOM     25  C   UNL     1      -2.495  -9.064  -1.659  0.00  0.00    +0.000 A 
ATOM     26  C   UNL     1      -1.448  -8.582  -0.896  0.00  0.00    +0.004 A 
ENDBRANCH  20  21
BRANCH  20  28
ATOM     27  C   UNL     1       3.126  -8.616   0.517  0.00  0.00    +0.005 C 
ATOM     28  C   UNL     1       2.028  -9.106  -0.428  0.00  0.00    +0.016 C 
ENDBRANCH  20  28
ENDBRANCH  18  20
ENDBRANCH  17  18
ENDBRANCH  11  17
ENDBRANCH   1  16
BRANCH   2  29
ATOM     29  N   UNL     1       0.747  -1.366  -0.353  0.00  0.00    -0.323 N 
ATOM     30  H   UNL     1       1.381  -1.059  -1.198  0.00  0.00    +0.148 HD
BRANCH  29  31
ATOM     31  C   UNL     1      -0.152  -0.394   0.282  0.00  0.00    +0.028 C 
ATOM     32  C   UNL     1       0.144  -0.328   1.782  0.00  0.00    +0.031 C 
ATOM     33  C   UNL     1      -1.604  -0.826   0.068  0.00  0.00    +0.031 C 
BRANCH  31  34
ATOM     34  C   UNL     1       0.066   0.986  -0.342  0.00  0.00    +0.031 C 
BRANCH  34  35
ATOM     35  C   UNL     1       1.508   1.097  -0.842  0.00  0.00    -0.036 C 
ATOM     36  C   UNL     1       1.627   0.422  -2.210  0.00  0.00    +0.010 C 
ATOM     37  C   UNL     1       1.892   2.573  -0.967  0.00  0.00    +0.010 C 
ATOM     38  C   UNL     1       2.446   0.408   0.150  0.00  0.00    +0.010 C 
ENDBRANCH  34  35
ENDBRANCH  31  34
ENDBRANCH  29  31
ENDBRANCH   2  29
TORSDOF 10
