REMARK  Name = ZINC35686209
REMARK  8 active torsions:
REMARK  status: ('A' for Active; 'I' for Inactive)
REMARK    1  A    between atoms: C_1  and  C_2
REMARK    2  A    between atoms: C_11  and  O_14
REMARK    3  A    between atoms: C_12  and  C_13
REMARK    4  A    between atoms: O_14  and  C_15
REMARK    5  A    between atoms: C_15  and  C_16
REMARK    6  A    between atoms: C_16  and  C_18
REMARK    7  A    between atoms: C_16  and  O_31
REMARK    8  A    between atoms: C_18  and  N_19
REMARK                            x       y       z     vdW  Elec       q    Type
REMARK                         _______ _______ _______ _____ _____    ______ ____
ROOT
ATOM      1  C   UNL     1       0.106  -3.208   7.147  0.00  0.00    +0.166 C 
ENDROOT
BRANCH   1   2
ATOM      2  O   UNL     1      -1.127  -3.928   7.183  0.00  0.00    -0.387 OA
ATOM      3  H   UNL     1      -1.909  -3.365   7.268  0.00  0.00    +0.210 HD
ENDBRANCH   1   2
BRANCH   1   4
ATOM      4  C   UNL     1       0.104  -2.253   5.951  0.00  0.00    +0.261 C 
BRANCH   4   5
ATOM      5  O   UNL     1       0.072  -3.008   4.739  0.00  0.00    -0.489 OA
BRANCH   5  16
ATOM      6  C   UNL     1       0.077   1.390  -0.051  0.00  0.00    +0.045 C 
ATOM      7  C   UNL     1       0.050  -0.117  -0.043  0.00  0.00    -0.033 A 
ATOM      8  C   UNL     1       0.025  -0.821  -1.204  0.00  0.00    +0.096 A 
ATOM      9  C   UNL     1       0.000  -2.230  -1.170  0.00  0.00    +0.337 A 
ATOM     10  O   UNL     1      -0.022  -2.849  -2.218  0.00  0.00    -0.245 OA
ATOM     11  O   UNL     1       0.001  -2.907  -0.011  0.00  0.00    -0.422 OA
ATOM     12  C   UNL     1       0.025  -2.268   1.179  0.00  0.00    +0.146 A 
ATOM     13  C   UNL     1       0.056  -0.862   1.218  0.00  0.00    +0.021 A 
ATOM     14  C   UNL     1       0.087  -0.196   2.448  0.00  0.00    +0.015 A 
ATOM     15  C   UNL     1       0.092  -0.915   3.609  0.00  0.00    +0.047 A 
ATOM     16  C   UNL     1       0.067  -2.307   3.576  0.00  0.00    +0.127 A 
ATOM     17  C   UNL     1       0.026  -2.983   2.367  0.00  0.00    +0.034 A 
ATOM     18  C   UNL     1      -0.002  -4.489   2.343  0.00  0.00    +0.051 C 
ENDBRANCH   5  16
ENDBRANCH   4   5
ENDBRANCH   1   4
BRANCH   1  19
ATOM     19  C   UNL     1       0.266  -2.405   8.440  0.00  0.00    +0.119 C 
BRANCH  19  20
ATOM     20  N   UNL     1       0.276  -3.323   9.587  0.00  0.00    -0.297 NA
ATOM     21  C   UNL     1      -0.045  -2.612  10.832  0.00  0.00    +0.103 C 
ATOM     22  C   UNL     1      -0.202  -3.627  11.970  0.00  0.00    +0.122 C 
ATOM     23  N   UNL     1       1.008  -4.460  12.023  0.00  0.00    -0.314 N 
ATOM     24  C   UNL     1       1.471  -5.096  10.780  0.00  0.00    +0.122 C 
ATOM     25  C   UNL     1       1.563  -4.024   9.690  0.00  0.00    +0.103 C 
ATOM     26  C   UNL     1       1.696  -4.643  13.217  0.00  0.00    +0.099 A 
ATOM     27  C   UNL     1       1.165  -4.144  14.402  0.00  0.00    +0.042 A 
ATOM     28  C   UNL     1       1.860  -4.333  15.583  0.00  0.00    +0.005 A 
ATOM     29  C   UNL     1       3.068  -5.016  15.539  0.00  0.00    +0.018 A 
ATOM     30  C   UNL     1       3.537  -5.484  14.327  0.00  0.00    +0.084 A 
ATOM     31  N   UNL     1       2.849  -5.294  13.217  0.00  0.00    -0.350 N 
ATOM     32  H   UNL     1       3.199  -5.636  12.380  0.00  0.00    +0.166 HD
ENDBRANCH  19  20
ENDBRANCH   1  19
TORSDOF 6
