REMARK  Name = ZINC03061154
REMARK  8 active torsions:
REMARK  status: ('A' for Active; 'I' for Inactive)
REMARK    1  A    between atoms: C_1  and  C_2
REMARK    2  A    between atoms: C_2  and  N_3
REMARK    3  A    between atoms: C_6  and  C_19
REMARK    4  A    between atoms: N_21  and  C_22
REMARK    5  A    between atoms: C_22  and  C_23
REMARK    6  A    between atoms: C_23  and  N_62
REMARK    7  A    between atoms: C_24  and  C_32
REMARK    8  A    between atoms: C_29  and  C_31
REMARK                            x       y       z     vdW  Elec       q    Type
REMARK                         _______ _______ _______ _____ _____    ______ ____
ROOT
ATOM      1  N   UNL     1       0.289  -3.080   0.639  0.00  0.00    -0.267 N 
ATOM      2  C   UNL     1      -0.784  -2.213   0.492  0.00  0.00    +0.051 A 
ATOM      3  C   UNL     1      -0.537  -0.847   0.497  0.00  0.00    +0.037 A 
ATOM      4  C   UNL     1      -1.588   0.061   0.352  0.00  0.00    +0.039 A 
ATOM      5  C   UNL     1      -2.895  -0.405   0.191  0.00  0.00    +0.014 A 
ATOM      6  C   UNL     1      -3.140  -1.760   0.183  0.00  0.00    +0.017 A 
ATOM      7  C   UNL     1      -2.093  -2.665   0.333  0.00  0.00    +0.034 A 
ATOM      8  S   UNL     1      -2.441  -4.393   0.323  0.00  0.00    -0.087 S 
ATOM      9  C   UNL     1      -1.891  -4.937   1.905  0.00  0.00    +0.025 A 
ATOM     10  C   UNL     1      -2.790  -5.531   2.782  0.00  0.00    +0.016 A 
ATOM     11  C   UNL     1      -2.362  -5.966   4.020  0.00  0.00    +0.001 A 
ATOM     12  C   UNL     1      -1.036  -5.812   4.392  0.00  0.00    +0.001 A 
ATOM     13  C   UNL     1      -0.135  -5.223   3.535  0.00  0.00    +0.014 A 
ATOM     14  C   UNL     1      -0.550  -4.774   2.274  0.00  0.00    +0.051 A 
ATOM     15  C   UNL     1       0.423  -4.148   1.380  0.00  0.00    +0.252 C 
ATOM     16  O   UNL     1       1.505  -4.698   1.317  0.00  0.00    -0.270 OA
ENDROOT
BRANCH   4  17
ATOM     17  C   UNL     1      -1.317   1.511   0.362  0.00  0.00    +0.244 C 
ATOM     18  O   UNL     1      -0.179   1.916   0.502  0.00  0.00    -0.270 OA
ATOM     19  N   UNL     1      -2.330   2.387   0.211  0.00  0.00    -0.313 N 
ATOM     20  H   UNL     1      -3.238   2.063   0.096  0.00  0.00    +0.149 HD
BRANCH  19  21
ATOM     21  C   UNL     1      -2.062   3.827   0.222  0.00  0.00    +0.086 C 
BRANCH  21  22
ATOM     22  C   UNL     1      -3.373   4.592   0.033  0.00  0.00    -0.059 C 
BRANCH  22  30
ATOM     23  C   UNL     1      -2.305   6.329  -1.271  0.00  0.00    -0.071 C 
ATOM     24  C   UNL     1      -2.155   7.845  -1.420  0.00  0.00    -0.016 C 
ATOM     25  C   UNL     1      -1.457   8.408  -0.179  0.00  0.00    -0.003 C 
ATOM     26  C   UNL     1      -2.271   8.041   1.065  0.00  0.00    -0.016 C 
ATOM     27  C   UNL     1      -2.418   6.520   1.142  0.00  0.00    -0.071 C 
ATOM     28  C   UNL     1      -3.248   6.149   2.373  0.00  0.00    -0.013 C 
ATOM     29  C   UNL     1      -3.019   5.764  -2.500  0.00  0.00    -0.013 C 
ATOM     30  N   UNL     1      -3.118   6.043  -0.070  0.00  0.00    +0.384 N 
ATOM     31  H   UNL     1      -4.016   6.535  -0.151  0.00  0.00    -0.081 HD
ENDBRANCH  22  30
ENDBRANCH  21  22
ENDBRANCH  19  21
ENDBRANCH   4  17
BRANCH   1  33
ATOM     32  C   UNL     1       1.434  -3.545  -1.471  0.00  0.00    +0.025 C 
ATOM     33  C   UNL     1       1.464  -2.744  -0.168  0.00  0.00    +0.110 C 
ENDBRANCH   1  33
TORSDOF 5
