REMARK  Name = ZINC40478583
REMARK  7 active torsions:
REMARK  status: ('A' for Active; 'I' for Inactive)
REMARK    1  A    between atoms: C_1  and  C_2
REMARK    2  A    between atoms: C_2  and  C_3
REMARK    3  A    between atoms: C_2  and  C_4
REMARK    4  A    between atoms: C_4  and  N_5
REMARK    5  A    between atoms: N_14  and  C_17
REMARK    6  A    between atoms: C_17  and  C_18
REMARK    7  A    between atoms: N_20  and  C_21
REMARK                            x       y       z     vdW  Elec       q    Type
REMARK                         _______ _______ _______ _____ _____    ______ ____
ROOT
ATOM      1  N   UNL     1      -1.428  -2.010  -0.127  0.00  0.00    -0.260 N 
ATOM      2  C   UNL     1      -1.452  -2.569  -1.357  0.00  0.00    +0.264 A 
ATOM      3  O   UNL     1      -1.497  -1.877  -2.356  0.00  0.00    -0.267 OA
ATOM      4  C   UNL     1      -1.423  -4.040  -1.456  0.00  0.00    +0.063 A 
ATOM      5  C   UNL     1      -1.446  -4.691  -2.687  0.00  0.00    +0.015 A 
ATOM      6  C   UNL     1      -1.416  -6.069  -2.727  0.00  0.00    +0.001 A 
ATOM      7  C   UNL     1      -1.365  -6.804  -1.552  0.00  0.00    +0.002 A 
ATOM      8  C   UNL     1      -1.343  -6.171  -0.326  0.00  0.00    +0.027 A 
ATOM      9  C   UNL     1      -1.371  -4.786  -0.266  0.00  0.00    +0.059 A 
ATOM     10  N   UNL     1      -1.350  -4.110   0.945  0.00  0.00    -0.284 N 
ATOM     11  C   UNL     1      -1.373  -2.766   0.981  0.00  0.00    +0.333 A 
ATOM     12  O   UNL     1      -1.348  -2.212   2.062  0.00  0.00    -0.246 OA
ENDROOT
BRANCH   1  13
ATOM     13  C   UNL     1      -1.456  -0.551  -0.001  0.00  0.00    +0.133 C 
BRANCH  13  15
ATOM     14  C   UNL     1      -0.055   1.518   0.000  0.00  0.00    +0.009 C 
ATOM     15  C   UNL     1      -0.024  -0.011  -0.006  0.00  0.00    +0.003 C 
ATOM     16  C   UNL     1       0.715  -0.512   1.237  0.00  0.00    +0.009 C 
ENDBRANCH  13  15
ENDBRANCH   1  13
BRANCH  10  17
ATOM     17  C   UNL     1      -1.296  -4.868   2.198  0.00  0.00    +0.222 C 
BRANCH  17  18
ATOM     18  C   UNL     1       0.142  -5.097   2.585  0.00  0.00    +0.237 C 
ATOM     19  O   UNL     1       1.035  -4.669   1.884  0.00  0.00    -0.274 OA
ATOM     20  N   UNL     1       0.437  -5.777   3.711  0.00  0.00    -0.282 N 
ATOM     21  H   UNL     1      -0.273  -6.049   4.313  0.00  0.00    +0.155 HD
BRANCH  20  22
ATOM     22  C   UNL     1       1.769  -6.091   4.011  0.00  0.00    +0.069 A 
ATOM     23  C   UNL     1       2.707  -6.187   2.993  0.00  0.00    +0.027 A 
ATOM     24  C   UNL     1       4.020  -6.497   3.292  0.00  0.00    +0.017 A 
ATOM     25  C   UNL     1       4.401  -6.711   4.604  0.00  0.00    +0.021 A 
ATOM     26  C   UNL     1       3.469  -6.616   5.622  0.00  0.00    +0.055 A 
ATOM     27  C   UNL     1       2.155  -6.301   5.330  0.00  0.00    +0.146 A 
ATOM     28  F   UNL     1       1.246  -6.202   6.325  0.00  0.00    -0.204 F 
ATOM     29 BR   UNL     1       6.199  -7.135   5.008  0.00  0.00    -0.050 Br
ENDBRANCH  20  22
ENDBRANCH  17  18
ENDBRANCH  10  17
TORSDOF 5
