REMARK  Name = ZINC39545651
REMARK  6 active torsions:
REMARK  status: ('A' for Active; 'I' for Inactive)
REMARK    1  A    between atoms: C_4  and  O_7
REMARK    2  A    between atoms: O_7  and  S_8
REMARK    3  A    between atoms: S_8  and  N_11
REMARK    4  A    between atoms: N_11  and  C_12
REMARK    5  A    between atoms: C_17  and  O_18
REMARK    6  A    between atoms: C_19  and  C_21
REMARK                            x       y       z     vdW  Elec       q    Type
REMARK                         _______ _______ _______ _____ _____    ______ ____
ROOT
ATOM      1  N   UNL     1       3.527  -2.031   2.563  0.00  0.00    -0.106 N 
ATOM      2  C   UNL     1       2.198  -1.940   2.767  0.00  0.00    +0.261 C 
ATOM      3  O   UNL     1       1.599  -0.942   2.427  0.00  0.00    -0.272 OA
ENDROOT
BRANCH   2   4
ATOM      4  C   UNL     1       1.456  -3.079   3.418  0.00  0.00    +0.151 C 
ATOM      5  C   UNL     1       0.903  -4.044   2.352  0.00  0.00    +0.081 C 
ATOM      6  C   UNL     1      -0.592  -4.021   2.573  0.00  0.00    +0.055 C 
ATOM      7  C   UNL     1      -0.874  -3.207   3.558  0.00  0.00    +0.090 C 
ATOM      8  N   UNL     1      -2.157  -2.950   4.081  0.00  0.00    -0.303 N 
ATOM      9  C   UNL     1      -2.201  -2.762   5.473  0.00  0.00    +0.037 A 
ATOM     10  C   UNL     1      -3.424  -2.617   6.111  0.00  0.00    +0.023 A 
ATOM     11  C   UNL     1      -3.467  -2.422   7.478  0.00  0.00    +0.002 A 
ATOM     12  C   UNL     1      -2.290  -2.373   8.203  0.00  0.00    +0.000 A 
ATOM     13  C   UNL     1      -1.073  -2.522   7.568  0.00  0.00    +0.007 A 
ATOM     14  C   UNL     1      -1.019  -2.722   6.198  0.00  0.00    -0.010 A 
ATOM     15  C   UNL     1       0.323  -2.907   5.539  0.00  0.00    +0.124 C 
ATOM     16  N   UNL     1       0.257  -2.584   4.112  0.00  0.00    -0.369 NA
ATOM     17 CL   UNL     1      -1.755  -4.934   1.663  0.00  0.00    -0.085 Cl
ATOM     18  H   UNL     1      -2.949  -2.906   3.522  0.00  0.00    +0.153 HD
ATOM     19  H   UNL     1       0.186  -1.584   3.997  0.00  0.00    +0.129 HD
ENDBRANCH   2   4
BRANCH   1  20
ATOM     20  C   UNL     1       4.201  -3.224   2.855  0.00  0.00    +0.104 A 
ATOM     21  C   UNL     1       4.253  -4.242   1.915  0.00  0.00    +0.029 A 
ATOM     22  C   UNL     1       4.918  -5.418   2.205  0.00  0.00    +0.002 A 
ATOM     23  C   UNL     1       5.534  -5.583   3.433  0.00  0.00    +0.004 A 
ATOM     24  C   UNL     1       5.486  -4.573   4.375  0.00  0.00    +0.047 A 
ATOM     25  C   UNL     1       4.826  -3.389   4.089  0.00  0.00    +0.140 A 
BRANCH  25  26
ATOM     26  O   UNL     1       4.784  -2.392   5.013  0.00  0.00    -0.505 OA
ATOM     27  H   UNL     1       4.027  -2.442   5.612  0.00  0.00    +0.292 HD
ENDBRANCH  25  26
ENDBRANCH   1  20
BRANCH   1  28
ATOM     28  S   UNL     1       4.363  -0.732   1.966  0.00  0.00    +0.217 S 
ATOM     29  O   UNL     1       5.696  -0.852   2.445  0.00  0.00    -0.115 OA
ATOM     30  O   UNL     1       3.564   0.415   2.217  0.00  0.00    -0.115 OA
BRANCH  28  31
ATOM     31  O   UNL     1       4.429  -0.895   0.454  0.00  0.00    -0.331 OA
BRANCH  31  35
ATOM     32  C   UNL     1       0.883  -0.056  -1.480  0.00  0.00    +0.000 A 
ATOM     33  C   UNL     1       1.807   0.950  -1.265  0.00  0.00    +0.004 A 
ATOM     34  C   UNL     1       2.995   0.672  -0.618  0.00  0.00    +0.048 A 
ATOM     35  C   UNL     1       3.260  -0.619  -0.183  0.00  0.00    +0.158 A 
ATOM     36  C   UNL     1       2.332  -1.626  -0.399  0.00  0.00    +0.048 A 
ATOM     37  C   UNL     1       1.145  -1.342  -1.047  0.00  0.00    +0.004 A 
ENDBRANCH  31  35
ENDBRANCH  28  31
ENDBRANCH   1  28
TORSDOF 6
