REMARK  Name = ZINC20159898
REMARK  8 active torsions:
REMARK  status: ('A' for Active; 'I' for Inactive)
REMARK    1  A    between atoms: C_1  and  C_2
REMARK    2  A    between atoms: C_2  and  C_26
REMARK    3  A    between atoms: N_3  and  N_4
REMARK    4  A    between atoms: C_7  and  S_10
REMARK    5  A    between atoms: S_10  and  C_11
REMARK    6  A    between atoms: C_11  and  C_12
REMARK    7  A    between atoms: N_14  and  C_15
REMARK    8  A    between atoms: C_16  and  C_24
REMARK                            x       y       z     vdW  Elec       q    Type
REMARK                         _______ _______ _______ _____ _____    ______ ____
ROOT
ATOM      1  S   UNL     1      -3.017   8.675  -5.097  0.00  0.00    -0.075 S 
ENDROOT
BRANCH   1   5
ATOM      2  N   UNL     1      -4.413  13.129  -7.407  0.00  0.00    -0.205 N 
ATOM      3  C   UNL     1      -4.027  12.228  -6.425  0.00  0.00    +0.232 A 
ATOM      4  N   UNL     1      -3.784  10.895  -6.608  0.00  0.00    -0.186 NA
ATOM      5  C   UNL     1      -3.431  10.360  -5.402  0.00  0.00    +0.211 A 
ATOM      6  N   UNL     1      -3.460  11.320  -4.509  0.00  0.00    -0.144 NA
ATOM      7  N   UNL     1      -3.833  12.505  -5.158  0.00  0.00    -0.245 N 
ATOM      8  H   UNL     1      -4.548  12.787  -8.444  0.00  0.00    +0.177 HD
ATOM      9  H   UNL     1      -3.972  13.533  -4.792  0.00  0.00    +0.192 HD
BRANCH   2  12
ATOM     10  C   UNL     1      -5.176  14.851  -9.419  0.00  0.00    +0.068 C 
ATOM     11  C   UNL     1      -4.991  15.318  -7.998  0.00  0.00    +0.070 C 
ATOM     12  N   UNL     1      -4.630  14.473  -7.077  0.00  0.00    -0.184 NA
BRANCH  11  13
ATOM     13  C   UNL     1      -5.218  16.726  -7.654  0.00  0.00    +0.035 A 
ATOM     14  C   UNL     1      -5.104  17.352  -6.425  0.00  0.00    +0.017 A 
ATOM     15  C   UNL     1      -5.372  18.700  -6.352  0.00  0.00    +0.008 A 
ATOM     16  C   UNL     1      -5.737  19.368  -7.477  0.00  0.00    +0.046 A 
ATOM     17  S   UNL     1      -5.705  18.079  -8.711  0.00  0.00    -0.095 S 
ENDBRANCH  11  13
ENDBRANCH   2  12
ENDBRANCH   1   5
BRANCH   1  18
ATOM     18  C   UNL     1      -2.653   8.627  -3.320  0.00  0.00    +0.173 C 
BRANCH  18  19
ATOM     19  C   UNL     1      -2.279   7.222  -2.922  0.00  0.00    +0.228 C 
ATOM     20  O   UNL     1      -2.260   6.341  -3.755  0.00  0.00    -0.275 OA
ATOM     21  N   UNL     1      -1.965   6.946  -1.641  0.00  0.00    -0.278 N 
ATOM     22  H   UNL     1      -1.982   7.746  -0.886  0.00  0.00    +0.155 HD
BRANCH  21  23
ATOM     23  C   UNL     1      -1.621   5.653  -1.274  0.00  0.00    +0.090 A 
ATOM     24  C   UNL     1      -1.271   5.177  -0.019  0.00  0.00    +0.084 A 
ATOM     25  C   UNL     1      -0.951   3.765   0.100  0.00  0.00    -0.018 A 
ATOM     26  C   UNL     1      -1.032   3.059  -1.049  0.00  0.00    -0.004 A 
ATOM     27  S   UNL     1      -1.524   4.240  -2.273  0.00  0.00    -0.077 S 
ATOM     28  C   UNL     1      -0.761   1.597  -1.232  0.00  0.00    +0.043 C 
ATOM     29  C   UNL     1      -0.013   1.086   0.008  0.00  0.00    +0.005 C 
ATOM     30  C   UNL     1      -0.735   1.583   1.264  0.00  0.00    +0.005 C 
ATOM     31  C   UNL     1      -0.551   3.094   1.407  0.00  0.00    +0.037 C 
BRANCH  24  32
ATOM     32  C   UNL     1      -1.226   6.046   1.118  0.00  0.00    +0.102 C 
ATOM     33  N   UNL     1      -1.191   6.736   2.020  0.00  0.00    -0.191 NA
ENDBRANCH  24  32
ENDBRANCH  21  23
ENDBRANCH  18  19
ENDBRANCH   1  18
TORSDOF 7
