REMARK  Name = ZINC16736640
REMARK  6 active torsions:
REMARK  status: ('A' for Active; 'I' for Inactive)
REMARK    1  A    between atoms: C_2  and  C_3
REMARK    2  A    between atoms: C_3  and  O_4
REMARK    3  A    between atoms: O_4  and  C_5
REMARK    4  A    between atoms: C_8  and  C_11
REMARK    5  A    between atoms: N_26  and  C_29
REMARK    6  A    between atoms: C_29  and  C_30
REMARK                            x       y       z     vdW  Elec       q    Type
REMARK                         _______ _______ _______ _____ _____    ______ ____
ROOT
ATOM      1  C   UNL     1      -2.168   6.866   7.199  0.00  0.00    +0.183 A 
ATOM      2  N   UNL     1      -1.164   7.029   6.324  0.00  0.00    -0.200 NA
ATOM      3  C   UNL     1      -1.156   6.031   5.488  0.00  0.00    +0.200 A 
ATOM      4  N   UNL     1      -2.169   5.168   5.792  0.00  0.00    -0.169 N 
ATOM      5  N   UNL     1      -2.805   5.757   6.920  0.00  0.00    -0.141 NA
ATOM      6  C   UNL     1      -2.337   4.071   5.040  0.00  0.00    +0.288 A 
ATOM      7  O   UNL     1      -3.229   3.279   5.269  0.00  0.00    -0.265 OA
ATOM      8  C   UNL     1      -1.387   3.860   3.920  0.00  0.00    +0.095 A 
ATOM      9  C   UNL     1      -1.325   2.830   3.002  0.00  0.00    +0.065 C 
ATOM     10  C   UNL     1      -2.098   1.571   3.010  0.00  0.00    +0.010 A 
ATOM     11  C   UNL     1      -3.061   1.048   3.869  0.00  0.00    +0.010 A 
ATOM     12  C   UNL     1      -3.615  -0.187   3.605  0.00  0.00    +0.001 A 
ATOM     13  C   UNL     1      -3.214  -0.905   2.490  0.00  0.00    +0.002 A 
ATOM     14  C   UNL     1      -2.259  -0.396   1.632  0.00  0.00    +0.024 A 
ATOM     15  C   UNL     1      -1.689   0.847   1.880  0.00  0.00    +0.045 A 
ATOM     16  N   UNL     1      -0.727   1.577   1.191  0.00  0.00    -0.258 N 
ATOM     17  C   UNL     1      -0.467   2.745   1.802  0.00  0.00    +0.253 C 
ATOM     18  O   UNL     1       0.332   3.585   1.431  0.00  0.00    -0.270 OA
ATOM     19  S   UNL     1      -0.351   5.307   4.078  0.00  0.00    -0.044 S 
ENDROOT
BRANCH   1  23
ATOM     20  C   UNL     1      -3.131   9.530  10.373  0.00  0.00    +0.121 A 
ATOM     21  C   UNL     1      -2.062   9.811   9.533  0.00  0.00    +0.046 A 
ATOM     22  C   UNL     1      -1.748   8.950   8.503  0.00  0.00    +0.015 A 
ATOM     23  C   UNL     1      -2.504   7.795   8.306  0.00  0.00    +0.021 A 
ATOM     24  C   UNL     1      -3.580   7.518   9.148  0.00  0.00    +0.015 A 
ATOM     25  C   UNL     1      -3.886   8.381  10.179  0.00  0.00    +0.046 A 
BRANCH  20  26
ATOM     26  O   UNL     1      -3.438  10.380  11.387  0.00  0.00    -0.488 OA
BRANCH  26  27
ATOM     27  C   UNL     1      -4.550  10.029  12.213  0.00  0.00    +0.256 C 
BRANCH  27  29
ATOM     28  C   UNL     1      -5.938  11.538  13.540  0.00  0.00    +0.007 C 
ATOM     29  C   UNL     1      -4.738  11.082  13.275  0.00  0.00    +0.006 C 
ENDBRANCH  27  29
ENDBRANCH  26  27
ENDBRANCH  20  26
ENDBRANCH   1  23
BRANCH  16  30
ATOM     30  C   UNL     1      -0.075   1.126  -0.042  0.00  0.00    +0.209 C 
BRANCH  30  31
ATOM     31  C   UNL     1      -0.873   1.594  -1.232  0.00  0.00    +0.228 C 
ATOM     32  O   UNL     1      -1.886   2.240  -1.067  0.00  0.00    -0.274 OA
ATOM     33  N   UNL     1      -0.461   1.294  -2.479  0.00  0.00    -0.328 N 
ATOM     34  H   UNL     1       0.349   0.778  -2.611  0.00  0.00    +0.145 HD
ATOM     35  H   UNL     1      -0.974   1.595  -3.245  0.00  0.00    +0.145 HD
ENDBRANCH  30  31
ENDBRANCH  16  30
TORSDOF 6
