REMARK  Name = ZINC44097869
REMARK  7 active torsions:
REMARK  status: ('A' for Active; 'I' for Inactive)
REMARK    1  A    between atoms: C_1  and  C_2
REMARK    2  A    between atoms: C_2  and  C_3
REMARK    3  A    between atoms: C_2  and  C_4
REMARK    4  A    between atoms: C_6  and  C_9
REMARK    5  A    between atoms: N_23  and  C_24
REMARK    6  A    between atoms: C_24  and  C_25
REMARK    7  A    between atoms: C_24  and  C_31
REMARK                            x       y       z     vdW  Elec       q    Type
REMARK                         _______ _______ _______ _____ _____    ______ ____
ROOT
ATOM      1  C   UNL     1      -4.107  -2.434  -1.383  0.00  0.00    +0.038 A 
ATOM      2  C   UNL     1      -5.396  -2.573  -0.853  0.00  0.00    +0.016 A 
ATOM      3  C   UNL     1      -6.314  -3.333  -1.550  0.00  0.00    +0.042 A 
ATOM      4  C   UNL     1      -5.932  -3.931  -2.748  0.00  0.00    +0.099 A 
ATOM      5  N   UNL     1      -4.704  -3.780  -3.222  0.00  0.00    -0.349 N 
ATOM      6  C   UNL     1      -3.801  -3.058  -2.589  0.00  0.00    +0.095 A 
ATOM      7  N   UNL     1      -6.849  -4.697  -3.455  0.00  0.00    -0.314 N 
ATOM      8  C   UNL     1      -6.510  -5.237  -4.779  0.00  0.00    +0.125 C 
ATOM      9  C   UNL     1      -6.716  -6.756  -4.756  0.00  0.00    +0.128 C 
ATOM     10  N   UNL     1      -8.043  -7.042  -4.194  0.00  0.00    -0.283 N 
ATOM     11  C   UNL     1      -8.382  -6.501  -2.869  0.00  0.00    +0.128 C 
ATOM     12  C   UNL     1      -8.174  -4.986  -2.890  0.00  0.00    +0.125 C 
ATOM     13  C   UNL     1      -8.934  -7.785  -4.880  0.00  0.00    +0.303 C 
ATOM     14  O   UNL     1      -8.609  -8.308  -5.928  0.00  0.00    -0.253 OA
ATOM     15  N   UNL     1     -10.184  -7.948  -4.404  0.00  0.00    -0.288 N 
ATOM     16  H   UNL     1     -10.467  -7.469  -3.610  0.00  0.00    +0.151 HD
ATOM     17  H   UNL     1      -4.464  -4.208  -4.058  0.00  0.00    +0.167 HD
ENDROOT
BRANCH   1  20
ATOM     18  C   UNL     1      -2.169  -0.374   0.842  0.00  0.00    +0.230 A 
ATOM     19  N   UNL     1      -3.266  -0.984   0.495  0.00  0.00    -0.191 NA
ATOM     20  C   UNL     1      -3.085  -1.629  -0.671  0.00  0.00    +0.203 A 
ATOM     21  N   UNL     1      -1.854  -1.427  -1.074  0.00  0.00    -0.056 NA
ATOM     22  O   UNL     1      -1.241  -0.601  -0.096  0.00  0.00    -0.337 OA
BRANCH  18  24
ATOM     23  C   UNL     1      -0.857  -0.149   2.934  0.00  0.00    +0.017 C 
ATOM     24  C   UNL     1      -1.979   0.454   2.087  0.00  0.00    +0.072 C 
ATOM     25  C   UNL     1      -1.608   1.886   1.695  0.00  0.00    +0.017 C 
ENDBRANCH  18  24
ENDBRANCH   1  20
BRANCH  15  26
ATOM     26  C   UNL     1     -11.116  -8.848  -5.087  0.00  0.00    +0.135 C 
BRANCH  26  27
ATOM     27  C   UNL     1     -10.902 -10.258  -4.599  0.00  0.00    -0.023 A 
ATOM     28  C   UNL     1     -10.663 -10.496  -3.259  0.00  0.00    +0.006 A 
ATOM     29  C   UNL     1     -10.467 -11.789  -2.811  0.00  0.00    +0.000 A 
ATOM     30  C   UNL     1     -10.510 -12.843  -3.703  0.00  0.00    +0.000 A 
ATOM     31  C   UNL     1     -10.749 -12.605  -5.044  0.00  0.00    +0.000 A 
ATOM     32  C   UNL     1     -10.950 -11.313  -5.491  0.00  0.00    +0.006 A 
ENDBRANCH  26  27
BRANCH  26  33
ATOM     33  C   UNL     1     -12.532  -8.424  -4.792  0.00  0.00    -0.023 A 
ATOM     34  C   UNL     1     -12.874  -7.994  -3.524  0.00  0.00    +0.006 A 
ATOM     35  C   UNL     1     -14.173  -7.605  -3.253  0.00  0.00    +0.000 A 
ATOM     36  C   UNL     1     -15.129  -7.645  -4.251  0.00  0.00    +0.000 A 
ATOM     37  C   UNL     1     -14.786  -8.074  -5.520  0.00  0.00    +0.000 A 
ATOM     38  C   UNL     1     -13.486  -8.459  -5.792  0.00  0.00    +0.006 A 
ENDBRANCH  26  33
ENDBRANCH  15  26
TORSDOF 5
