REMARK  Name = ZINC44126812
REMARK  6 active torsions:
REMARK  status: ('A' for Active; 'I' for Inactive)
REMARK    1  A    between atoms: C_3  and  N_9
REMARK    2  A    between atoms: C_10  and  O_29
REMARK    3  A    between atoms: C_11  and  C_27
REMARK    4  A    between atoms: C_12  and  C_14
REMARK    5  A    between atoms: N_16  and  C_17
REMARK    6  A    between atoms: O_29  and  C_30
REMARK                            x       y       z     vdW  Elec       q    Type
REMARK                         _______ _______ _______ _____ _____    ______ ____
ROOT
ATOM      1  N   UNL     1       3.768   2.101  -0.191  0.00  0.00    -0.197 N 
ATOM      2  C   UNL     1       5.026   1.603  -0.090  0.00  0.00    +0.244 A 
ATOM      3  C   UNL     1       5.903   2.677  -0.095  0.00  0.00    +0.146 A 
ATOM      4  C   UNL     1       5.077   3.886  -0.206  0.00  0.00    +0.169 A 
ATOM      5  N   UNL     1       3.821   3.495  -0.266  0.00  0.00    -0.157 NA
ENDROOT
BRANCH   1   8
ATOM      6  C   UNL     1       1.244  -0.430   0.682  0.00  0.00    +0.022 A 
ATOM      7  C   UNL     1       2.401   0.325   0.713  0.00  0.00    +0.031 A 
ATOM      8  C   UNL     1       2.595   1.333  -0.220  0.00  0.00    +0.087 A 
ATOM      9  C   UNL     1       1.625   1.582  -1.184  0.00  0.00    +0.068 A 
ATOM     10  C   UNL     1       0.469   0.824  -1.210  0.00  0.00    +0.042 A 
ATOM     11  C   UNL     1       0.279  -0.181  -0.278  0.00  0.00    +0.042 A 
ATOM     12 CL   UNL     1      -1.173  -1.131  -0.313  0.00  0.00    -0.083 Cl
ATOM     13 CL   UNL     1       1.863   2.843  -2.353  0.00  0.00    -0.081 Cl
ENDBRANCH   1   8
BRANCH   4  14
ATOM     14  C   UNL     1       5.563   5.278  -0.249  0.00  0.00    +0.266 C 
ATOM     15  O   UNL     1       6.756   5.508  -0.190  0.00  0.00    -0.268 OA
ATOM     16  N   UNL     1       4.686   6.296  -0.354  0.00  0.00    -0.307 N 
ATOM     17  H   UNL     1       3.734   6.113  -0.402  0.00  0.00    +0.149 HD
BRANCH  16  18
ATOM     18  C   UNL     1       5.168   7.678  -0.397  0.00  0.00    +0.077 C 
ATOM     19  C   UNL     1       4.083   8.610  -0.983  0.00  0.00    +0.026 C 
ATOM     20  C   UNL     1       3.772   9.622   0.163  0.00  0.00    -0.009 C 
ATOM     21  C   UNL     1       3.007   8.780   1.229  0.00  0.00    +0.004 C 
ATOM     22  C   UNL     1       4.077   7.835   1.822  0.00  0.00    +0.005 C 
ATOM     23  C   UNL     1       5.414   8.213   1.047  0.00  0.00    +0.010 C 
ATOM     24  C   UNL     1       5.188   9.752   0.827  0.00  0.00    +0.009 C 
ENDBRANCH  16  18
ENDBRANCH   4  14
BRANCH   3  25
ATOM     25  C   UNL     1       7.331   2.619  -0.006  0.00  0.00    +0.107 C 
ATOM     26  N   UNL     1       8.464   2.574   0.063  0.00  0.00    -0.191 NA
ENDBRANCH   3  25
BRANCH   2  27
ATOM     27  O   UNL     1       5.365   0.295  -0.002  0.00  0.00    -0.419 OA
BRANCH  27  28
ATOM     28  C   UNL     1       5.586  -0.385  -1.155  0.00  0.00    +0.223 A 
ATOM     29  C   UNL     1       6.043  -1.696  -1.103  0.00  0.00    +0.069 A 
ATOM     30  C   UNL     1       6.265  -2.379  -2.286  0.00  0.00    +0.027 A 
ATOM     31  C   UNL     1       6.019  -1.723  -3.486  0.00  0.00    +0.059 A 
ATOM     32  C   UNL     1       5.565  -0.418  -3.462  0.00  0.00    +0.134 A 
ATOM     33  N   UNL     1       5.358   0.204  -2.317  0.00  0.00    -0.219 NA
ATOM     34 CL   UNL     1       6.281  -2.533  -4.999  0.00  0.00    -0.082 Cl
ENDBRANCH  27  28
ENDBRANCH   2  27
TORSDOF 6
