REMARK  Name = ZINC04520604
REMARK  6 active torsions:
REMARK  status: ('A' for Active; 'I' for Inactive)
REMARK    1  A    between atoms: C_6  and  C_7
REMARK    2  A    between atoms: C_7  and  C_8
REMARK    3  A    between atoms: C_8  and  C_10
REMARK    4  A    between atoms: C_8  and  N_12
REMARK    5  A    between atoms: N_12  and  S_13
REMARK    6  A    between atoms: S_13  and  C_16
REMARK                            x       y       z     vdW  Elec       q    Type
REMARK                         _______ _______ _______ _____ _____    ______ ____
ROOT
ATOM      1  S   UNL     1      -1.456   1.774   0.019  0.00  0.00    +0.059 S 
ATOM      2  O   UNL     1      -2.475   0.784  -0.009  0.00  0.00    -0.153 OA
ATOM      3  O   UNL     1      -1.369   2.749   1.049  0.00  0.00    -0.153 OA
ENDROOT
BRANCH   1   4
ATOM      4  C   UNL     1      -1.571   2.658  -1.502  0.00  0.00    +0.107 A 
ATOM      5  C   UNL     1      -1.088   3.951  -1.585  0.00  0.00    +0.032 A 
ATOM      6  C   UNL     1      -1.169   4.649  -2.777  0.00  0.00    +0.049 A 
ATOM      7  C   UNL     1      -1.745   4.055  -3.886  0.00  0.00    +0.142 A 
ATOM      8  C   UNL     1      -2.238   2.754  -3.800  0.00  0.00    +0.078 A 
ATOM      9  C   UNL     1      -2.149   2.058  -2.606  0.00  0.00    +0.055 A 
ATOM     10  N   UNL     1      -2.821   2.165  -4.931  0.00  0.00    -0.280 N 
ATOM     11  C   UNL     1      -2.615   2.728  -6.141  0.00  0.00    +0.255 C 
ATOM     12  O   UNL     1      -3.135   2.254  -7.130  0.00  0.00    -0.272 OA
ATOM     13  C   UNL     1      -1.738   3.949  -6.259  0.00  0.00    +0.325 C 
ATOM     14  O   UNL     1      -1.836   4.728  -5.064  0.00  0.00    -0.481 OA
ATOM     15  H   UNL     1      -3.364   1.366  -4.845  0.00  0.00    +0.155 HD
ENDBRANCH   1   4
BRANCH   1  16
ATOM     16  N   UNL     1      -0.011   0.966   0.007  0.00  0.00    -0.176 NA
ATOM     17  H   UNL     1       0.002  -0.004   0.002  0.00  0.00    +0.149 HD
BRANCH  16  18
ATOM     18  C   UNL     1       1.248   1.716  -0.001  0.00  0.00    +0.193 C 
BRANCH  18  19
ATOM     19  C   UNL     1       1.756   1.859   1.411  0.00  0.00    +0.375 C 
ATOM     20  O   UNL     1       1.131   1.383   2.329  0.00  0.00    -0.245 OA
ATOM     21  O   UNL     1       2.903   2.514   1.648  0.00  0.00    -0.245 OA
ENDBRANCH  18  19
BRANCH  18  22
ATOM     22  C   UNL     1       2.282   0.966  -0.842  0.00  0.00    +0.067 C 
BRANCH  22  28
ATOM     23  C   UNL     1       1.051  -0.118  -2.732  0.00  0.00    +0.006 A 
ATOM     24  C   UNL     1       0.632  -0.150  -4.049  0.00  0.00    +0.038 A 
ATOM     25  C   UNL     1       1.002   0.864  -4.917  0.00  0.00    +0.123 A 
ATOM     26  C   UNL     1       1.787   1.910  -4.463  0.00  0.00    +0.038 A 
ATOM     27  C   UNL     1       2.200   1.942  -3.145  0.00  0.00    +0.006 A 
ATOM     28  C   UNL     1       1.831   0.930  -2.279  0.00  0.00    -0.045 A 
ATOM     29  F   UNL     1       0.597   0.831  -6.205  0.00  0.00    -0.205 F 
ENDBRANCH  22  28
ENDBRANCH  18  22
ENDBRANCH  16  18
ENDBRANCH   1  16
TORSDOF 6
