REMARK  Name = ZINC21276838
REMARK  5 active torsions:
REMARK  status: ('A' for Active; 'I' for Inactive)
REMARK    1  A    between atoms: C_1  and  C_2
REMARK    2  A    between atoms: C_7  and  N_8
REMARK    3  A    between atoms: C_18  and  S_19
REMARK    4  A    between atoms: S_19  and  C_20
REMARK    5  A    between atoms: C_20  and  C_21
REMARK                            x       y       z     vdW  Elec       q    Type
REMARK                         _______ _______ _______ _____ _____    ______ ____
ROOT
ATOM      1  N   UNL     1       0.025  -0.014   2.418  0.00  0.00    -0.255 N 
ATOM      2  C   UNL     1      -1.149   0.296   3.016  0.00  0.00    +0.267 A 
ATOM      3  O   UNL     1      -2.214  -0.015   2.514  0.00  0.00    -0.267 OA
ATOM      4  C   UNL     1      -1.092   1.022   4.291  0.00  0.00    +0.065 A 
ATOM      5  C   UNL     1      -2.248   1.385   4.983  0.00  0.00    +0.017 A 
ATOM      6  C   UNL     1      -2.144   2.059   6.167  0.00  0.00    +0.021 A 
ATOM      7  C   UNL     1      -0.898   2.387   6.691  0.00  0.00    +0.043 A 
ATOM      8  C   UNL     1       0.259   2.040   6.029  0.00  0.00    +0.048 A 
ATOM      9  C   UNL     1       0.179   1.351   4.816  0.00  0.00    +0.080 A 
ATOM     10  N   UNL     1       1.289   0.989   4.131  0.00  0.00    -0.223 NA
ATOM     11  C   UNL     1       1.213   0.338   2.997  0.00  0.00    +0.177 A 
ATOM     12 CL   UNL     1      -0.801   3.244   8.198  0.00  0.00    -0.083 Cl
ENDROOT
BRANCH   1  19
ATOM     13  C   UNL     1      -0.018   1.503   0.010  0.00  0.00    +0.046 C 
ATOM     14  C   UNL     1       0.002  -0.004   0.002  0.00  0.00    -0.026 A 
ATOM     15  C   UNL     1       0.006  -0.689  -1.198  0.00  0.00    +0.005 A 
ATOM     16  C   UNL     1       0.025  -2.071  -1.206  0.00  0.00    +0.000 A 
ATOM     17  C   UNL     1       0.040  -2.773  -0.014  0.00  0.00    +0.002 A 
ATOM     18  C   UNL     1       0.036  -2.094   1.188  0.00  0.00    +0.026 A 
ATOM     19  C   UNL     1       0.023  -0.705   1.200  0.00  0.00    +0.055 A 
ENDBRANCH   1  19
BRANCH  11  20
ATOM     20  S   UNL     1       2.709  -0.099   2.176  0.00  0.00    -0.078 S 
BRANCH  20  21
ATOM     21  C   UNL     1       4.011   0.544   3.265  0.00  0.00    +0.173 C 
BRANCH  21  22
ATOM     22  C   UNL     1       5.361   0.234   2.671  0.00  0.00    +0.231 C 
ATOM     23  O   UNL     1       5.438  -0.363   1.618  0.00  0.00    -0.274 OA
ATOM     24  N   UNL     1       6.483   0.619   3.311  0.00  0.00    -0.260 N 
ATOM     25  C   UNL     1       6.417   1.337   4.593  0.00  0.00    +0.209 C 
ATOM     26  C   UNL     1       7.435   2.449   4.586  0.00  0.00    +0.235 C 
ATOM     27  O   UNL     1       7.232   3.450   5.239  0.00  0.00    -0.274 OA
ATOM     28  N   UNL     1       8.566   2.343   3.864  0.00  0.00    -0.283 N 
ATOM     29  C   UNL     1       8.802   1.220   3.063  0.00  0.00    +0.055 A 
ATOM     30  C   UNL     1       7.752   0.341   2.779  0.00  0.00    +0.058 A 
ATOM     31  C   UNL     1       7.966  -0.773   1.988  0.00  0.00    +0.025 A 
ATOM     32  C   UNL     1       9.230  -1.021   1.482  0.00  0.00    +0.002 A 
ATOM     33  C   UNL     1      10.274  -0.160   1.764  0.00  0.00    +0.002 A 
ATOM     34  C   UNL     1      10.064   0.967   2.551  0.00  0.00    +0.025 A 
ATOM     35  H   UNL     1       9.226   3.053   3.899  0.00  0.00    +0.155 HD
ENDBRANCH  21  22
ENDBRANCH  20  21
ENDBRANCH  11  20
TORSDOF 4
