REMARK  Name = ZINC40983931
REMARK  10 active torsions:
REMARK  status: ('A' for Active; 'I' for Inactive)
REMARK    1  A    between atoms: C_1  and  C_2
REMARK    2  A    between atoms: C_3  and  C_17
REMARK    3  A    between atoms: C_5  and  C_7
REMARK    4  A    between atoms: C_10  and  O_13
REMARK    5  A    between atoms: O_13  and  C_14
REMARK    6  A    between atoms: C_14  and  C_15
REMARK    7  A    between atoms: C_14  and  C_16
REMARK    8  A    between atoms: C_17  and  N_18
REMARK    9  A    between atoms: C_21  and  C_24
REMARK   10  A    between atoms: C_32  and  C_34
REMARK                            x       y       z     vdW  Elec       q    Type
REMARK                         _______ _______ _______ _____ _____    ______ ____
ROOT
ATOM      1  N   UNL     1      -3.338   0.134  -1.442  0.00  0.00    +0.383 N 
ATOM      2  C   UNL     1      -3.490  -1.157  -2.124  0.00  0.00    -0.078 C 
ATOM      3  C   UNL     1      -3.901  -0.925  -3.580  0.00  0.00    -0.006 C 
ATOM      4  C   UNL     1      -5.232  -0.169  -3.613  0.00  0.00    +0.072 C 
ATOM      5  C   UNL     1      -5.084   1.142  -2.836  0.00  0.00    -0.006 C 
ATOM      6  C   UNL     1      -4.628   0.833  -1.408  0.00  0.00    -0.078 C 
ATOM      7  H   UNL     1      -2.665   0.697  -1.939  0.00  0.00    -0.081 HD
ENDROOT
BRANCH   4   8
ATOM      8  C   UNL     1      -5.605   0.132  -5.042  0.00  0.00    +0.219 C 
ATOM      9  O   UNL     1      -4.742   0.203  -5.892  0.00  0.00    -0.275 OA
ATOM     10  N   UNL     1      -6.897   0.324  -5.376  0.00  0.00    -0.298 N 
ATOM     11  C   UNL     1      -7.961   0.144  -4.379  0.00  0.00    +0.127 C 
ATOM     12  C   UNL     1      -8.792   1.431  -4.312  0.00  0.00    +0.127 C 
ATOM     13  N   UNL     1      -9.161   1.823  -5.680  0.00  0.00    -0.292 N 
ATOM     14  C   UNL     1      -8.097   2.003  -6.677  0.00  0.00    +0.127 C 
ATOM     15  C   UNL     1      -7.265   0.721  -6.742  0.00  0.00    +0.127 C 
ATOM     16  C   UNL     1     -10.453   2.014  -6.013  0.00  0.00    +0.282 C 
ATOM     17  O   UNL     1     -10.758   2.222  -7.173  0.00  0.00    -0.267 OA
BRANCH  16  18
ATOM     18  C   UNL     1     -11.492   1.972  -4.979  0.00  0.00    +0.189 A 
ATOM     19  C   UNL     1     -12.840   2.004  -5.194  0.00  0.00    +0.054 A 
ATOM     20  C   UNL     1     -13.451   1.942  -3.932  0.00  0.00    +0.042 A 
ATOM     21  C   UNL     1     -12.462   1.876  -3.014  0.00  0.00    +0.196 A 
ATOM     22  O   UNL     1     -11.283   1.889  -3.649  0.00  0.00    -0.458 OA
ENDBRANCH  16  18
ENDBRANCH   4   8
BRANCH   1  23
ATOM     23  C   UNL     1      -2.868  -0.091  -0.069  0.00  0.00    -0.019 C 
BRANCH  23  26
ATOM     24  C   UNL     1      -0.164   1.476  -0.081  0.00  0.00    +0.088 C 
ATOM     25  C   UNL     1      -0.326  -0.022  -0.108  0.00  0.00    +0.124 A 
ATOM     26  C   UNL     1      -1.489  -0.698  -0.103  0.00  0.00    +0.066 A 
ATOM     27  N   UNL     1      -1.203  -2.009  -0.134  0.00  0.00    -0.216 NA
ATOM     28  C   UNL     1       0.102  -2.153  -0.157  0.00  0.00    +0.228 A 
ATOM     29  O   UNL     1       0.667  -0.933  -0.148  0.00  0.00    -0.440 OA
BRANCH  28  30
ATOM     30  C   UNL     1       0.827  -3.439  -0.194  0.00  0.00    +0.037 A 
ATOM     31  C   UNL     1       0.118  -4.642  -0.212  0.00  0.00    +0.017 A 
ATOM     32  C   UNL     1       0.799  -5.840  -0.246  0.00  0.00    +0.046 A 
ATOM     33  C   UNL     1       2.188  -5.852  -0.263  0.00  0.00    +0.121 A 
ATOM     34  C   UNL     1       2.896  -4.658  -0.245  0.00  0.00    +0.046 A 
ATOM     35  C   UNL     1       2.223  -3.455  -0.216  0.00  0.00    +0.017 A 
BRANCH  33  36
ATOM     36  O   UNL     1       2.855  -7.035  -0.296  0.00  0.00    -0.489 OA
BRANCH  36  37
ATOM     37  C   UNL     1       2.069  -8.225  -0.211  0.00  0.00    +0.167 C 
ATOM     38  C   UNL     1       2.833  -9.387  -0.848  0.00  0.00    +0.051 C 
ATOM     39  C   UNL     1       1.786  -8.546   1.258  0.00  0.00    +0.051 C 
ENDBRANCH  36  37
ENDBRANCH  33  36
ENDBRANCH  28  30
ENDBRANCH  23  26
ENDBRANCH   1  23
TORSDOF 7
