REMARK  Name = ZINC04815124
REMARK  4 active torsions:
REMARK  status: ('A' for Active; 'I' for Inactive)
REMARK    1  A    between atoms: C_4  and  N_7
REMARK    2  A    between atoms: N_8  and  C_9
REMARK    3  A    between atoms: C_12  and  N_15
REMARK    4  A    between atoms: C_16  and  C_18
REMARK                            x       y       z     vdW  Elec       q    Type
REMARK                         _______ _______ _______ _____ _____    ______ ____
ROOT
ATOM      1  N   UNL     1       4.842   5.326  -0.018  0.00  0.00    -0.281 N 
ATOM      2  C   UNL     1       4.716   4.202  -0.752  0.00  0.00    +0.255 C 
ATOM      3  O   UNL     1       5.652   3.803  -1.418  0.00  0.00    -0.270 OA
ATOM      4  H   UNL     1       4.074   5.686   0.452  0.00  0.00    +0.155 HD
ENDROOT
BRANCH   2   5
ATOM      5  C   UNL     1       3.446   3.458  -0.747  0.00  0.00    +0.122 A 
ATOM      6  C   UNL     1       2.373   3.901   0.007  0.00  0.00    +0.031 A 
ATOM      7  C   UNL     1       1.168   3.154  -0.017  0.00  0.00    +0.018 A 
ATOM      8  C   UNL     1       0.061   3.575   0.735  0.00  0.00    +0.011 A 
ATOM      9  C   UNL     1      -1.096   2.851   0.706  0.00  0.00    +0.001 A 
ATOM     10  C   UNL     1      -1.188   1.702  -0.068  0.00  0.00    +0.004 A 
ATOM     11  C   UNL     1      -0.110   1.267  -0.810  0.00  0.00    +0.047 A 
ATOM     12  C   UNL     1       1.079   1.987  -0.797  0.00  0.00    +0.139 A 
ATOM     13  O   UNL     1       2.131   1.562  -1.530  0.00  0.00    -0.422 OA
ATOM     14  C   UNL     1       3.294   2.234  -1.541  0.00  0.00    +0.350 A 
ATOM     15  O   UNL     1       4.224   1.826  -2.211  0.00  0.00    -0.244 OA
ENDBRANCH   2   5
BRANCH   1  19
ATOM     16  C   UNL     1       8.530   7.250   0.231  0.00  0.00    +0.086 A 
ATOM     17  C   UNL     1       7.346   7.996   0.254  0.00  0.00    +0.031 A 
ATOM     18  C   UNL     1       6.130   7.356   0.171  0.00  0.00    +0.025 A 
ATOM     19  C   UNL     1       6.077   5.970   0.065  0.00  0.00    +0.034 A 
ATOM     20  C   UNL     1       7.251   5.224   0.047  0.00  0.00    +0.025 A 
ATOM     21  C   UNL     1       8.472   5.856   0.124  0.00  0.00    +0.031 A 
BRANCH  16  23
ATOM     22  N   UNL     1      10.828   7.190   0.290  0.00  0.00    -0.149 NA
ATOM     23  N   UNL     1       9.738   7.880   0.311  0.00  0.00    -0.149 NA
BRANCH  22  27
ATOM     24  C   UNL     1      14.489   9.101   0.534  0.00  0.00    +0.000 A 
ATOM     25  C   UNL     1      14.437   7.722   0.430  0.00  0.00    +0.002 A 
ATOM     26  C   UNL     1      13.220   7.078   0.348  0.00  0.00    +0.029 A 
ATOM     27  C   UNL     1      12.037   7.822   0.371  0.00  0.00    +0.086 A 
ATOM     28  C   UNL     1      12.098   9.214   0.471  0.00  0.00    +0.029 A 
ATOM     29  C   UNL     1      13.322   9.844   0.557  0.00  0.00    +0.002 A 
ENDBRANCH  22  27
ENDBRANCH  16  23
ENDBRANCH   1  19
TORSDOF 4
