REMARK  Name = ZINC39696185
REMARK  9 active torsions:
REMARK  status: ('A' for Active; 'I' for Inactive)
REMARK    1  A    between atoms: C_1  and  C_2
REMARK    2  A    between atoms: C_2  and  C_3
REMARK    3  A    between atoms: C_6  and  C_9
REMARK    4  A    between atoms: C_9  and  C_11
REMARK    5  A    between atoms: C_9  and  N_12
REMARK    6  A    between atoms: C_13  and  C_15
REMARK    7  A    between atoms: C_26  and  C_28
REMARK    8  A    between atoms: C_33  and  O_34
REMARK    9  A    between atoms: O_34  and  C_35
REMARK                            x       y       z     vdW  Elec       q    Type
REMARK                         _______ _______ _______ _____ _____    ______ ____
ROOT
ATOM      1  C   UNL     1       2.817  -0.819   7.938  0.00  0.00    +0.100 C 
ATOM      2  C   UNL     1       1.461  -1.350   8.453  0.00  0.00    +0.121 C 
ATOM      3  N   UNL     1       1.810  -2.216   9.603  0.00  0.00    -0.296 N 
ATOM      4  C   UNL     1       2.906  -1.492  10.291  0.00  0.00    +0.115 C 
ATOM      5  C   UNL     1       3.762  -0.910   9.148  0.00  0.00    -0.004 C 
ATOM      6  C   UNL     1       4.273   0.477   9.525  0.00  0.00    -0.010 C 
ATOM      7  C   UNL     1       5.256   0.354  10.693  0.00  0.00    -0.082 C 
ATOM      8  N   UNL     1       6.375  -0.513  10.305  0.00  0.00    +0.379 N 
ATOM      9  C   UNL     1       5.886  -1.870  10.034  0.00  0.00    -0.082 C 
ATOM     10  C   UNL     1       4.930  -1.841   8.838  0.00  0.00    -0.010 C 
ATOM     11  C   UNL     1       1.256  -3.396   9.947  0.00  0.00    +0.252 C 
ATOM     12  O   UNL     1       1.589  -3.946  10.979  0.00  0.00    -0.270 OA
ATOM     13  H   UNL     1       6.813  -0.143   9.475  0.00  0.00    -0.086 HD
ATOM     14  H   UNL     1       7.051  -0.544  11.053  0.00  0.00    -0.086 HD
ENDROOT
BRANCH  11  15
ATOM     15  C   UNL     1       0.246  -4.019   9.072  0.00  0.00    +0.099 A 
ATOM     16  C   UNL     1      -0.662  -3.230   8.356  0.00  0.00    +0.020 A 
ATOM     17  C   UNL     1      -1.589  -3.863   7.548  0.00  0.00    +0.021 A 
ATOM     18  C   UNL     1      -1.594  -5.245   7.472  0.00  0.00    +0.114 A 
ATOM     19  N   UNL     1      -0.730  -5.970   8.155  0.00  0.00    -0.220 NA
ATOM     20  C   UNL     1       0.181  -5.415   8.937  0.00  0.00    +0.233 A 
BRANCH  20  21
ATOM     21  O   UNL     1       1.052  -6.197   9.616  0.00  0.00    -0.437 OA
BRANCH  21  22
ATOM     22  C   UNL     1       0.895  -7.545   9.537  0.00  0.00    +0.130 A 
ATOM     23  C   UNL     1       0.314  -8.239  10.589  0.00  0.00    +0.046 A 
ATOM     24  C   UNL     1       0.154  -9.609  10.506  0.00  0.00    +0.004 A 
ATOM     25  C   UNL     1       0.573 -10.288   9.377  0.00  0.00    +0.000 A 
ATOM     26  C   UNL     1       1.153  -9.598   8.328  0.00  0.00    +0.004 A 
ATOM     27  C   UNL     1       1.309  -8.228   8.403  0.00  0.00    +0.046 A 
ENDBRANCH  21  22
ENDBRANCH  20  21
ENDBRANCH  11  15
BRANCH   1  29
ATOM     28  N   UNL     1       4.117  -1.147   5.859  0.00  0.00    -0.308 N 
ATOM     29  C   UNL     1       3.325  -1.680   6.810  0.00  0.00    +0.219 C 
ATOM     30  O   UNL     1       3.020  -2.853   6.759  0.00  0.00    -0.275 OA
ATOM     31  H   UNL     1       4.361  -0.209   5.901  0.00  0.00    +0.149 HD
BRANCH  28  32
ATOM     32  C   UNL     1       4.610  -1.984   4.763  0.00  0.00    +0.100 C 
ATOM     33  C   UNL     1       3.560  -2.039   3.651  0.00  0.00    +0.033 C 
BRANCH  32  37
ATOM     34  C   UNL     1       8.231  -0.325   3.220  0.00  0.00    -0.048 A 
ATOM     35  C   UNL     1       8.104  -1.694   3.361  0.00  0.00    +0.004 A 
ATOM     36  C   UNL     1       6.932  -2.231   3.861  0.00  0.00    +0.006 A 
ATOM     37  C   UNL     1       5.888  -1.399   4.219  0.00  0.00    -0.027 A 
ATOM     38  C   UNL     1       6.016  -0.030   4.078  0.00  0.00    +0.006 A 
ATOM     39  C   UNL     1       7.189   0.508   3.583  0.00  0.00    +0.004 A 
BRANCH  34  41
ATOM     40  C   UNL     1      10.473   0.541   3.829  0.00  0.00    +0.009 C 
ATOM     41  C   UNL     1       9.508   0.260   2.675  0.00  0.00    +0.032 C 
ENDBRANCH  34  41
ENDBRANCH  32  37
ENDBRANCH  28  32
ENDBRANCH   1  29
TORSDOF 7
