REMARK  Name = ZINC13333046
REMARK  12 active torsions:
REMARK  status: ('A' for Active; 'I' for Inactive)
REMARK    1  A    between atoms: C_1  and  C_2
REMARK    2  A    between atoms: C_2  and  N_3
REMARK    3  A    between atoms: C_4  and  C_35
REMARK    4  A    between atoms: C_6  and  C_9
REMARK    5  A    between atoms: C_7  and  C_8
REMARK    6  A    between atoms: C_9  and  C_11
REMARK    7  A    between atoms: C_11  and  S_12
REMARK    8  A    between atoms: S_12  and  C_13
REMARK    9  A    between atoms: N_23  and  C_24
REMARK   10  A    between atoms: C_24  and  C_26
REMARK   11  A    between atoms: C_24  and  C_33
REMARK   12  A    between atoms: C_26  and  C_27
REMARK                            x       y       z     vdW  Elec       q    Type
REMARK                         _______ _______ _______ _____ _____    ______ ____
ROOT
ATOM      1  C   UNL     1       2.789  -2.441   8.422  0.00  0.00    +0.173 A 
ATOM      2  N   UNL     1       3.476  -1.328   8.334  0.00  0.00    -0.223 NA
ATOM      3  C   UNL     1       4.453  -1.030   9.214  0.00  0.00    +0.079 A 
ATOM      4  C   UNL     1       5.186   0.157   9.121  0.00  0.00    +0.028 A 
ATOM      5  C   UNL     1       6.168   0.419  10.034  0.00  0.00    +0.002 A 
ATOM      6  C   UNL     1       6.450  -0.477  11.057  0.00  0.00    +0.001 A 
ATOM      7  C   UNL     1       5.750  -1.647  11.175  0.00  0.00    +0.015 A 
ATOM      8  C   UNL     1       4.743  -1.940  10.257  0.00  0.00    +0.065 A 
ATOM      9  C   UNL     1       3.959  -3.180  10.334  0.00  0.00    +0.263 A 
ATOM     10  O   UNL     1       4.162  -4.002  11.209  0.00  0.00    -0.267 OA
ATOM     11  N   UNL     1       2.999  -3.371   9.399  0.00  0.00    -0.273 N 
ENDROOT
BRANCH   1  12
ATOM     12  S   UNL     1       1.531  -2.747   7.227  0.00  0.00    -0.080 S 
BRANCH  12  13
ATOM     13  C   UNL     1       1.679  -1.248   6.223  0.00  0.00    +0.157 C 
BRANCH  13  14
ATOM     14  C   UNL     1       0.670  -1.290   5.105  0.00  0.00    +0.175 C 
ATOM     15  O   UNL     1      -0.077  -2.240   4.998  0.00  0.00    -0.291 OA
BRANCH  14  19
ATOM     16  N   UNL     1      -0.020   1.094   2.454  0.00  0.00    -0.348 N 
ATOM     17  C   UNL     1       0.991   1.760   3.084  0.00  0.00    +0.017 A 
ATOM     18  C   UNL     1       1.412   1.034   4.132  0.00  0.00    +0.034 A 
ATOM     19  C   UNL     1       0.590  -0.184   4.149  0.00  0.00    +0.039 A 
ATOM     20  C   UNL     1      -0.278  -0.068   3.079  0.00  0.00    +0.026 A 
ATOM     21  C   UNL     1      -1.329  -1.072   2.682  0.00  0.00    +0.064 C 
ATOM     22  C   UNL     1       1.546   3.099   2.669  0.00  0.00    +0.063 C 
BRANCH  16  24
ATOM     23  C   UNL     1      -0.013   1.086   0.008  0.00  0.00    +0.027 C 
ATOM     24  C   UNL     1      -0.729   1.579   1.267  0.00  0.00    +0.118 C 
ENDBRANCH  16  24
ENDBRANCH  14  19
ENDBRANCH  13  14
ENDBRANCH  12  13
ENDBRANCH   1  12
BRANCH  11  25
ATOM     25  C   UNL     1       2.184  -4.588   9.432  0.00  0.00    +0.209 C 
BRANCH  25  26
ATOM     26  C   UNL     1       1.436  -4.656  10.738  0.00  0.00    +0.379 C 
ATOM     27  O   UNL     1       1.570  -3.778  11.558  0.00  0.00    -0.244 OA
ATOM     28  O   UNL     1       0.621  -5.692  10.992  0.00  0.00    -0.244 OA
ENDBRANCH  25  26
BRANCH  25  29
ATOM     29  C   UNL     1       3.091  -5.813   9.299  0.00  0.00    +0.072 C 
BRANCH  29  30
ATOM     30  C   UNL     1       3.746  -5.809   7.942  0.00  0.00    -0.045 A 
ATOM     31  C   UNL     1       3.133  -6.441   6.877  0.00  0.00    +0.004 A 
ATOM     32  C   UNL     1       3.732  -6.433   5.630  0.00  0.00    +0.000 A 
ATOM     33  C   UNL     1       4.948  -5.801   5.452  0.00  0.00    +0.000 A 
ATOM     34  C   UNL     1       5.563  -5.173   6.519  0.00  0.00    +0.000 A 
ATOM     35  C   UNL     1       4.962  -5.176   7.763  0.00  0.00    +0.004 A 
ENDBRANCH  29  30
ENDBRANCH  25  29
ENDBRANCH  11  25
TORSDOF 9
