REMARK  Name = ZINC16037683
REMARK  6 active torsions:
REMARK  status: ('A' for Active; 'I' for Inactive)
REMARK    1  A    between atoms: C_1  and  C_2
REMARK    2  A    between atoms: C_5  and  N_9
REMARK    3  A    between atoms: C_6  and  C_8
REMARK    4  A    between atoms: N_18  and  C_30
REMARK    5  A    between atoms: C_20  and  C_21
REMARK    6  A    between atoms: C_24  and  N_27
REMARK                            x       y       z     vdW  Elec       q    Type
REMARK                         _______ _______ _______ _____ _____    ______ ____
ROOT
ATOM      1  N   UNL     1      -0.312  -4.248   0.533  0.00  0.00    -0.204 N 
ATOM      2  C   UNL     1      -1.324  -5.122   0.385  0.00  0.00    +0.257 C 
ATOM      3  O   UNL     1      -2.501  -4.817   0.311  0.00  0.00    -0.269 OA
ATOM      4  C   UNL     1      -0.833  -6.427   0.329  0.00  0.00    +0.069 C 
ATOM      5  H   UNL     1       0.522  -9.284   0.376  0.00  0.00    +0.170 HD
ATOM      6  C   UNL     1       0.641  -6.231  -0.058  0.00  0.00    +0.217 C 
ATOM      7  C   UNL     1       0.902  -4.829   0.404  0.00  0.00    +0.253 C 
ATOM      8  O   UNL     1       1.981  -4.321   0.619  0.00  0.00    -0.272 OA
ATOM      9  N   UNL     1       1.253  -7.296   0.752  0.00  0.00    -0.237 N 
ATOM     10  N   UNL     1       0.315  -8.346   0.510  0.00  0.00    -0.262 N 
ATOM     11  C   UNL     1      -0.946  -7.770   0.502  0.00  0.00    +0.062 C 
ENDROOT
BRANCH   1  16
ATOM     12  C   UNL     1      -1.060   1.281   1.567  0.00  0.00    +0.044 C 
ATOM     13  C   UNL     1      -0.862  -0.187   1.293  0.00  0.00    -0.050 A 
ATOM     14  C   UNL     1      -0.792  -0.642  -0.011  0.00  0.00    +0.005 A 
ATOM     15  C   UNL     1      -0.610  -1.987  -0.266  0.00  0.00    +0.024 A 
ATOM     16  C   UNL     1      -0.497  -2.883   0.789  0.00  0.00    +0.047 A 
ATOM     17  C   UNL     1      -0.567  -2.423   2.097  0.00  0.00    -0.028 A 
ATOM     18  C   UNL     1      -0.744  -1.076   2.345  0.00  0.00    +0.008 A 
ATOM     19  C   UNL     1      -0.444  -3.392   3.244  0.00  0.00    +0.046 C 
ENDBRANCH   1  16
BRANCH  11  20
ATOM     20  C   UNL     1      -2.217  -8.505   0.658  0.00  0.00    -0.002 A 
ATOM     21  C   UNL     1      -3.433  -7.817   0.629  0.00  0.00    +0.012 A 
ATOM     22  C   UNL     1      -4.617  -8.509   0.775  0.00  0.00    +0.033 A 
ATOM     23  C   UNL     1      -4.602  -9.882   0.951  0.00  0.00    +0.126 A 
ATOM     24  C   UNL     1      -3.402 -10.569   0.981  0.00  0.00    +0.033 A 
ATOM     25  C   UNL     1      -2.211  -9.890   0.831  0.00  0.00    +0.012 A 
BRANCH  23  26
ATOM     26  N   UNL     1      -5.877 -10.617   1.109  0.00  0.00    +0.056 N 
ATOM     27  O   UNL     1      -6.927 -10.020   1.083  0.00  0.00    -0.126 OA
ATOM     28  O   UNL     1      -5.868 -11.817   1.263  0.00  0.00    -0.126 OA
ENDBRANCH  23  26
ENDBRANCH  11  20
BRANCH   9  29
ATOM     29  C   UNL     1       2.413  -7.285   1.530  0.00  0.00    +0.049 A 
ATOM     30  C   UNL     1       2.392  -7.803   2.819  0.00  0.00    +0.025 A 
ATOM     31  C   UNL     1       3.540  -7.790   3.585  0.00  0.00    +0.002 A 
ATOM     32  C   UNL     1       4.711  -7.263   3.071  0.00  0.00    +0.000 A 
ATOM     33  C   UNL     1       4.735  -6.746   1.789  0.00  0.00    +0.002 A 
ATOM     34  C   UNL     1       3.591  -6.761   1.015  0.00  0.00    +0.025 A 
ENDBRANCH   9  29
TORSDOF 4
