REMARK  Name = ZINC44335224
REMARK  7 active torsions:
REMARK  status: ('A' for Active; 'I' for Inactive)
REMARK    1  A    between atoms: C_1  and  O_2
REMARK    2  A    between atoms: O_2  and  C_3
REMARK    3  A    between atoms: C_3  and  C_5
REMARK    4  A    between atoms: C_5  and  C_7
REMARK    5  A    between atoms: C_5  and  N_18
REMARK    6  A    between atoms: C_7  and  C_8
REMARK    7  A    between atoms: C_13  and  O_14
REMARK                            x       y       z     vdW  Elec       q    Type
REMARK                         _______ _______ _______ _____ _____    ______ ____
ROOT
ATOM      1  C   UNL     1      -0.963  -4.153  -1.412  0.00  0.00    -0.005 A 
ATOM      2  C   UNL     1       0.260  -4.792  -1.343  0.00  0.00    +0.024 A 
ATOM      3  C   UNL     1       0.321  -6.173  -1.334  0.00  0.00    +0.038 A 
ATOM      4  C   UNL     1      -0.844  -6.920  -1.393  0.00  0.00    +0.072 A 
ATOM      5  C   UNL     1      -2.070  -6.284  -1.461  0.00  0.00    +0.079 A 
ATOM      6  C   UNL     1      -2.132  -4.897  -1.465  0.00  0.00    +0.135 A 
ATOM      7 BR   UNL     1      -3.662  -7.302  -1.543  0.00  0.00    -0.045 Br
ATOM      8 CL   UNL     1      -0.765  -8.654  -1.381  0.00  0.00    -0.081 Cl
ATOM      9 BR   UNL     1       1.997  -7.045  -1.240  0.00  0.00    -0.049 Br
ENDROOT
BRANCH   6  10
ATOM     10  O   UNL     1      -3.336  -4.270  -1.527  0.00  0.00    -0.505 OA
ATOM     11  H   UNL     1      -3.642  -4.093  -2.427  0.00  0.00    +0.292 HD
ENDBRANCH   6  10
BRANCH   1  12
ATOM     12  C   UNL     1      -1.027  -2.647  -1.423  0.00  0.00    +0.033 C 
BRANCH  12  13
ATOM     13  C   UNL     1      -1.244  -2.135   0.003  0.00  0.00    +0.040 C 
BRANCH  13  14
ATOM     14  N   UNL     1      -2.559  -2.577   0.486  0.00  0.00    +0.387 N 
ATOM     15  H   UNL     1      -2.702  -2.240   1.426  0.00  0.00    -0.089 HD
ATOM     16  H   UNL     1      -3.280  -2.209  -0.116  0.00  0.00    -0.089 HD
ATOM     17  H   UNL     1      -2.598  -3.585   0.481  0.00  0.00    -0.089 HD
ENDBRANCH  13  14
BRANCH  13  18
ATOM     18  C   UNL     1      -1.185  -0.630   0.010  0.00  0.00    +0.292 C 
ATOM     19  O   UNL     1      -2.208   0.015   0.023  0.00  0.00    -0.253 OA
BRANCH  18  21
ATOM     20  C   UNL     1      -0.017   1.425   0.010  0.00  0.00    +0.280 C 
ATOM     21  O   UNL     1       0.002  -0.004   0.002  0.00  0.00    -0.469 OA
ENDBRANCH  18  21
ENDBRANCH  13  18
ENDBRANCH  12  13
ENDBRANCH   1  12
TORSDOF 6
