REMARK  Name = ZINC64056396
REMARK  9 active torsions:
REMARK  status: ('A' for Active; 'I' for Inactive)
REMARK    1  A    between atoms: C_1  and  C_2
REMARK    2  A    between atoms: C_3  and  C_35
REMARK    3  A    between atoms: N_9  and  C_30
REMARK    4  A    between atoms: C_10  and  S_13
REMARK    5  A    between atoms: S_13  and  C_14
REMARK    6  A    between atoms: C_14  and  C_16
REMARK    7  A    between atoms: C_14  and  C_17
REMARK    8  A    between atoms: C_22  and  C_29
REMARK    9  A    between atoms: C_23  and  C_28
REMARK                            x       y       z     vdW  Elec       q    Type
REMARK                         _______ _______ _______ _____ _____    ______ ____
ROOT
ATOM      1  C   UNL     1      -0.222   1.028  -0.363  0.00  0.00    +0.045 C 
ATOM      2  C   UNL     1      -0.131  -0.469  -0.221  0.00  0.00    -0.027 A 
ATOM      3  C   UNL     1      -0.101  -1.284  -1.293  0.00  0.00    -0.008 A 
ATOM      4  S   UNL     1       0.007  -2.911  -0.572  0.00  0.00    -0.078 S 
ATOM      5  C   UNL     1       0.006  -2.511   1.037  0.00  0.00    +0.080 A 
ATOM      6  C   UNL     1      -0.066  -1.110   1.073  0.00  0.00    +0.068 A 
ATOM      7  C   UNL     1      -0.084  -0.455   2.401  0.00  0.00    +0.251 C 
ATOM      8  O   UNL     1      -0.278   0.742   2.514  0.00  0.00    -0.270 OA
ATOM      9  N   UNL     1       0.124  -1.237   3.480  0.00  0.00    -0.267 N 
ATOM     10  C   UNL     1       0.583  -2.620   3.391  0.00  0.00    +0.223 C 
ATOM     11  N   UNL     1       0.060  -3.277   2.176  0.00  0.00    -0.311 N 
ATOM     12  C   UNL     1      -0.147  -0.910  -2.752  0.00  0.00    +0.052 C 
ATOM     13  H   UNL     1      -0.223  -4.205   2.179  0.00  0.00    +0.149 HD
ENDROOT
BRANCH   9  14
ATOM     14  C   UNL     1      -0.123  -0.671   4.808  0.00  0.00    +0.079 C 
ATOM     15  C   UNL     1      -1.577  -0.164   4.904  0.00  0.00    +0.022 C 
ATOM     16  C   UNL     1      -1.475   1.125   5.758  0.00  0.00    +0.002 C 
ATOM     17  C   UNL     1      -0.150   1.757   5.264  0.00  0.00    +0.002 C 
ATOM     18  C   UNL     1       0.784   0.551   5.037  0.00  0.00    +0.022 C 
ENDBRANCH   9  14
BRANCH  10  19
ATOM     19  S   UNL     1       2.396  -2.644   3.357  0.00  0.00    -0.108 S 
BRANCH  19  20
ATOM     20  C   UNL     1       2.872  -2.334   5.080  0.00  0.00    +0.112 C 
ATOM     21  C   UNL     1       2.460  -3.527   5.945  0.00  0.00    +0.027 C 
BRANCH  20  22
ATOM     22  C   UNL     1       4.365  -2.145   5.163  0.00  0.00    +0.136 C 
ATOM     23  N   UNL     1       5.051  -2.121   4.045  0.00  0.00    -0.160 NA
ATOM     24  C   UNL     1       6.378  -1.959   4.014  0.00  0.00    +0.271 C 
ATOM     25  O   UNL     1       6.984  -1.941   2.956  0.00  0.00    -0.268 OA
ATOM     26  C   UNL     1       7.094  -1.800   5.319  0.00  0.00    +0.071 C 
ATOM     27  C   UNL     1       8.407  -1.626   5.531  0.00  0.00    -0.045 C 
ATOM     28  C   UNL     1       8.877  -1.491   6.962  0.00  0.00    +0.076 C 
ATOM     29  S   UNL     1       7.296  -1.636   7.889  0.00  0.00    -0.098 S 
ATOM     30  C   UNL     1       6.208  -1.846   6.502  0.00  0.00    +0.111 C 
ATOM     31  N   UNL     1       4.914  -2.008   6.359  0.00  0.00    -0.226 NA
ATOM     32  C   UNL     1       9.837  -2.623   7.333  0.00  0.00    +0.024 C 
ATOM     33  C   UNL     1       9.381  -1.569   4.383  0.00  0.00    +0.041 C 
ENDBRANCH  20  22
ENDBRANCH  19  20
ENDBRANCH  10  19
TORSDOF 4
