REMARK  Name = ZINC00708949
REMARK  7 active torsions:
REMARK  status: ('A' for Active; 'I' for Inactive)
REMARK    1  A    between atoms: C_1  and  C_2
REMARK    2  A    between atoms: C_2  and  O_3
REMARK    3  A    between atoms: O_3  and  C_4
REMARK    4  A    between atoms: C_7  and  N_10
REMARK    5  A    between atoms: C_11  and  C_13
REMARK    6  A    between atoms: C_14  and  C_28
REMARK    7  A    between atoms: C_19  and  C_21
REMARK                            x       y       z     vdW  Elec       q    Type
REMARK                         _______ _______ _______ _____ _____    ______ ____
ROOT
ATOM      1  C   UNL     1       2.802  -4.283   0.037  0.00  0.00    +0.056 C 
ATOM      2  C   UNL     1       3.904  -5.057   0.126  0.00  0.00    +0.019 C 
ATOM      3  N   UNL     1       3.810  -6.420   0.142  0.00  0.00    -0.273 N 
ATOM      4  C   UNL     1       2.649  -7.084   0.071  0.00  0.00    +0.304 C 
ATOM      5  O   UNL     1       2.665  -8.300   0.091  0.00  0.00    -0.252 OA
ATOM      6  N   UNL     1       1.464  -6.449  -0.022  0.00  0.00    -0.288 N 
ATOM      7  C   UNL     1       1.458  -4.977  -0.040  0.00  0.00    +0.142 C 
ATOM      8  C   UNL     1       5.261  -4.407   0.210  0.00  0.00    +0.061 C 
ATOM      9  H   UNL     1       4.629  -6.935   0.207  0.00  0.00    +0.156 HD
ATOM     10  H   UNL     1       0.635  -6.950  -0.072  0.00  0.00    +0.151 HD
ENDROOT
BRANCH   7  11
ATOM     11  C   UNL     1       0.779  -4.535  -1.311  0.00  0.00    -0.022 A 
ATOM     12  C   UNL     1       1.159  -5.081  -2.523  0.00  0.00    +0.007 A 
ATOM     13  C   UNL     1       0.533  -4.680  -3.688  0.00  0.00    +0.015 A 
ATOM     14  C   UNL     1      -0.466  -3.725  -3.643  0.00  0.00    +0.018 A 
ATOM     15  C   UNL     1      -0.843  -3.175  -2.430  0.00  0.00    +0.015 A 
ATOM     16  C   UNL     1      -0.221  -3.581  -1.265  0.00  0.00    +0.007 A 
ATOM     17 BR   UNL     1      -1.317  -3.170  -5.238  0.00  0.00    -0.050 Br
ENDBRANCH   7  11
BRANCH   1  19
ATOM     18  N   UNL     1       3.339  -2.237  -1.085  0.00  0.00    -0.282 N 
ATOM     19  C   UNL     1       2.899  -2.870   0.021  0.00  0.00    +0.248 C 
ATOM     20  O   UNL     1       2.586  -2.227   1.006  0.00  0.00    -0.270 OA
ATOM     21  H   UNL     1       3.470  -2.733  -1.908  0.00  0.00    +0.155 HD
BRANCH  18  25
ATOM     22  C   UNL     1       4.132   1.855  -0.969  0.00  0.00    +0.121 A 
ATOM     23  C   UNL     1       4.880   1.026  -1.793  0.00  0.00    +0.047 A 
ATOM     24  C   UNL     1       4.618  -0.329  -1.832  0.00  0.00    +0.027 A 
ATOM     25  C   UNL     1       3.605  -0.863  -1.046  0.00  0.00    +0.034 A 
ATOM     26  C   UNL     1       2.857  -0.033  -0.222  0.00  0.00    +0.027 A 
ATOM     27  C   UNL     1       3.120   1.322  -0.184  0.00  0.00    +0.047 A 
BRANCH  22  28
ATOM     28  O   UNL     1       4.391   3.189  -0.932  0.00  0.00    -0.492 OA
BRANCH  28  30
ATOM     29  C   UNL     1       4.017   5.446  -0.153  0.00  0.00    +0.048 C 
ATOM     30  C   UNL     1       3.581   3.982  -0.061  0.00  0.00    +0.225 C 
ENDBRANCH  28  30
ENDBRANCH  22  28
ENDBRANCH  18  25
ENDBRANCH   1  19
TORSDOF 5
