REMARK  Name = ZINC01747726
REMARK  9 active torsions:
REMARK  status: ('A' for Active; 'I' for Inactive)
REMARK    1  A    between atoms: C_1  and  C_2
REMARK    2  A    between atoms: C_2  and  N_48
REMARK    3  A    between atoms: C_3  and  C_4
REMARK    4  A    between atoms: C_3  and  N_48
REMARK    5  A    between atoms: C_5  and  C_6
REMARK    6  A    between atoms: C_5  and  N_48
REMARK    7  A    between atoms: C_7  and  O_28
REMARK    8  A    between atoms: C_13  and  C_24
REMARK    9  A    between atoms: C_14  and  C_17
REMARK                            x       y       z     vdW  Elec       q    Type
REMARK                         _______ _______ _______ _____ _____    ______ ____
ROOT
ATOM      1  C   UNL     1       2.069  -4.305   0.263  0.00  0.00    +0.020 A 
ATOM      2  C   UNL     1       1.754  -4.944  -0.924  0.00  0.00    +0.122 A 
ATOM      3  C   UNL     1       0.566  -4.655  -1.592  0.00  0.00    +0.046 A 
ATOM      4  C   UNL     1      -0.305  -3.736  -1.081  0.00  0.00    +0.019 A 
ATOM      5  C   UNL     1      -0.002  -3.084   0.115  0.00  0.00    +0.065 A 
ATOM      6  C   UNL     1       1.194  -3.368   0.796  0.00  0.00    +0.144 A 
ATOM      7  O   UNL     1       1.486  -2.737   1.951  0.00  0.00    -0.450 OA
ATOM      8  C   UNL     1       0.687  -1.824   2.509  0.00  0.00    +0.219 A 
ATOM      9  C   UNL     1      -0.501  -1.459   1.961  0.00  0.00    +0.076 A 
ATOM     10  C   UNL     1      -0.919  -2.087   0.696  0.00  0.00    +0.201 A 
ATOM     11  O   UNL     1      -1.972  -1.795   0.155  0.00  0.00    -0.286 OA
ENDROOT
BRANCH   9  12
ATOM     12  C   UNL     1      -1.357  -0.444   2.621  0.00  0.00    -0.009 A 
ATOM     13  C   UNL     1      -1.506   0.821   2.054  0.00  0.00    +0.009 A 
ATOM     14  C   UNL     1      -2.304   1.762   2.672  0.00  0.00    +0.002 A 
ATOM     15  C   UNL     1      -2.956   1.453   3.852  0.00  0.00    +0.020 A 
ATOM     16  C   UNL     1      -2.812   0.199   4.420  0.00  0.00    +0.042 A 
ATOM     17  C   UNL     1      -2.016  -0.751   3.810  0.00  0.00    +0.028 A 
ATOM     18 CL   UNL     1      -3.640  -0.184   5.897  0.00  0.00    -0.084 Cl
ENDBRANCH   9  12
BRANCH   8  19
ATOM     19  C   UNL     1       1.119  -1.177   3.800  0.00  0.00    +0.451 C 
ATOM     20  F   UNL     1       0.278  -1.597   4.836  0.00  0.00    -0.163 F 
ATOM     21  F   UNL     1       2.436  -1.547   4.090  0.00  0.00    -0.163 F 
ATOM     22  F   UNL     1       1.042   0.214   3.673  0.00  0.00    -0.163 F 
ENDBRANCH   8  19
BRANCH   2  23
ATOM     23  O   UNL     1       2.612  -5.860  -1.443  0.00  0.00    -0.506 OA
ATOM     24  H   UNL     1       2.410  -6.772  -1.195  0.00  0.00    +0.292 HD
ENDBRANCH   2  23
BRANCH   1  25
ATOM     25  C   UNL     1       3.358  -4.627   0.975  0.00  0.00    -0.036 C 
BRANCH  25  26
ATOM     26  N   UNL     1       3.077  -5.611   2.041  0.00  0.00    +0.382 N 
ATOM     27  H   UNL     1       2.207  -5.347   2.519  0.00  0.00    -0.081 HD
BRANCH  26  29
ATOM     28  C   UNL     1       4.210  -7.414   0.785  0.00  0.00    -0.017 C 
ATOM     29  C   UNL     1       2.912  -6.958   1.455  0.00  0.00    -0.082 C 
ENDBRANCH  26  29
BRANCH  26  30
ATOM     30  C   UNL     1       4.181  -5.620   3.024  0.00  0.00    -0.082 C 
ATOM     31  C   UNL     1       3.753  -6.448   4.238  0.00  0.00    -0.017 C 
ENDBRANCH  26  30
ENDBRANCH  25  26
ENDBRANCH   1  25
TORSDOF 7
