REMARK  Name = ZINC12524303
REMARK  8 active torsions:
REMARK  status: ('A' for Active; 'I' for Inactive)
REMARK    1  A    between atoms: C_1  and  C_2
REMARK    2  A    between atoms: C_2  and  C_34
REMARK    3  A    between atoms: N_9  and  C_33
REMARK    4  A    between atoms: C_11  and  P_12
REMARK    5  A    between atoms: P_12  and  C_21
REMARK    6  A    between atoms: P_12  and  N_27
REMARK    7  A    between atoms: N_13  and  C_14
REMARK    8  A    between atoms: C_32  and  N_69
REMARK                            x       y       z     vdW  Elec       q    Type
REMARK                         _______ _______ _______ _____ _____    ______ ____
ROOT
ATOM      1  P   UNL     1      -1.805   3.626  -2.926  0.00  0.00    +0.091 P 
ATOM      2  N   UNL     1      -0.345   3.341  -3.374  0.00  0.00    -0.242 NA
ENDROOT
BRANCH   1  13
ATOM      3  C   UNL     1      -3.449   7.717  -4.954  0.00  0.00    +0.022 C 
ATOM      4  C   UNL     1      -1.971   7.329  -4.875  0.00  0.00    +0.030 C 
ATOM      5  C   UNL     1      -1.333   7.389  -6.244  0.00  0.00    -0.015 A 
ATOM      6  C   UNL     1      -1.152   8.422  -7.138  0.00  0.00    +0.006 A 
ATOM      7  C   UNL     1      -0.527   8.186  -8.350  0.00  0.00    +0.000 A 
ATOM      8  C   UNL     1      -0.085   6.913  -8.660  0.00  0.00    +0.002 A 
ATOM      9  C   UNL     1      -0.265   5.877  -7.768  0.00  0.00    +0.024 A 
ATOM     10  C   UNL     1      -0.894   6.106  -6.545  0.00  0.00    +0.038 A 
ATOM     11  N   UNL     1      -1.183   5.231  -5.499  0.00  0.00    -0.305 N 
ATOM     12  C   UNL     1      -1.826   5.882  -4.456  0.00  0.00    +0.024 C 
ATOM     13  C   UNL     1      -2.235   5.344  -3.322  0.00  0.00    +0.059 C 
ATOM     14  C   UNL     1      -0.851   3.804  -5.501  0.00  0.00    +0.135 C 
ATOM     15  C   UNL     1      -1.228   8.246  -3.901  0.00  0.00    +0.022 C 
ENDBRANCH   1  13
BRANCH   1  16
ATOM     16  N   UNL     1      -1.941   3.382  -1.267  0.00  0.00    -0.266 NA
ATOM     17  C   UNL     1      -3.275   3.767  -0.785  0.00  0.00    +0.072 C 
ATOM     18  C   UNL     1      -3.383   3.456   0.710  0.00  0.00    -0.063 C 
ATOM     19  C   UNL     1      -1.000   3.801   0.955  0.00  0.00    -0.063 C 
ATOM     20  C   UNL     1      -0.891   4.111  -0.540  0.00  0.00    +0.072 C 
ATOM     21  C   UNL     1      -2.453   3.971   2.885  0.00  0.00    -0.096 C 
ATOM     22  N   UNL     1      -2.338   4.212   1.431  0.00  0.00    +0.379 N 
ATOM     23  H   UNL     1      -2.464   5.214   1.248  0.00  0.00    -0.082 HD
ENDBRANCH   1  16
BRANCH   2  24
ATOM     24  C   UNL     1       0.229   2.188  -3.065  0.00  0.00    +0.065 A 
ATOM     25  C   UNL     1      -0.495   1.194  -2.359  0.00  0.00    +0.030 A 
ATOM     26  C   UNL     1       0.106   0.011  -2.054  0.00  0.00    +0.040 A 
ATOM     27  C   UNL     1       1.430  -0.220  -2.420  0.00  0.00    +0.124 A 
ATOM     28  C   UNL     1       2.155   0.750  -3.108  0.00  0.00    +0.040 A 
ATOM     29  C   UNL     1       1.577   1.940  -3.432  0.00  0.00    +0.030 A 
ATOM     30  F   UNL     1       2.016  -1.396  -2.105  0.00  0.00    -0.205 F 
ENDBRANCH   2  24
BRANCH   1  31
ATOM     31  C   UNL     1      -2.935   2.505  -3.796  0.00  0.00    +0.010 A 
ATOM     32  C   UNL     1      -3.377   1.351  -3.176  0.00  0.00    +0.011 A 
ATOM     33  C   UNL     1      -4.241   0.498  -3.837  0.00  0.00    +0.001 A 
ATOM     34  C   UNL     1      -4.655   0.795  -5.122  0.00  0.00    +0.000 A 
ATOM     35  C   UNL     1      -4.209   1.946  -5.745  0.00  0.00    +0.001 A 
ATOM     36  C   UNL     1      -3.349   2.800  -5.082  0.00  0.00    +0.011 A 
ENDBRANCH   1  31
TORSDOF 4
