REMARK  Name = ZINC00681794
REMARK  5 active torsions:
REMARK  status: ('A' for Active; 'I' for Inactive)
REMARK    1  A    between atoms: C_1  and  C_2
REMARK    2  A    between atoms: C_5  and  C_8
REMARK    3  A    between atoms: C_13  and  C_18
REMARK    4  A    between atoms: C_22  and  N_24
REMARK    5  A    between atoms: C_35  and  C_37
REMARK                            x       y       z     vdW  Elec       q    Type
REMARK                         _______ _______ _______ _____ _____    ______ ____
ROOT
ATOM      1  C   UNL     1       0.708   9.573   0.130  0.00  0.00    +0.146 C 
ATOM      2  C   UNL     1       0.675   8.076  -0.063  0.00  0.00    +0.037 C 
ATOM      3  C   UNL     1       0.639   7.433  -1.243  0.00  0.00    +0.017 C 
ATOM      4  C   UNL     1       0.621   5.915  -1.295  0.00  0.00    +0.059 C 
ATOM      5  C   UNL     1      -0.112   5.359  -0.075  0.00  0.00    +0.032 C 
ATOM      6  C   UNL     1       0.627   5.845   1.177  0.00  0.00    +0.088 C 
ATOM      7  C   UNL     1       0.681   7.343   1.147  0.00  0.00    +0.163 C 
ATOM      8  O   UNL     1       0.732   7.949   2.200  0.00  0.00    -0.292 OA
ATOM      9  N   UNL     1       0.631   8.045  -2.455  0.00  0.00    -0.316 N 
ATOM     10  C   UNL     1      -0.174   9.123  -2.799  0.00  0.00    +0.053 A 
ATOM     11  C   UNL     1      -1.118   9.049  -3.808  0.00  0.00    +0.025 A 
ATOM     12  C   UNL     1      -1.804  10.193  -4.180  0.00  0.00    +0.002 A 
ATOM     13  C   UNL     1      -1.550  11.396  -3.548  0.00  0.00    +0.002 A 
ATOM     14  C   UNL     1      -0.622  11.466  -2.523  0.00  0.00    +0.025 A 
ATOM     15  C   UNL     1       0.053  10.320  -2.136  0.00  0.00    +0.058 A 
ATOM     16  N   UNL     1       0.963  10.330  -1.077  0.00  0.00    -0.258 N 
ATOM     17  C   UNL     1       2.094  11.055  -1.181  0.00  0.00    +0.218 C 
ATOM     18  O   UNL     1       2.890  11.070  -0.265  0.00  0.00    -0.276 OA
ATOM     19  C   UNL     1       2.370  11.847  -2.433  0.00  0.00    +0.110 C 
ATOM     20  H   UNL     1       1.235   7.703  -3.133  0.00  0.00    +0.152 HD
ENDROOT
BRANCH   1  25
ATOM     21  C   UNL     1      -4.378  11.251   2.302  0.00  0.00    +0.044 C 
ATOM     22  C   UNL     1      -3.051  10.814   1.735  0.00  0.00    -0.050 A 
ATOM     23  C   UNL     1      -1.895  10.984   2.473  0.00  0.00    +0.004 A 
ATOM     24  C   UNL     1      -0.678  10.583   1.953  0.00  0.00    +0.006 A 
ATOM     25  C   UNL     1      -0.619  10.011   0.696  0.00  0.00    -0.022 A 
ATOM     26  C   UNL     1      -1.775   9.845  -0.043  0.00  0.00    +0.006 A 
ATOM     27  C   UNL     1      -2.992  10.243   0.478  0.00  0.00    +0.004 A 
ENDBRANCH   1  25
BRANCH   5  28
ATOM     28  C   UNL     1      -0.107   3.852  -0.119  0.00  0.00    -0.041 A 
ATOM     29  C   UNL     1       1.093   3.166  -0.141  0.00  0.00    +0.004 A 
ATOM     30  C   UNL     1       1.098   1.784  -0.181  0.00  0.00    +0.002 A 
ATOM     31  C   UNL     1      -0.097   1.089  -0.199  0.00  0.00    +0.033 A 
ATOM     32  C   UNL     1      -1.296   1.776  -0.183  0.00  0.00    +0.126 A 
ATOM     33  C   UNL     1      -1.301   3.157  -0.138  0.00  0.00    +0.036 A 
BRANCH  32  34
ATOM     34  N   UNL     1      -2.575   1.031  -0.209  0.00  0.00    +0.056 N 
ATOM     35  O   UNL     1      -2.571  -0.186  -0.244  0.00  0.00    -0.126 OA
ATOM     36  O   UNL     1      -3.632   1.636  -0.195  0.00  0.00    -0.126 OA
ENDBRANCH  32  34
ENDBRANCH   5  28
TORSDOF 3
