REMARK  Name = ZINC40011293
REMARK  5 active torsions:
REMARK  status: ('A' for Active; 'I' for Inactive)
REMARK    1  A    between atoms: C_1  and  C_2
REMARK    2  A    between atoms: C_5  and  N_9
REMARK    3  A    between atoms: C_10  and  C_12
REMARK    4  A    between atoms: C_12  and  S_13
REMARK    5  A    between atoms: S_13  and  C_14
REMARK                            x       y       z     vdW  Elec       q    Type
REMARK                         _______ _______ _______ _____ _____    ______ ____
ROOT
ATOM      1  S   UNL     1      -0.257  -6.940  -2.898  0.00  0.00    -0.075 S 
ENDROOT
BRANCH   1   2
ATOM      2  C   UNL     1      -0.358  -8.691  -2.732  0.00  0.00    +0.208 C 
ATOM      3  N   UNL     1      -0.336  -9.199  -1.523  0.00  0.00    -0.227 NA
ATOM      4  C   UNL     1      -0.342 -10.655  -1.397  0.00  0.00    +0.252 C 
ATOM      5  C   UNL     1      -1.064 -11.188  -2.625  0.00  0.00    +0.117 C 
ATOM      6  C   UNL     1      -1.981 -12.077  -2.153  0.00  0.00    +0.025 A 
ATOM      7  C   UNL     1      -2.869 -12.967  -2.807  0.00  0.00    +0.012 A 
ATOM      8  C   UNL     1      -3.684 -13.725  -2.025  0.00  0.00    +0.001 A 
ATOM      9  C   UNL     1      -3.698 -13.679  -0.627  0.00  0.00    +0.002 A 
ATOM     10  C   UNL     1      -2.886 -12.870   0.104  0.00  0.00    +0.026 A 
ATOM     11  C   UNL     1      -1.962 -12.015  -0.659  0.00  0.00    +0.046 A 
ATOM     12  N   UNL     1      -1.069 -11.168  -0.245  0.00  0.00    -0.358 N 
ATOM     13  N   UNL     1      -0.838 -10.677  -3.839  0.00  0.00    -0.147 NA
ATOM     14  N   UNL     1      -0.461  -9.436  -3.860  0.00  0.00    -0.122 NA
ATOM     15  H   UNL     1      -0.912 -10.919   0.679  0.00  0.00    +0.162 HD
ENDBRANCH   1   2
BRANCH   1  16
ATOM     16  C   UNL     1      -0.136  -6.343  -1.190  0.00  0.00    +0.173 C 
BRANCH  16  18
ATOM     17  N   UNL     1       0.057  -4.171  -0.023  0.00  0.00    -0.284 N 
ATOM     18  C   UNL     1      -0.042  -4.839  -1.189  0.00  0.00    +0.228 C 
ATOM     19  O   UNL     1      -0.055  -4.230  -2.238  0.00  0.00    -0.275 OA
ATOM     20  H   UNL     1       0.149  -4.660   0.810  0.00  0.00    +0.155 HD
BRANCH  17  25
ATOM     21  C   UNL     1      -0.063   1.502   0.016  0.00  0.00    +0.044 C 
ATOM     22  C   UNL     1      -0.031  -0.005   0.006  0.00  0.00    -0.049 A 
ATOM     23  C   UNL     1      -0.622  -0.701  -1.033  0.00  0.00    +0.005 A 
ATOM     24  C   UNL     1      -0.594  -2.081  -1.045  0.00  0.00    +0.024 A 
ATOM     25  C   UNL     1       0.028  -2.771  -0.013  0.00  0.00    +0.047 A 
ATOM     26  C   UNL     1       0.621  -2.070   1.029  0.00  0.00    +0.039 A 
ATOM     27  C   UNL     1       0.595  -0.688   1.032  0.00  0.00    +0.020 A 
ATOM     28 BR   UNL     1       1.470  -3.004   2.437  0.00  0.00    -0.048 Br
ENDBRANCH  17  25
ENDBRANCH  16  18
ENDBRANCH   1  16
TORSDOF 4
