REMARK  Name = ZINC08914941
REMARK  12 active torsions:
REMARK  status: ('A' for Active; 'I' for Inactive)
REMARK    1  A    between atoms: C_1  and  C_2
REMARK    2  A    between atoms: C_2  and  C_3
REMARK    3  A    between atoms: C_3  and  S_4
REMARK    4  A    between atoms: S_4  and  C_5
REMARK    5  A    between atoms: C_14  and  C_16
REMARK    6  A    between atoms: C_14  and  C_17
REMARK    7  A    between atoms: C_18  and  S_20
REMARK    8  A    between atoms: S_20  and  C_21
REMARK    9  A    between atoms: C_21  and  C_22
REMARK   10  A    between atoms: N_24  and  C_25
REMARK   11  A    between atoms: C_28  and  C_31
REMARK   12  A    between atoms: C_31  and  C_33
REMARK                            x       y       z     vdW  Elec       q    Type
REMARK                         _______ _______ _______ _____ _____    ______ ____
ROOT
ATOM      1  C   UNL     1      -1.053   1.623  -4.009  0.00  0.00    +0.190 A 
ATOM      2  N   UNL     1      -0.856   1.310  -5.283  0.00  0.00    -0.215 NA
ATOM      3  C   UNL     1      -1.730   1.676  -6.200  0.00  0.00    +0.114 A 
ATOM      4  C   UNL     1      -2.891   2.404  -5.867  0.00  0.00    +0.043 A 
ATOM      5  C   UNL     1      -3.769   2.742  -6.985  0.00  0.00    -0.020 A 
ATOM      6  C   UNL     1      -3.388   2.330  -8.213  0.00  0.00    +0.021 A 
ATOM      7  S   UNL     1      -1.857   1.478  -7.959  0.00  0.00    -0.071 S 
ATOM      8  C   UNL     1      -4.128   2.562  -9.494  0.00  0.00    +0.203 C 
ATOM      9  O   UNL     1      -5.452   3.010  -9.165  0.00  0.00    -0.368 OA
ATOM     10  C   UNL     1      -5.474   4.064  -8.199  0.00  0.00    +0.068 C 
ATOM     11  C   UNL     1      -5.070   3.525  -6.823  0.00  0.00    +0.071 C 
ATOM     12  C   UNL     1      -4.494   5.160  -8.621  0.00  0.00    +0.041 C 
ATOM     13  C   UNL     1      -6.885   4.648  -8.117  0.00  0.00    +0.041 C 
ATOM     14  C   UNL     1      -3.047   2.708  -4.485  0.00  0.00    +0.110 A 
ATOM     15  N   UNL     1      -2.127   2.302  -3.625  0.00  0.00    -0.215 NA
ENDROOT
BRANCH   1  16
ATOM     16  S   UNL     1       0.129   1.122  -2.802  0.00  0.00    -0.086 S 
BRANCH  16  17
ATOM     17  C   UNL     1      -0.637   1.800  -1.310  0.00  0.00    +0.077 C 
BRANCH  17  19
ATOM     18  C   UNL     1      -0.411   2.053   1.166  0.00  0.00    +0.004 C 
ATOM     19  C   UNL     1       0.237   1.479  -0.096  0.00  0.00    +0.008 C 
ENDBRANCH  17  19
ENDBRANCH  16  17
ENDBRANCH   1  16
BRANCH  14  20
ATOM     20  S   UNL     1      -4.452   3.613  -3.926  0.00  0.00    -0.096 S 
BRANCH  20  21
ATOM     21  C   UNL     1      -4.096   3.681  -2.152  0.00  0.00    +0.171 C 
BRANCH  21  22
ATOM     22  C   UNL     1      -5.197   4.431  -1.448  0.00  0.00    +0.227 C 
ATOM     23  O   UNL     1      -6.130   4.876  -2.082  0.00  0.00    -0.275 OA
ATOM     24  N   UNL     1      -5.145   4.607  -0.113  0.00  0.00    -0.285 N 
ATOM     25  H   UNL     1      -4.441   4.187   0.405  0.00  0.00    +0.155 HD
BRANCH  24  26
ATOM     26  C   UNL     1      -6.103   5.394   0.524  0.00  0.00    +0.033 A 
ATOM     27  C   UNL     1      -6.525   5.067   1.810  0.00  0.00    +0.024 A 
ATOM     28  C   UNL     1      -7.464   5.841   2.442  0.00  0.00    +0.013 A 
ATOM     29  C   UNL     1      -8.006   6.954   1.788  0.00  0.00    +0.017 A 
ATOM     30  C   UNL     1      -7.583   7.275   0.493  0.00  0.00    +0.013 A 
ATOM     31  C   UNL     1      -6.639   6.499  -0.130  0.00  0.00    +0.024 A 
BRANCH  29  32
ATOM     32  C   UNL     1      -9.016   7.783   2.460  0.00  0.00    +0.160 C 
ATOM     33  O   UNL     1      -9.484   8.747   1.892  0.00  0.00    -0.292 OA
ATOM     34  C   UNL     1      -9.470   7.435   3.854  0.00  0.00    +0.091 C 
ENDBRANCH  29  32
ENDBRANCH  24  26
ENDBRANCH  21  22
ENDBRANCH  20  21
ENDBRANCH  14  20
TORSDOF 8
