REMARK  Name = ZINC16424863
REMARK  8 active torsions:
REMARK  status: ('A' for Active; 'I' for Inactive)
REMARK    1  A    between atoms: C_1  and  C_2
REMARK    2  A    between atoms: C_2  and  C_3
REMARK    3  A    between atoms: C_3  and  C_5
REMARK    4  A    between atoms: C_3  and  N_22
REMARK    5  A    between atoms: N_15  and  C_16
REMARK    6  A    between atoms: N_22  and  C_23
REMARK    7  A    between atoms: C_23  and  C_24
REMARK    8  A    between atoms: N_32  and  C_33
REMARK                            x       y       z     vdW  Elec       q    Type
REMARK                         _______ _______ _______ _____ _____    ______ ____
ROOT
ATOM      1  C   UNL     1      -2.517   1.045  -0.699  0.00  0.00    +0.144 C 
ENDROOT
BRANCH   1   2
ATOM      2  C   UNL     1      -1.057   1.389  -0.560  0.00  0.00    +0.138 A 
ATOM      3  N   UNL     1      -0.436   1.872  -1.593  0.00  0.00    -0.231 NA
ATOM      4  C   UNL     1       0.879   2.200  -1.545  0.00  0.00    +0.078 A 
ATOM      5  C   UNL     1       1.548   2.713  -2.658  0.00  0.00    +0.028 A 
ATOM      6  C   UNL     1       2.884   3.032  -2.564  0.00  0.00    +0.002 A 
ATOM      7  C   UNL     1       3.577   2.849  -1.374  0.00  0.00    +0.001 A 
ATOM      8  C   UNL     1       2.939   2.344  -0.262  0.00  0.00    +0.015 A 
ATOM      9  C   UNL     1       1.587   2.015  -0.336  0.00  0.00    +0.065 A 
ATOM     10  C   UNL     1       0.855   1.472   0.817  0.00  0.00    +0.266 A 
ATOM     11  O   UNL     1       1.406   1.289   1.887  0.00  0.00    -0.267 OA
ATOM     12  N   UNL     1      -0.456   1.184   0.644  0.00  0.00    -0.263 N 
BRANCH  12  13
ATOM     13  C   UNL     1      -1.200   0.665   1.711  0.00  0.00    +0.051 A 
ATOM     14  C   UNL     1      -2.164   1.447   2.333  0.00  0.00    +0.026 A 
ATOM     15  C   UNL     1      -2.900   0.930   3.381  0.00  0.00    +0.002 A 
ATOM     16  C   UNL     1      -2.669  -0.362   3.818  0.00  0.00    +0.000 A 
ATOM     17  C   UNL     1      -1.706  -1.141   3.205  0.00  0.00    +0.002 A 
ATOM     18  C   UNL     1      -0.971  -0.632   2.152  0.00  0.00    +0.026 A 
ENDBRANCH  12  13
ENDBRANCH   1   2
BRANCH   1  19
ATOM     19  N   UNL     1      -3.287   2.268  -0.938  0.00  0.00    -0.271 N 
ATOM     20  C   UNL     1      -4.325   2.579  -0.136  0.00  0.00    +0.307 C 
ATOM     21  O   UNL     1      -4.622   1.844   0.786  0.00  0.00    -0.252 OA
ATOM     22  N   UNL     1      -5.033   3.704  -0.356  0.00  0.00    -0.267 N 
ATOM     23  H   UNL     1      -4.834   4.259  -1.127  0.00  0.00    +0.156 HD
BRANCH  22  24
ATOM     24  C   UNL     1      -6.056   4.072   0.527  0.00  0.00    +0.070 A 
ATOM     25  C   UNL     1      -6.723   3.102   1.262  0.00  0.00    +0.026 A 
ATOM     26  C   UNL     1      -7.727   3.468   2.137  0.00  0.00    +0.002 A 
ATOM     27  C   UNL     1      -8.077   4.799   2.273  0.00  0.00    +0.003 A 
ATOM     28  C   UNL     1      -7.420   5.769   1.539  0.00  0.00    +0.040 A 
ATOM     29  C   UNL     1      -6.409   5.410   0.666  0.00  0.00    +0.145 A 
ATOM     30  F   UNL     1      -5.767   6.357  -0.052  0.00  0.00    -0.204 F 
ENDBRANCH  22  24
BRANCH  19  31
ATOM     31  C   UNL     1      -2.929   3.153  -2.049  0.00  0.00    +0.145 C 
BRANCH  31  32
ATOM     32  C   UNL     1      -3.736   2.783  -3.267  0.00  0.00    -0.030 A 
ATOM     33  C   UNL     1      -3.187   1.970  -4.240  0.00  0.00    +0.005 A 
ATOM     34  C   UNL     1      -3.929   1.627  -5.354  0.00  0.00    +0.000 A 
ATOM     35  C   UNL     1      -5.218   2.104  -5.500  0.00  0.00    +0.000 A 
ATOM     36  C   UNL     1      -5.766   2.922  -4.529  0.00  0.00    +0.000 A 
ATOM     37  C   UNL     1      -5.025   3.261  -3.412  0.00  0.00    +0.005 A 
ENDBRANCH  31  32
ENDBRANCH  19  31
ENDBRANCH   1  19
BRANCH   1  39
ATOM     38  C   UNL     1      -2.032  -1.251  -1.557  0.00  0.00    +0.006 C 
ATOM     39  C   UNL     1      -2.705   0.085  -1.876  0.00  0.00    +0.027 C 
ENDBRANCH   1  39
TORSDOF 7
