REMARK  Name = ZINC35991109
REMARK  14 active torsions:
REMARK  status: ('A' for Active; 'I' for Inactive)
REMARK    1  A    between atoms: C_1  and  C_2
REMARK    2  A    between atoms: C_2  and  N_3
REMARK    3  A    between atoms: C_4  and  C_26
REMARK    4  A    between atoms: C_5  and  C_21
REMARK    5  A    between atoms: C_6  and  C_11
REMARK    6  A    between atoms: C_14  and  C_17
REMARK    7  A    between atoms: C_17  and  C_18
REMARK    8  A    between atoms: C_17  and  C_19
REMARK    9  A    between atoms: C_17  and  C_20
REMARK   10  A    between atoms: C_21  and  O_23
REMARK   11  A    between atoms: O_23  and  C_24
REMARK   12  A    between atoms: C_24  and  C_25
REMARK   13  A    between atoms: C_26  and  N_27
REMARK   14  A    between atoms: C_30  and  C_33
REMARK                            x       y       z     vdW  Elec       q    Type
REMARK                         _______ _______ _______ _____ _____    ______ ____
ROOT
ATOM      1  N   UNL     1      -1.738  -0.274   0.121  0.00  0.00    -0.261 N 
ATOM      2  C   UNL     1      -2.034  -0.852   1.323  0.00  0.00    +0.010 C 
ATOM      3  C   UNL     1      -3.144  -1.605   1.479  0.00  0.00    +0.076 C 
ATOM      4  C   UNL     1      -4.049  -1.786   0.277  0.00  0.00    +0.143 C 
ATOM      5  N   UNL     1      -3.640  -1.121  -0.972  0.00  0.00    -0.288 N 
ATOM      6  C   UNL     1      -2.503  -0.397  -0.970  0.00  0.00    +0.307 C 
ATOM      7  O   UNL     1      -2.159   0.159  -1.995  0.00  0.00    -0.252 OA
ATOM      8  H   UNL     1      -4.177  -1.200  -1.775  0.00  0.00    +0.151 HD
ENDROOT
BRANCH   4   9
ATOM      9  C   UNL     1      -5.419  -1.278   0.646  0.00  0.00    -0.022 A 
ATOM     10  C   UNL     1      -5.684   0.078   0.615  0.00  0.00    +0.006 A 
ATOM     11  C   UNL     1      -6.941   0.544   0.953  0.00  0.00    +0.004 A 
ATOM     12  C   UNL     1      -7.933  -0.346   1.321  0.00  0.00    -0.042 A 
ATOM     13  C   UNL     1      -7.667  -1.703   1.351  0.00  0.00    +0.004 A 
ATOM     14  C   UNL     1      -6.412  -2.169   1.009  0.00  0.00    +0.006 A 
BRANCH  12  15
ATOM     15  C   UNL     1      -9.302   0.162   1.691  0.00  0.00    -0.013 C 
ATOM     16  C   UNL     1      -9.905   0.915   0.503  0.00  0.00    +0.015 C 
ATOM     17  C   UNL     1     -10.203  -1.020   2.055  0.00  0.00    +0.015 C 
ATOM     18  C   UNL     1      -9.190   1.106   2.889  0.00  0.00    +0.015 C 
ENDBRANCH  12  15
ENDBRANCH   4   9
BRANCH   1  20
ATOM     19  C   UNL     1      -0.834   1.984   0.380  0.00  0.00    +0.025 C 
ATOM     20  C   UNL     1      -0.517   0.530   0.023  0.00  0.00    +0.111 C 
ENDBRANCH   1  20
BRANCH   3  21
ATOM     21  C   UNL     1      -3.452  -2.204   2.723  0.00  0.00    +0.339 C 
ATOM     22  O   UNL     1      -2.761  -1.974   3.697  0.00  0.00    -0.245 OA
BRANCH  21  23
ATOM     23  O   UNL     1      -4.513  -3.032   2.829  0.00  0.00    -0.462 OA
BRANCH  23  24
ATOM     24  C   UNL     1      -4.764  -3.602   4.115  0.00  0.00    +0.229 C 
ATOM     25  C   UNL     1      -5.997  -4.506   4.039  0.00  0.00    +0.048 C 
ENDBRANCH  23  24
ENDBRANCH  21  23
ENDBRANCH   3  21
BRANCH   2  26
ATOM     26  C   UNL     1      -1.107  -0.646   2.493  0.00  0.00    -0.026 C 
BRANCH  26  27
ATOM     27  N   UNL     1      -0.247  -1.826   2.650  0.00  0.00    +0.383 N 
ATOM     28  C   UNL     1       0.637  -1.944   1.484  0.00  0.00    -0.078 C 
ATOM     29  C   UNL     1       1.478  -3.216   1.604  0.00  0.00    -0.016 C 
ATOM     30  C   UNL     1       2.321  -3.146   2.880  0.00  0.00    -0.018 C 
ATOM     31  C   UNL     1       1.394  -2.948   4.082  0.00  0.00    -0.016 C 
ATOM     32  C   UNL     1       0.556  -1.686   3.871  0.00  0.00    -0.078 C 
ATOM     33  C   UNL     1       3.106  -4.449   3.047  0.00  0.00    +0.007 C 
ATOM     34  H   UNL     1      -0.821  -2.653   2.719  0.00  0.00    -0.081 HD
ENDBRANCH  26  27
ENDBRANCH   2  26
TORSDOF 8
