REMARK  Name = ZINC62704049
REMARK  12 active torsions:
REMARK  status: ('A' for Active; 'I' for Inactive)
REMARK    1  A    between atoms: C_1  and  C_2
REMARK    2  A    between atoms: C_2  and  C_3
REMARK    3  A    between atoms: C_3  and  C_4
REMARK    4  A    between atoms: C_3  and  C_5
REMARK    5  A    between atoms: C_3  and  N_6
REMARK    6  A    between atoms: C_7  and  C_9
REMARK    7  A    between atoms: C_9  and  O_10
REMARK    8  A    between atoms: O_10  and  C_11
REMARK    9  A    between atoms: C_14  and  C_18
REMARK   10  A    between atoms: C_18  and  C_19
REMARK   11  A    between atoms: C_19  and  C_21
REMARK   12  A    between atoms: C_19  and  N_22
REMARK                            x       y       z     vdW  Elec       q    Type
REMARK                         _______ _______ _______ _____ _____    ______ ____
ROOT
ATOM      1  C   UNL     1       2.185  -5.974   3.530  0.00  0.00    +0.135 A 
ATOM      2  C   UNL     1       1.642  -6.822   2.576  0.00  0.00    +0.047 A 
ATOM      3  C   UNL     1       1.754  -8.191   2.727  0.00  0.00    +0.007 A 
ATOM      4  C   UNL     1       2.406  -8.716   3.827  0.00  0.00    -0.048 A 
ATOM      5  C   UNL     1       2.947  -7.874   4.780  0.00  0.00    +0.022 A 
ATOM      6  C   UNL     1       2.843  -6.503   4.632  0.00  0.00    +0.060 A 
ATOM      7 BR   UNL     1       3.591  -5.351   5.931  0.00  0.00    -0.047 Br
ENDROOT
BRANCH   1   8
ATOM      8  O   UNL     1       2.076  -4.627   3.384  0.00  0.00    -0.482 OA
BRANCH   8   9
ATOM      9  C   UNL     1       1.385  -4.154   2.227  0.00  0.00    +0.324 C 
BRANCH   9  11
ATOM     10  N   UNL     1       0.762  -1.976   1.234  0.00  0.00    -0.308 N 
ATOM     11  C   UNL     1       1.364  -2.647   2.235  0.00  0.00    +0.251 C 
ATOM     12  O   UNL     1       1.890  -2.038   3.143  0.00  0.00    -0.272 OA
ATOM     13  H   UNL     1       0.342  -2.462   0.507  0.00  0.00    +0.149 HD
BRANCH  10  14
ATOM     14  C   UNL     1       0.742  -0.511   1.242  0.00  0.00    +0.029 C 
ATOM     15  C   UNL     1       2.178   0.019   1.231  0.00  0.00    +0.031 C 
ATOM     16  C   UNL     1       0.026  -0.018   2.500  0.00  0.00    +0.031 C 
BRANCH  14  18
ATOM     17  C   UNL     1      -0.019   1.526   0.010  0.00  0.00    +0.006 C 
ATOM     18  C   UNL     1       0.002  -0.004   0.002  0.00  0.00    +0.022 C 
ENDBRANCH  14  18
ENDBRANCH  10  14
ENDBRANCH   9  11
ENDBRANCH   8   9
ENDBRANCH   1   8
BRANCH   4  19
ATOM     19  C   UNL     1       2.526 -10.210   3.989  0.00  0.00    +0.019 C 
BRANCH  19  20
ATOM     20  C   UNL     1       3.812 -10.694   3.316  0.00  0.00    -0.074 C 
ATOM     21  C   UNL     1       3.997 -12.188   3.587  0.00  0.00    -0.014 C 
BRANCH  20  22
ATOM     22  N   UNL     1       3.723 -10.466   1.868  0.00  0.00    +0.380 N 
ATOM     23  H   UNL     1       2.936 -10.975   1.495  0.00  0.00    -0.090 HD
ATOM     24  H   UNL     1       3.600  -9.480   1.690  0.00  0.00    -0.090 HD
ATOM     25  H   UNL     1       4.571 -10.785   1.424  0.00  0.00    -0.090 HD
ENDBRANCH  20  22
ENDBRANCH  19  20
ENDBRANCH   4  19
TORSDOF 8
