REMARK  Name = ZINC28055976
REMARK  4 active torsions:
REMARK  status: ('A' for Active; 'I' for Inactive)
REMARK    1  A    between atoms: C_1  and  O_2
REMARK    2  A    between atoms: O_2  and  C_3
REMARK    3  A    between atoms: C_6  and  C_9
REMARK    4  A    between atoms: C_20  and  C_22
REMARK                            x       y       z     vdW  Elec       q    Type
REMARK                         _______ _______ _______ _____ _____    ______ ____
ROOT
ATOM      1  C   UNL     1      -0.340   0.413   0.295  0.00  0.00    +0.174 C 
ATOM      2  C   UNL     1      -0.780   1.275  -0.862  0.00  0.00    +0.025 C 
ATOM      3  C   UNL     1      -0.051   2.301  -1.305  0.00  0.00    +0.050 C 
ATOM      4  C   UNL     1      -0.556   3.078  -2.463  0.00  0.00    +0.038 A 
ATOM      5  C   UNL     1      -0.051   4.334  -2.771  0.00  0.00    +0.013 A 
ATOM      6  C   UNL     1      -0.551   5.021  -3.861  0.00  0.00    +0.001 A 
ATOM      7  C   UNL     1      -1.548   4.461  -4.642  0.00  0.00    +0.004 A 
ATOM      8  C   UNL     1      -2.057   3.211  -4.341  0.00  0.00    +0.046 A 
ATOM      9  C   UNL     1      -1.567   2.514  -3.252  0.00  0.00    +0.131 A 
ATOM     10  O   UNL     1      -2.044   1.287  -2.921  0.00  0.00    -0.479 OA
ATOM     11  C   UNL     1      -2.100   0.966  -1.531  0.00  0.00    +0.234 C 
ATOM     12  N   UNL     1       1.173   2.656  -0.724  0.00  0.00    -0.282 N 
ATOM     13  C   UNL     1       1.753   1.742   0.141  0.00  0.00    +0.240 A 
ATOM     14  N   UNL     1       1.054   0.680   0.620  0.00  0.00    -0.201 N 
ATOM     15  N   UNL     1       1.948  -0.017   1.431  0.00  0.00    -0.042 NA
ATOM     16  N   UNL     1       3.064   0.637   1.397  0.00  0.00    -0.021 NA
ATOM     17  N   UNL     1       2.953   1.674   0.639  0.00  0.00    -0.092 NA
ATOM     18  H   UNL     1       1.634   3.626  -0.962  0.00  0.00    +0.155 HD
ENDROOT
BRANCH  11  19
ATOM     19  C   UNL     1      -3.190   1.776  -0.877  0.00  0.00    -0.002 A 
ATOM     20  C   UNL     1      -4.085   1.163  -0.019  0.00  0.00    +0.010 A 
ATOM     21  C   UNL     1      -5.085   1.904   0.581  0.00  0.00    +0.040 A 
ATOM     22  C   UNL     1      -5.192   3.260   0.323  0.00  0.00    +0.137 A 
ATOM     23  C   UNL     1      -4.295   3.873  -0.537  0.00  0.00    +0.053 A 
ATOM     24  C   UNL     1      -3.291   3.130  -1.132  0.00  0.00    +0.025 A 
ATOM     25 BR   UNL     1      -4.438   5.725  -0.891  0.00  0.00    -0.047 Br
ATOM     26  F   UNL     1      -6.170   3.985   0.909  0.00  0.00    -0.204 F 
ENDBRANCH  11  19
BRANCH   1  30
ATOM     27  C   UNL     1      -2.776   1.274   3.699  0.00  0.00    +0.120 A 
ATOM     28  C   UNL     1      -2.753  -0.007   3.168  0.00  0.00    +0.046 A 
ATOM     29  C   UNL     1      -1.965  -0.283   2.067  0.00  0.00    +0.009 A 
ATOM     30  C   UNL     1      -1.199   0.717   1.496  0.00  0.00    -0.018 A 
ATOM     31  C   UNL     1      -1.216   1.993   2.027  0.00  0.00    +0.009 A 
ATOM     32  C   UNL     1      -2.007   2.276   3.123  0.00  0.00    +0.046 A 
BRANCH  27  34
ATOM     33  C   UNL     1      -3.526   2.890   5.274  0.00  0.00    +0.277 C 
ATOM     34  O   UNL     1      -3.551   1.549   4.781  0.00  0.00    -0.495 OA
ENDBRANCH  27  34
ENDBRANCH   1  30
TORSDOF 3
