REMARK  Name = ZINC36309945
REMARK  13 active torsions:
REMARK  status: ('A' for Active; 'I' for Inactive)
REMARK    1  A    between atoms: C_1  and  C_2
REMARK    2  A    between atoms: C_2  and  N_3
REMARK    3  A    between atoms: N_3  and  C_4
REMARK    4  A    between atoms: N_3  and  C_15
REMARK    5  A    between atoms: C_4  and  C_5
REMARK    6  A    between atoms: C_5  and  C_7
REMARK    7  A    between atoms: C_5  and  O_14
REMARK    8  A    between atoms: C_7  and  C_8
REMARK    9  A    between atoms: C_15  and  C_16
REMARK   10  A    between atoms: C_26  and  C_28
REMARK   11  A    between atoms: C_28  and  O_29
REMARK   12  A    between atoms: O_29  and  C_30
REMARK   13  A    between atoms: C_35  and  C_36
REMARK                            x       y       z     vdW  Elec       q    Type
REMARK                         _______ _______ _______ _____ _____    ______ ____
ROOT
ATOM      1  C   UNL     1       2.139  -2.144   0.376  0.00  0.00    +0.200 C 
ATOM      2  O   UNL     1       2.582  -1.274  -0.342  0.00  0.00    -0.278 OA
ATOM      3  N   UNL     1       2.592  -3.408   0.262  0.00  0.00    -0.292 N 
ATOM      4  C   UNL     1       2.057  -4.473   1.123  0.00  0.00    +0.113 C 
ATOM      5  C   UNL     1       1.323  -5.489   0.235  0.00  0.00    +0.061 C 
ATOM      6  C   UNL     1       2.148  -5.744  -0.984  0.00  0.00    -0.004 A 
ATOM      7  C   UNL     1       3.181  -5.001  -1.465  0.00  0.00    -0.014 A 
ATOM      8  C   UNL     1       3.786  -5.454  -2.637  0.00  0.00    +0.013 A 
ATOM      9  C   UNL     1       3.342  -6.584  -3.233  0.00  0.00    +0.046 A 
ATOM     10  S   UNL     1       2.015  -7.078  -2.145  0.00  0.00    -0.101 S 
ATOM     11  C   UNL     1       3.624  -3.743  -0.729  0.00  0.00    +0.144 C 
ENDROOT
BRANCH   1  12
ATOM     12  C   UNL     1       1.080  -1.813   1.396  0.00  0.00    +0.019 C 
BRANCH  12  13
ATOM     13  N   UNL     1       0.759  -0.381   1.322  0.00  0.00    +0.387 N 
ATOM     14  H   UNL     1       1.605   0.159   1.429  0.00  0.00    -0.081 HD
BRANCH  13  16
ATOM     15  C   UNL     1      -1.163  -0.856  -0.119  0.00  0.00    -0.017 C 
ATOM     16  C   UNL     1       0.150  -0.083   0.018  0.00  0.00    -0.081 C 
ENDBRANCH  13  16
BRANCH  13  17
ATOM     17  C   UNL     1      -0.183  -0.034   2.393  0.00  0.00    -0.046 C 
BRANCH  17  18
ATOM     18  C   UNL     1      -0.421   1.477   2.394  0.00  0.00    +0.102 C 
BRANCH  18  19
ATOM     19  O   UNL     1       0.818   2.154   2.617  0.00  0.00    -0.393 OA
ATOM     20  H   UNL     1       1.242   1.931   3.457  0.00  0.00    +0.210 HD
ENDBRANCH  18  19
BRANCH  18  21
ATOM     21  C   UNL     1      -1.406   1.838   3.508  0.00  0.00    +0.064 C 
BRANCH  21  22
ATOM     22  C   UNL     1      -1.735   3.307   3.431  0.00  0.00    -0.045 A 
ATOM     23  C   UNL     1      -0.966   4.224   4.123  0.00  0.00    +0.004 A 
ATOM     24  C   UNL     1      -1.268   5.571   4.053  0.00  0.00    +0.000 A 
ATOM     25  C   UNL     1      -2.337   6.001   3.290  0.00  0.00    +0.000 A 
ATOM     26  C   UNL     1      -3.106   5.084   2.597  0.00  0.00    +0.000 A 
ATOM     27  C   UNL     1      -2.801   3.737   2.664  0.00  0.00    +0.004 A 
ENDBRANCH  21  22
ENDBRANCH  18  21
ENDBRANCH  17  18
ENDBRANCH  13  17
ENDBRANCH  12  13
ENDBRANCH   1  12
BRANCH  11  28
ATOM     28  C   UNL     1       4.956  -4.003  -0.022  0.00  0.00    +0.256 C 
BRANCH  28  29
ATOM     29  O   UNL     1       4.838  -5.165   0.802  0.00  0.00    -0.490 OA
BRANCH  29  30
ATOM     30  C   UNL     1       5.941  -5.537   1.504  0.00  0.00    +0.123 A 
ATOM     31  C   UNL     1       7.110  -4.796   1.406  0.00  0.00    +0.046 A 
ATOM     32  C   UNL     1       8.229  -5.176   2.121  0.00  0.00    +0.004 A 
ATOM     33  C   UNL     1       8.185  -6.294   2.934  0.00  0.00    +0.000 A 
ATOM     34  C   UNL     1       7.021  -7.034   3.033  0.00  0.00    +0.007 A 
ATOM     35  C   UNL     1       5.897  -6.654   2.325  0.00  0.00    -0.009 A 
ATOM     36  C   UNL     1       4.627  -7.458   2.438  0.00  0.00    +0.047 C 
ENDBRANCH  29  30
ENDBRANCH  28  29
ENDBRANCH  11  28
TORSDOF 11
