REMARK  Name = ZINC35867472
REMARK  6 active torsions:
REMARK  status: ('A' for Active; 'I' for Inactive)
REMARK    1  A    between atoms: C_1  and  C_2
REMARK    2  A    between atoms: C_2  and  C_3
REMARK    3  A    between atoms: C_3  and  C_4
REMARK    4  A    between atoms: C_14  and  C_18
REMARK    5  A    between atoms: N_27  and  C_28
REMARK    6  A    between atoms: C_31  and  C_34
REMARK                            x       y       z     vdW  Elec       q    Type
REMARK                         _______ _______ _______ _____ _____    ______ ____
ROOT
ATOM      1  C   UNL     1       0.983  -1.325  -1.048  0.00  0.00    +0.132 A 
ATOM      2  N   UNL     1       1.992  -2.015  -0.546  0.00  0.00    -0.217 NA
ATOM      3  C   UNL     1       2.019  -3.338  -0.565  0.00  0.00    +0.133 A 
ATOM      4  C   UNL     1       0.929  -4.045  -1.142  0.00  0.00    +0.051 A 
ATOM      5  C   UNL     1       0.740  -5.491  -1.273  0.00  0.00    -0.025 A 
ATOM      6  C   UNL     1      -0.396  -5.908  -1.868  0.00  0.00    -0.004 A 
ATOM      7  S   UNL     1      -1.272  -4.424  -2.286  0.00  0.00    -0.073 S 
ATOM      8  C   UNL     1      -0.108  -3.242  -1.657  0.00  0.00    +0.114 A 
ATOM      9  N   UNL     1      -0.058  -1.925  -1.593  0.00  0.00    -0.225 NA
ATOM     10  C   UNL     1      -0.822  -7.322  -2.119  0.00  0.00    +0.046 C 
ATOM     11  C   UNL     1       0.053  -8.251  -1.266  0.00  0.00    -0.009 C 
ATOM     12  C   UNL     1       1.519  -7.845  -1.443  0.00  0.00    +0.008 C 
ATOM     13  C   UNL     1       1.769  -6.497  -0.765  0.00  0.00    +0.037 C 
ATOM     14  C   UNL     1      -0.141  -9.700  -1.720  0.00  0.00    +0.008 C 
ATOM     15  N   UNL     1       3.095  -4.023  -0.029  0.00  0.00    -0.312 N 
ATOM     16  C   UNL     1       4.352  -4.148  -0.781  0.00  0.00    +0.125 C 
ATOM     17  C   UNL     1       5.497  -3.614   0.088  0.00  0.00    +0.128 C 
ATOM     18  N   UNL     1       5.404  -4.231   1.419  0.00  0.00    -0.282 N 
ATOM     19  C   UNL     1       4.147  -4.107   2.171  0.00  0.00    +0.128 C 
ATOM     20  C   UNL     1       3.003  -4.636   1.304  0.00  0.00    +0.125 C 
ATOM     21  C   UNL     1       6.451  -4.899   1.941  0.00  0.00    +0.307 C 
ATOM     22  O   UNL     1       7.524  -4.889   1.369  0.00  0.00    -0.252 OA
ATOM     23  N   UNL     1       6.310  -5.579   3.096  0.00  0.00    -0.269 N 
ATOM     24  H   UNL     1       5.429  -5.694   3.486  0.00  0.00    +0.156 HD
ENDROOT
BRANCH  23  25
ATOM     25  C   UNL     1       7.430  -6.117   3.731  0.00  0.00    +0.035 A 
ATOM     26  C   UNL     1       8.572  -6.410   2.992  0.00  0.00    +0.024 A 
ATOM     27  C   UNL     1       9.679  -6.941   3.615  0.00  0.00    +0.020 A 
ATOM     28  C   UNL     1       9.655  -7.185   4.991  0.00  0.00    +0.052 A 
ATOM     29  C   UNL     1       8.506  -6.888   5.730  0.00  0.00    +0.020 A 
ATOM     30  C   UNL     1       7.404  -6.353   5.101  0.00  0.00    +0.024 A 
BRANCH  28  31
ATOM     31  C   UNL     1      10.804  -7.738   5.643  0.00  0.00    +0.099 C 
ATOM     32  N   UNL     1      11.716  -8.176   6.159  0.00  0.00    -0.191 NA
ENDBRANCH  28  31
ENDBRANCH  23  25
BRANCH   1  33
ATOM     33  C   UNL     1       1.018   0.180  -0.991  0.00  0.00    +0.076 C 
BRANCH  33  35
ATOM     34  C   UNL     1       0.413   2.185   0.371  0.00  0.00    +0.004 C 
ATOM     35  C   UNL     1       0.377   0.657   0.313  0.00  0.00    +0.004 C 
ENDBRANCH  33  35
ENDBRANCH   1  33
TORSDOF 4
