REMARK  Name = ZINC35867471
REMARK  6 active torsions:
REMARK  status: ('A' for Active; 'I' for Inactive)
REMARK    1  A    between atoms: C_1  and  C_2
REMARK    2  A    between atoms: C_2  and  C_3
REMARK    3  A    between atoms: C_3  and  C_4
REMARK    4  A    between atoms: C_14  and  C_18
REMARK    5  A    between atoms: N_27  and  C_28
REMARK    6  A    between atoms: C_31  and  C_34
REMARK                            x       y       z     vdW  Elec       q    Type
REMARK                         _______ _______ _______ _____ _____    ______ ____
ROOT
ATOM      1  C   UNL     1       0.825  -1.326  -0.724  0.00  0.00    +0.132 A 
ATOM      2  N   UNL     1       1.833  -2.028  -0.237  0.00  0.00    -0.217 NA
ATOM      3  C   UNL     1       2.011  -3.305  -0.534  0.00  0.00    +0.133 A 
ATOM      4  C   UNL     1       1.090  -3.948  -1.407  0.00  0.00    +0.051 A 
ATOM      5  C   UNL     1       1.085  -5.335  -1.875  0.00  0.00    -0.025 A 
ATOM      6  C   UNL     1       0.088  -5.696  -2.707  0.00  0.00    -0.004 A 
ATOM      7  S   UNL     1      -0.892  -4.234  -2.918  0.00  0.00    -0.073 S 
ATOM      8  C   UNL     1       0.042  -3.135  -1.885  0.00  0.00    +0.114 A 
ATOM      9  N   UNL     1      -0.064  -1.869  -1.533  0.00  0.00    -0.225 NA
ATOM     10  C   UNL     1      -0.139  -7.045  -3.321  0.00  0.00    +0.046 C 
ATOM     11  C   UNL     1       1.145  -7.872  -3.161  0.00  0.00    -0.009 C 
ATOM     12  C   UNL     1       1.626  -7.755  -1.712  0.00  0.00    +0.008 C 
ATOM     13  C   UNL     1       2.150  -6.343  -1.451  0.00  0.00    +0.037 C 
ATOM     14  C   UNL     1       0.856  -9.337  -3.493  0.00  0.00    +0.008 C 
ATOM     15  N   UNL     1       3.079  -4.006  -0.004  0.00  0.00    -0.312 N 
ATOM     16  C   UNL     1       4.320  -4.173  -0.773  0.00  0.00    +0.125 C 
ATOM     17  C   UNL     1       5.492  -3.651   0.068  0.00  0.00    +0.128 C 
ATOM     18  N   UNL     1       5.406  -4.241   1.411  0.00  0.00    -0.282 N 
ATOM     19  C   UNL     1       4.165  -4.074   2.180  0.00  0.00    +0.128 C 
ATOM     20  C   UNL     1       2.995  -4.591   1.342  0.00  0.00    +0.125 C 
ATOM     21  C   UNL     1       6.447  -4.923   1.928  0.00  0.00    +0.307 C 
ATOM     22  O   UNL     1       7.511  -4.947   1.340  0.00  0.00    -0.252 OA
ATOM     23  N   UNL     1       6.308  -5.580   3.097  0.00  0.00    -0.269 N 
ATOM     24  H   UNL     1       5.430  -5.679   3.496  0.00  0.00    +0.156 HD
ENDROOT
BRANCH  23  25
ATOM     25  C   UNL     1       7.428  -6.118   3.732  0.00  0.00    +0.035 A 
ATOM     26  C   UNL     1       8.571  -6.410   2.994  0.00  0.00    +0.024 A 
ATOM     27  C   UNL     1       9.678  -6.941   3.618  0.00  0.00    +0.020 A 
ATOM     28  C   UNL     1       9.652  -7.186   4.994  0.00  0.00    +0.052 A 
ATOM     29  C   UNL     1       8.503  -6.891   5.732  0.00  0.00    +0.020 A 
ATOM     30  C   UNL     1       7.401  -6.356   5.102  0.00  0.00    +0.024 A 
BRANCH  28  31
ATOM     31  C   UNL     1      10.802  -7.739   5.646  0.00  0.00    +0.099 C 
ATOM     32  N   UNL     1      11.713  -8.177   6.162  0.00  0.00    -0.191 NA
ENDBRANCH  28  31
ENDBRANCH  23  25
BRANCH   1  33
ATOM     33  C   UNL     1       0.685   0.125  -0.342  0.00  0.00    +0.076 C 
BRANCH  33  35
ATOM     34  C   UNL     1      -0.308   1.712   1.312  0.00  0.00    +0.004 C 
ATOM     35  C   UNL     1      -0.166   0.239   0.924  0.00  0.00    +0.004 C 
ENDBRANCH  33  35
ENDBRANCH   1  33
TORSDOF 4
