REMARK  Name = ZINC09497411
REMARK  10 active torsions:
REMARK  status: ('A' for Active; 'I' for Inactive)
REMARK    1  A    between atoms: C_1  and  C_2
REMARK    2  A    between atoms: C_2  and  O_3
REMARK    3  A    between atoms: O_3  and  C_4
REMARK    4  A    between atoms: C_6  and  C_13
REMARK    5  A    between atoms: C_9  and  O_10
REMARK    6  A    between atoms: O_10  and  C_11
REMARK    7  A    between atoms: C_18  and  C_22
REMARK    8  A    between atoms: C_18  and  C_23
REMARK    9  A    between atoms: C_25  and  C_35
REMARK   10  A    between atoms: C_26  and  C_27
REMARK                            x       y       z     vdW  Elec       q    Type
REMARK                         _______ _______ _______ _____ _____    ______ ____
ROOT
ATOM      1  C   UNL     1      -0.733   5.634  -1.072  0.00  0.00    +0.090 C 
ATOM      2  C   UNL     1      -1.213   7.005  -1.476  0.00  0.00    +0.024 C 
ATOM      3  C   UNL     1      -0.741   7.599  -2.592  0.00  0.00    +0.016 C 
ATOM      4  C   UNL     1      -1.218   8.970  -3.005  0.00  0.00    +0.058 C 
ATOM      5  C   UNL     1      -1.586   9.782  -1.761  0.00  0.00    -0.023 C 
ATOM      6  C   UNL     1      -2.670   9.022  -0.988  0.00  0.00    +0.086 C 
ATOM      7  C   UNL     1      -2.161   7.645  -0.659  0.00  0.00    +0.162 C 
ATOM      8  O   UNL     1      -2.577   7.076   0.331  0.00  0.00    -0.292 OA
ATOM      9  C   UNL     1      -0.350   9.956  -0.876  0.00  0.00    +0.011 C 
ATOM     10  C   UNL     1      -2.115  11.155  -2.181  0.00  0.00    +0.011 C 
ATOM     11  N   UNL     1       0.182   6.965  -3.379  0.00  0.00    -0.321 N 
ATOM     12  C   UNL     1       0.354   5.610  -3.300  0.00  0.00    +0.014 C 
ATOM     13  C   UNL     1      -0.075   4.932  -2.224  0.00  0.00    +0.043 C 
ATOM     14  C   UNL     1       1.024   4.873  -4.431  0.00  0.00    +0.061 C 
ATOM     15  H   UNL     1       0.795   7.546  -4.084  0.00  0.00    +0.152 HD
ENDROOT
BRANCH  13  16
ATOM     16  C   UNL     1       0.102   3.527  -2.171  0.00  0.00    +0.245 C 
ATOM     17  O   UNL     1       1.022   3.053  -1.529  0.00  0.00    -0.270 OA
ATOM     18  N   UNL     1      -0.747   2.716  -2.832  0.00  0.00    -0.298 N 
ATOM     19  C   UNL     1      -0.519   1.265  -2.871  0.00  0.00    +0.108 C 
ATOM     20  C   UNL     1      -1.787   0.553  -2.389  0.00  0.00    +0.019 C 
ATOM     21  C   UNL     1      -2.980   1.024  -3.224  0.00  0.00    +0.003 C 
ATOM     22  C   UNL     1      -3.171   2.531  -3.038  0.00  0.00    +0.019 C 
ATOM     23  C   UNL     1      -1.919   3.265  -3.528  0.00  0.00    +0.108 C 
ENDBRANCH  13  16
BRANCH   1  26
ATOM     24  C   UNL     1       0.915   5.282   2.310  0.00  0.00    +0.163 A 
ATOM     25  C   UNL     1       0.005   5.160   1.271  0.00  0.00    +0.054 A 
ATOM     26  C   UNL     1       0.257   5.769   0.056  0.00  0.00    -0.031 A 
ATOM     27  C   UNL     1       1.418   6.496  -0.129  0.00  0.00    +0.023 A 
ATOM     28  C   UNL     1       2.328   6.627   0.905  0.00  0.00    +0.063 A 
ATOM     29  C   UNL     1       2.081   6.019   2.126  0.00  0.00    +0.175 A 
ATOM     30 BR   UNL     1       3.911   7.629   0.650  0.00  0.00    -0.046 Br
BRANCH  29  31
ATOM     31  O   UNL     1       2.977   6.141   3.142  0.00  0.00    -0.490 OA
ATOM     32  C   UNL     1       4.004   5.150   3.224  0.00  0.00    +0.277 C 
ENDBRANCH  29  31
BRANCH  24  33
ATOM     33  O   UNL     1       0.669   4.683   3.506  0.00  0.00    -0.489 OA
BRANCH  33  35
ATOM     34  C   UNL     1      -0.591   3.255   4.993  0.00  0.00    +0.048 C 
ATOM     35  C   UNL     1      -0.486   3.845   3.586  0.00  0.00    +0.226 C 
ENDBRANCH  33  35
ENDBRANCH  24  33
ENDBRANCH   1  26
TORSDOF 5
