REMARK  Name = ZINC14962380
REMARK  10 active torsions:
REMARK  status: ('A' for Active; 'I' for Inactive)
REMARK    1  A    between atoms: C_1  and  C_2
REMARK    2  A    between atoms: C_5  and  O_30
REMARK    3  A    between atoms: C_11  and  C_12
REMARK    4  A    between atoms: C_12  and  N_53
REMARK    5  A    between atoms: C_13  and  C_15
REMARK    6  A    between atoms: C_13  and  C_16
REMARK    7  A    between atoms: C_13  and  N_53
REMARK    8  A    between atoms: N_19  and  C_22
REMARK    9  A    between atoms: C_20  and  C_21
REMARK   10  A    between atoms: O_30  and  C_31
REMARK                            x       y       z     vdW  Elec       q    Type
REMARK                         _______ _______ _______ _____ _____    ______ ____
ROOT
ATOM      1  N   UNL     1       0.962  -1.425   3.287  0.00  0.00    +0.387 N 
ATOM      2  H   UNL     1       0.247  -2.086   3.612  0.00  0.00    -0.085 HD
ATOM      3  H   UNL     1       1.636  -1.917   2.688  0.00  0.00    -0.085 HD
ENDROOT
BRANCH   1   4
ATOM      4  C   UNL     1       0.314  -0.351   2.509  0.00  0.00    -0.040 C 
ATOM      5  C   UNL     1      -1.058  -0.041   3.111  0.00  0.00    -0.009 C 
BRANCH   4   6
ATOM      6  C   UNL     1       0.145  -0.807   1.083  0.00  0.00    -0.021 A 
ATOM      7  C   UNL     1       0.064  -2.133   0.646  0.00  0.00    +0.137 A 
ATOM      8  N   UNL     1      -0.079  -2.129  -0.655  0.00  0.00    -0.174 NA
ATOM      9  N   UNL     1      -0.099  -0.797  -1.088  0.00  0.00    -0.234 N 
ATOM     10  C   UNL     1       0.046  -0.004  -0.003  0.00  0.00    +0.044 A 
ATOM     11  C   UNL     1       0.083   1.502  -0.001  0.00  0.00    +0.066 C 
BRANCH   9  12
ATOM     12  C   UNL     1      -0.240  -0.362  -2.415  0.00  0.00    +0.101 A 
ATOM     13  C   UNL     1       0.616   0.604  -2.925  0.00  0.00    +0.033 A 
ATOM     14  C   UNL     1       0.479   1.027  -4.233  0.00  0.00    +0.040 A 
ATOM     15  C   UNL     1      -0.519   0.496  -5.033  0.00  0.00    +0.126 A 
ATOM     16  C   UNL     1      -1.379  -0.464  -4.526  0.00  0.00    +0.078 A 
ATOM     17  C   UNL     1      -1.242  -0.895  -3.219  0.00  0.00    +0.151 A 
ATOM     18  F   UNL     1      -2.080  -1.831  -2.724  0.00  0.00    -0.203 F 
ATOM     19  F   UNL     1      -0.654   0.916  -6.310  0.00  0.00    -0.205 F 
ENDBRANCH   9  12
ENDBRANCH   4   6
ENDBRANCH   1   4
BRANCH   1  20
ATOM     20  C   UNL     1       1.668  -0.859   4.452  0.00  0.00    -0.027 C 
BRANCH  20  31
ATOM     21  C   UNL     1       4.351  -2.234   3.714  0.00  0.00    +0.046 C 
ATOM     22  C   UNL     1       3.480  -2.565   4.899  0.00  0.00    -0.024 A 
ATOM     23  C   UNL     1       3.740  -3.591   5.912  0.00  0.00    +0.006 A 
ATOM     24  C   UNL     1       4.768  -4.516   6.113  0.00  0.00    +0.056 A 
ATOM     25  C   UNL     1       4.715  -5.369   7.197  0.00  0.00    +0.121 A 
ATOM     26  C   UNL     1       3.644  -5.309   8.085  0.00  0.00    +0.047 A 
ATOM     27  C   UNL     1       2.626  -4.401   7.897  0.00  0.00    +0.030 A 
ATOM     28  C   UNL     1       2.661  -3.533   6.811  0.00  0.00    +0.047 A 
ATOM     29  N   UNL     1       1.817  -2.537   6.368  0.00  0.00    -0.359 N 
ATOM     30  H   UNL     1       0.989  -2.274   6.800  0.00  0.00    +0.166 HD
ATOM     31  C   UNL     1       2.319  -1.976   5.225  0.00  0.00    +0.003 A 
BRANCH  25  32
ATOM     32  O   UNL     1       5.712  -6.271   7.398  0.00  0.00    -0.495 OA
ATOM     33  C   UNL     1       5.595  -7.124   8.539  0.00  0.00    +0.277 C 
ENDBRANCH  25  32
ENDBRANCH  20  31
ENDBRANCH   1  20
TORSDOF 6
