REMARK  Name = ZINC04309877
REMARK  4 active torsions:
REMARK  status: ('A' for Active; 'I' for Inactive)
REMARK    1  A    between atoms: C_10  and  N_26
REMARK    2  A    between atoms: N_26  and  C_27
REMARK    3  A    between atoms: C_27  and  C_28
REMARK    4  A    between atoms: C_28  and  O_29
REMARK                            x       y       z     vdW  Elec       q    Type
REMARK                         _______ _______ _______ _____ _____    ______ ____
ROOT
ATOM      1  C   UNL     1      -3.782   7.411  -0.012  0.00  0.00    +0.001 A 
ATOM      2  C   UNL     1      -2.593   8.120  -0.020  0.00  0.00    +0.001 A 
ATOM      3  C   UNL     1      -1.381   7.456  -0.018  0.00  0.00    +0.012 A 
ATOM      4  C   UNL     1      -1.353   6.063  -0.008  0.00  0.00    +0.033 A 
ATOM      5  C   UNL     1      -2.560   5.343   0.000  0.00  0.00    +0.033 A 
ATOM      6  C   UNL     1      -3.772   6.029  -0.002  0.00  0.00    +0.012 A 
ATOM      7  C   UNL     1      -2.540   3.866   0.011  0.00  0.00    +0.196 A 
ATOM      8  O   UNL     1      -3.586   3.243   0.018  0.00  0.00    -0.287 OA
ATOM      9  C   UNL     1      -1.260   3.151   0.013  0.00  0.00    +0.056 A 
ATOM     10  C   UNL     1      -1.233   1.750   0.017  0.00  0.00    +0.042 A 
ATOM     11  C   UNL     1      -0.013   1.076   0.025  0.00  0.00    +0.072 A 
ATOM     12  C   UNL     1       1.177   1.776   0.018  0.00  0.00    +0.154 A 
ATOM     13  C   UNL     1       1.168   3.183   0.008  0.00  0.00    +0.094 A 
ATOM     14  C   UNL     1      -0.044   3.875   0.005  0.00  0.00    +0.062 A 
ATOM     15  C   UNL     1      -0.062   5.344  -0.006  0.00  0.00    +0.197 A 
ATOM     16  O   UNL     1       0.983   5.967  -0.013  0.00  0.00    -0.287 OA
ATOM     17  N   UNL     1       2.369   3.877   0.001  0.00  0.00    -0.349 N 
ATOM     18  H   UNL     1       2.376   4.847  -0.005  0.00  0.00    +0.166 HD
ATOM     19  C   UNL     1       3.569   3.158   0.004  0.00  0.00    +0.083 A 
ATOM     20  C   UNL     1       4.784   3.826  -0.002  0.00  0.00    +0.029 A 
ATOM     21  C   UNL     1       5.965   3.107   0.002  0.00  0.00    +0.002 A 
ATOM     22  C   UNL     1       5.937   1.725   0.011  0.00  0.00    +0.004 A 
ATOM     23  C   UNL     1       4.729   1.052   0.017  0.00  0.00    +0.048 A 
ATOM     24  C   UNL     1       3.539   1.764   0.014  0.00  0.00    +0.152 A 
ATOM     25  O   UNL     1       2.354   1.103   0.021  0.00  0.00    -0.452 OA
ENDROOT
BRANCH  10  26
ATOM     26  N   UNL     1      -2.419   1.035   0.019  0.00  0.00    -0.341 N 
ATOM     27  H   UNL     1      -3.267   1.501   0.099  0.00  0.00    +0.146 HD
BRANCH  26  28
ATOM     28  C   UNL     1      -2.395  -0.425  -0.100  0.00  0.00    +0.129 C 
BRANCH  28  29
ATOM     29  C   UNL     1      -3.826  -0.963  -0.072  0.00  0.00    +0.174 C 
BRANCH  29  30
ATOM     30  O   UNL     1      -4.531  -0.502  -1.227  0.00  0.00    -0.393 OA
ATOM     31  H   UNL     1      -5.448  -0.805  -1.275  0.00  0.00    +0.209 HD
ENDBRANCH  29  30
ENDBRANCH  28  29
ENDBRANCH  26  28
ENDBRANCH  10  26
TORSDOF 4
