REMARK  Name = ZINC33810618
REMARK  11 active torsions:
REMARK  status: ('A' for Active; 'I' for Inactive)
REMARK    1  A    between atoms: C_1  and  C_2
REMARK    2  A    between atoms: C_5  and  C_8
REMARK    3  A    between atoms: C_8  and  S_9
REMARK    4  A    between atoms: S_9  and  C_10
REMARK    5  A    between atoms: C_17  and  C_29
REMARK    6  A    between atoms: C_23  and  C_27
REMARK    7  A    between atoms: C_23  and  C_28
REMARK    8  A    between atoms: C_33  and  O_37
REMARK    9  A    between atoms: C_34  and  O_35
REMARK   10  A    between atoms: O_35  and  C_36
REMARK   11  A    between atoms: O_37  and  C_38
REMARK                            x       y       z     vdW  Elec       q    Type
REMARK                         _______ _______ _______ _____ _____    ______ ____
ROOT
ATOM      1  C   UNL     1       6.000   0.642  -3.250  0.00  0.00    +0.171 A 
ATOM      2  N   UNL     1       6.300   1.079  -1.995  0.00  0.00    -0.208 NA
ATOM      3  C   UNL     1       5.561   0.648  -0.924  0.00  0.00    +0.135 A 
ATOM      4  C   UNL     1       4.531  -0.215  -1.129  0.00  0.00    +0.069 A 
ATOM      5  C   UNL     1       4.256  -0.648  -2.444  0.00  0.00    +0.258 A 
ATOM      6  O   UNL     1       3.340  -1.428  -2.656  0.00  0.00    -0.267 OA
ATOM      7  N   UNL     1       5.007  -0.197  -3.461  0.00  0.00    -0.302 N 
ATOM      8  C   UNL     1       3.695  -0.704   0.017  0.00  0.00    +0.096 C 
ATOM      9  C   UNL     1       4.386  -0.475   1.337  0.00  0.00    +0.024 C 
ATOM     10  C   UNL     1       5.411   0.397   1.442  0.00  0.00    +0.017 C 
ATOM     11  N   UNL     1       5.857   1.084   0.347  0.00  0.00    -0.302 N 
ATOM     12  C   UNL     1       6.089   0.643   2.768  0.00  0.00    +0.058 C 
ATOM     13  C   UNL     1       6.039  -0.630   3.615  0.00  0.00    -0.023 C 
ATOM     14  C   UNL     1       4.572  -1.031   3.805  0.00  0.00    +0.086 C 
ATOM     15  C   UNL     1       3.932  -1.198   2.454  0.00  0.00    +0.162 C 
ATOM     16  O   UNL     1       3.004  -1.972   2.326  0.00  0.00    -0.292 OA
ATOM     17  C   UNL     1       6.790  -1.754   2.898  0.00  0.00    +0.011 C 
ATOM     18  C   UNL     1       6.685  -0.367   4.977  0.00  0.00    +0.011 C 
ATOM     19  H   UNL     1       6.459   1.994   0.490  0.00  0.00    +0.153 HD
ATOM     20  H   UNL     1       4.783  -0.539  -4.482  0.00  0.00    +0.171 HD
ENDROOT
BRANCH   8  21
ATOM     21  C   UNL     1       2.378   0.029   0.015  0.00  0.00    +0.010 A 
ATOM     22  C   UNL     1       2.357   1.412  -0.026  0.00  0.00    +0.008 A 
ATOM     23  C   UNL     1       1.152   2.088  -0.028  0.00  0.00    +0.004 A 
ATOM     24  C   UNL     1      -0.038   1.385   0.010  0.00  0.00    +0.049 A 
ATOM     25  C   UNL     1      -0.024   0.000   0.051  0.00  0.00    +0.162 A 
ATOM     26  C   UNL     1       1.190  -0.680   0.053  0.00  0.00    +0.166 A 
BRANCH  26  27
ATOM     27  O   UNL     1       1.209  -2.040   0.092  0.00  0.00    -0.491 OA
ATOM     28  C   UNL     1       1.042  -2.727  -1.149  0.00  0.00    +0.277 C 
ENDBRANCH  26  27
BRANCH  25  29
ATOM     29  O   UNL     1      -1.194  -0.692   0.088  0.00  0.00    -0.491 OA
ATOM     30  C   UNL     1      -2.401   0.073   0.082  0.00  0.00    +0.277 C 
ENDBRANCH  25  29
ENDBRANCH   8  21
BRANCH   1  31
ATOM     31  S   UNL     1       6.958   1.210  -4.616  0.00  0.00    -0.083 S 
BRANCH  31  32
ATOM     32  C   UNL     1       6.133   0.331  -5.966  0.00  0.00    +0.112 C 
BRANCH  32  37
ATOM     33  C   UNL     1       8.700   1.645 -10.973  0.00  0.00    +0.044 C 
ATOM     34  C   UNL     1       8.030   1.302  -9.668  0.00  0.00    -0.050 A 
ATOM     35  C   UNL     1       8.473   0.223  -8.926  0.00  0.00    +0.003 A 
ATOM     36  C   UNL     1       7.859  -0.091  -7.728  0.00  0.00    +0.005 A 
ATOM     37  C   UNL     1       6.802   0.674  -7.272  0.00  0.00    -0.037 A 
ATOM     38  C   UNL     1       6.356   1.750  -8.015  0.00  0.00    +0.005 A 
ATOM     39  C   UNL     1       6.973   2.067  -9.211  0.00  0.00    +0.003 A 
ENDBRANCH  32  37
ENDBRANCH  31  32
ENDBRANCH   1  31
TORSDOF 6
