REMARK  Name = ZINC24891395
REMARK  12 active torsions:
REMARK  status: ('A' for Active; 'I' for Inactive)
REMARK    1  A    between atoms: C_1  and  C_2
REMARK    2  A    between atoms: C_2  and  N_3
REMARK    3  A    between atoms: N_3  and  C_4
REMARK    4  A    between atoms: N_3  and  S_6
REMARK    5  A    between atoms: C_4  and  C_5
REMARK    6  A    between atoms: S_6  and  C_9
REMARK    7  A    between atoms: N_14  and  C_19
REMARK    8  A    between atoms: C_19  and  N_20
REMARK    9  A    between atoms: C_24  and  C_26
REMARK   10  A    between atoms: C_29  and  O_32
REMARK   11  A    between atoms: O_32  and  C_33
REMARK   12  A    between atoms: C_33  and  C_34
REMARK                            x       y       z     vdW  Elec       q    Type
REMARK                         _______ _______ _______ _____ _____    ______ ____
ROOT
ATOM      1  C   UNL     1      -3.271   2.441  -4.772  0.00  0.00    +0.122 A 
ATOM      2  C   UNL     1      -2.496   3.618  -4.801  0.00  0.00    +0.033 A 
ATOM      3  C   UNL     1      -1.539   3.819  -3.864  0.00  0.00    +0.050 A 
ATOM      4  C   UNL     1      -1.331   2.837  -2.862  0.00  0.00    +0.160 A 
ATOM      5  N   UNL     1      -0.492   2.774  -1.854  0.00  0.00    -0.153 NA
ATOM      6  N   UNL     1      -0.722   1.567  -1.178  0.00  0.00    -0.257 N 
ATOM      7  C   UNL     1      -1.716   0.922  -1.822  0.00  0.00    +0.181 A 
ATOM      8  S   UNL     1      -2.369  -0.602  -1.398  0.00  0.00    -0.011 S 
ATOM      9  N   UNL     1      -2.106   1.692  -2.858  0.00  0.00    -0.277 N 
ATOM     10  C   UNL     1      -3.070   1.513  -3.820  0.00  0.00    +0.123 A 
ENDROOT
BRANCH   1  11
ATOM     11  S   UNL     1      -4.515   2.184  -5.993  0.00  0.00    +0.062 S 
ATOM     12  O   UNL     1      -4.146   2.967  -7.120  0.00  0.00    -0.153 OA
ATOM     13  O   UNL     1      -4.720   0.780  -6.075  0.00  0.00    -0.153 OA
BRANCH  11  14
ATOM     14  N   UNL     1      -5.920   2.834  -5.405  0.00  0.00    -0.177 NA
BRANCH  14  16
ATOM     15  C   UNL     1      -7.155   4.317  -6.908  0.00  0.00    +0.022 C 
ATOM     16  C   UNL     1      -6.249   4.235  -5.678  0.00  0.00    +0.106 C 
ENDBRANCH  14  16
BRANCH  14  17
ATOM     17  C   UNL     1      -6.834   2.008  -4.613  0.00  0.00    +0.106 C 
ATOM     18  C   UNL     1      -6.546   2.212  -3.124  0.00  0.00    +0.022 C 
ENDBRANCH  14  17
ENDBRANCH  11  14
ENDBRANCH   1  11
BRANCH   6  19
ATOM     19  C   UNL     1      -0.008   1.091   0.009  0.00  0.00    +0.072 C 
BRANCH  19  20
ATOM     20  N   UNL     1      -0.698   1.562   1.217  0.00  0.00    +0.397 N 
ATOM     21  C   UNL     1      -0.449   3.002   1.441  0.00  0.00    -0.075 C 
ATOM     22  C   UNL     1      -0.421   3.164   2.982  0.00  0.00    -0.020 C 
ATOM     23  C   UNL     1       0.282   1.853   3.422  0.00  0.00    -0.012 C 
ATOM     24  C   UNL     1      -0.247   0.818   2.408  0.00  0.00    -0.035 C 
ATOM     25  H   UNL     1      -1.772   1.390   1.058  0.00  0.00    -0.078 HD
BRANCH  24  26
ATOM     26  C   UNL     1       0.852  -0.141   2.027  0.00  0.00    -0.061 A 
ATOM     27  C   UNL     1       0.650  -1.504   2.141  0.00  0.00    +0.005 A 
ATOM     28  C   UNL     1       1.654  -2.384   1.788  0.00  0.00    +0.046 A 
ATOM     29  C   UNL     1       2.870  -1.899   1.329  0.00  0.00    +0.121 A 
ATOM     30  C   UNL     1       3.072  -0.531   1.220  0.00  0.00    +0.046 A 
ATOM     31  C   UNL     1       2.063   0.345   1.570  0.00  0.00    +0.005 A 
BRANCH  29  32
ATOM     32  O   UNL     1       3.861  -2.763   0.985  0.00  0.00    -0.492 OA
BRANCH  32  33
ATOM     33  C   UNL     1       3.582  -4.158   1.122  0.00  0.00    +0.225 C 
ATOM     34  C   UNL     1       4.807  -4.968   0.691  0.00  0.00    +0.048 C 
ENDBRANCH  32  33
ENDBRANCH  29  32
ENDBRANCH  24  26
ENDBRANCH  19  20
ENDBRANCH   6  19
TORSDOF 9
