REMARK  Name = ZINC33250902
REMARK  10 active torsions:
REMARK  status: ('A' for Active; 'I' for Inactive)
REMARK    1  A    between atoms: C_1  and  C_2
REMARK    2  A    between atoms: C_9  and  C_11
REMARK    3  A    between atoms: N_16  and  S_18
REMARK    4  A    between atoms: S_18  and  C_21
REMARK    5  A    between atoms: C_22  and  C_37
REMARK    6  A    between atoms: C_25  and  C_26
REMARK    7  A    between atoms: C_27  and  C_28
REMARK    8  A    between atoms: C_29  and  C_36
REMARK    9  A    between atoms: C_31  and  C_35
REMARK   10  A    between atoms: C_33  and  C_34
REMARK                            x       y       z     vdW  Elec       q    Type
REMARK                         _______ _______ _______ _____ _____    ______ ____
ROOT
ATOM      1  S   UNL     1      -2.561   4.685   0.046  0.00  0.00    +0.066 S 
ATOM      2  O   UNL     1      -2.499   5.362   1.294  0.00  0.00    -0.153 OA
ATOM      3  O   UNL     1      -2.521   5.373  -1.196  0.00  0.00    -0.153 OA
ENDROOT
BRANCH   1   8
ATOM      4  C   UNL     1      -0.757   1.592  -1.234  0.00  0.00    +0.091 C 
ATOM      5  C   UNL     1      -0.017   1.088   0.007  0.00  0.00    +0.015 C 
ATOM      6  C   UNL     1      -0.735   1.581   1.266  0.00  0.00    +0.018 C 
ATOM      7  C   UNL     1      -0.725   3.112   1.287  0.00  0.00    +0.109 C 
ATOM      8  N   UNL     1      -1.304   3.606   0.030  0.00  0.00    -0.176 NA
ATOM      9  C   UNL     1      -0.748   3.124  -1.241  0.00  0.00    +0.122 C 
BRANCH   4  18
ATOM     10  C   UNL     1       2.251  -2.072  -7.520  0.00  0.00    +0.045 C 
ATOM     11  C   UNL     1       1.652  -1.619  -6.213  0.00  0.00    -0.032 A 
ATOM     12  C   UNL     1       1.141  -2.547  -5.316  0.00  0.00    +0.008 A 
ATOM     13  C   UNL     1       0.605  -2.090  -4.126  0.00  0.00    +0.044 A 
ATOM     14  C   UNL     1       0.588  -0.722  -3.873  0.00  0.00    +0.125 A 
ATOM     15  N   UNL     1       1.085   0.132  -4.754  0.00  0.00    -0.240 NA
ATOM     16  C   UNL     1       1.606  -0.276  -5.895  0.00  0.00    +0.116 A 
ATOM     17  N   UNL     1       0.047  -0.247  -2.680  0.00  0.00    -0.270 N 
ATOM     18  C   UNL     1      -0.068   1.079  -2.473  0.00  0.00    +0.223 C 
ATOM     19  O   UNL     1       0.383   1.861  -3.284  0.00  0.00    -0.275 OA
ATOM     20  H   UNL     1      -0.286  -0.955  -1.907  0.00  0.00    +0.156 HD
ENDBRANCH   4  18
ENDBRANCH   1   8
BRANCH   1  21
ATOM     21  C   UNL     1      -4.052   3.748   0.055  0.00  0.00    +0.174 A 
ATOM     22  C   UNL     1      -4.801   3.296  -1.048  0.00  0.00    +0.107 A 
ATOM     23  N   UNL     1      -5.821   2.643  -0.567  0.00  0.00    -0.081 NA
ATOM     24  O   UNL     1      -5.822   2.630   0.642  0.00  0.00    -0.353 OA
ATOM     25  C   UNL     1      -4.760   3.292   1.141  0.00  0.00    +0.187 A 
ATOM     26  C   UNL     1      -4.482   3.520  -2.504  0.00  0.00    +0.071 C 
BRANCH  25  27
ATOM     27  C   UNL     1      -4.427   3.485   2.555  0.00  0.00    +0.051 C 
ATOM     28  C   UNL     1      -5.226   2.974   3.511  0.00  0.00    +0.012 C 
BRANCH  28  29
ATOM     29  C   UNL     1      -4.891   3.169   4.932  0.00  0.00    -0.019 A 
ATOM     30  C   UNL     1      -3.607   2.872   5.399  0.00  0.00    -0.043 A 
ATOM     31  C   UNL     1      -3.299   3.062   6.729  0.00  0.00    +0.007 A 
ATOM     32  C   UNL     1      -4.261   3.535   7.605  0.00  0.00    -0.050 A 
ATOM     33  C   UNL     1      -5.536   3.826   7.152  0.00  0.00    +0.007 A 
ATOM     34  C   UNL     1      -5.857   3.646   5.823  0.00  0.00    -0.043 A 
ATOM     35  C   UNL     1      -7.246   3.963   5.332  0.00  0.00    +0.044 C 
ATOM     36  C   UNL     1      -3.918   3.734   9.059  0.00  0.00    +0.044 C 
ATOM     37  C   UNL     1      -2.559   2.351   4.448  0.00  0.00    +0.044 C 
ENDBRANCH  28  29
ENDBRANCH  25  27
ENDBRANCH   1  21
TORSDOF 5
