REMARK  Name = ZINC22063396
REMARK  10 active torsions:
REMARK  status: ('A' for Active; 'I' for Inactive)
REMARK    1  A    between atoms: C_1  and  C_2
REMARK    2  A    between atoms: C_2  and  C_3
REMARK    3  A    between atoms: C_2  and  C_4
REMARK    4  A    between atoms: C_4  and  C_6
REMARK    5  A    between atoms: C_4  and  N_14
REMARK    6  A    between atoms: C_9  and  O_12
REMARK    7  A    between atoms: O_12  and  C_13
REMARK    8  A    between atoms: C_15  and  C_17
REMARK    9  A    between atoms: C_17  and  N_18
REMARK   10  A    between atoms: C_27  and  C_29
REMARK                            x       y       z     vdW  Elec       q    Type
REMARK                         _______ _______ _______ _____ _____    ______ ____
ROOT
ATOM      1  C   UNL     1      -2.032   0.136   0.488  0.00  0.00    +0.020 C 
ENDROOT
BRANCH   1   2
ATOM      2  N   UNL     1      -0.564   0.127   0.444  0.00  0.00    +0.396 N 
ATOM      3  C   UNL     1       0.002  -0.001   1.791  0.00  0.00    -0.041 C 
ATOM      4  C   UNL     1       1.504   0.090   1.743  0.00  0.00    -0.061 A 
ATOM      5  C   UNL     1       2.229  -0.369   2.833  0.00  0.00    +0.002 A 
ATOM      6  C   UNL     1       3.608  -0.302   2.833  0.00  0.00    +0.000 A 
ATOM      7  C   UNL     1       4.271   0.226   1.741  0.00  0.00    +0.000 A 
ATOM      8  C   UNL     1       3.552   0.683   0.655  0.00  0.00    +0.004 A 
ATOM      9  C   UNL     1       2.167   0.613   0.653  0.00  0.00    -0.047 A 
ATOM     10  C   UNL     1       1.424   1.115  -0.558  0.00  0.00    +0.029 C 
ATOM     11  C   UNL     1      -0.048   1.339  -0.212  0.00  0.00    +0.024 C 
ATOM     12  H   UNL     1      -0.253  -0.749  -0.145  0.00  0.00    -0.080 HD
BRANCH  11  13
ATOM     13  C   UNL     1      -0.830   1.604  -1.473  0.00  0.00    +0.197 C 
ATOM     14  O   UNL     1      -1.241   0.677  -2.138  0.00  0.00    -0.278 OA
ATOM     15  N   UNL     1      -1.073   2.872  -1.861  0.00  0.00    -0.331 N 
ATOM     16  H   UNL     1      -1.644   3.065  -2.781  0.00  0.00    +0.145 HD
ATOM     17  H   UNL     1      -0.701   3.713  -1.258  0.00  0.00    +0.145 HD
ENDBRANCH  11  13
ENDBRANCH   1   2
BRANCH   1  19
ATOM     18  N   UNL     1      -3.858  -1.486   0.879  0.00  0.00    -0.310 N 
ATOM     19  C   UNL     1      -2.534  -1.253   0.790  0.00  0.00    +0.197 C 
ATOM     20  O   UNL     1      -1.746  -2.160   0.952  0.00  0.00    -0.278 OA
ATOM     21  H   UNL     1      -4.573  -0.662   0.732  0.00  0.00    +0.149 HD
BRANCH  18  22
ATOM     22  C   UNL     1      -4.346  -2.836   1.173  0.00  0.00    +0.106 C 
BRANCH  22  23
ATOM     23  C   UNL     1      -5.709  -2.749   1.811  0.00  0.00    -0.027 A 
ATOM     24  C   UNL     1      -6.628  -1.823   1.353  0.00  0.00    +0.009 A 
ATOM     25  C   UNL     1      -7.880  -1.746   1.933  0.00  0.00    +0.046 A 
ATOM     26  C   UNL     1      -8.210  -2.591   2.983  0.00  0.00    +0.120 A 
ATOM     27  C   UNL     1      -7.284  -3.515   3.443  0.00  0.00    +0.046 A 
ATOM     28  C   UNL     1      -6.036  -3.593   2.857  0.00  0.00    +0.009 A 
BRANCH  26  29
ATOM     29  O   UNL     1      -9.439  -2.514   3.558  0.00  0.00    -0.495 OA
ATOM     30  C   UNL     1     -10.341  -1.538   3.032  0.00  0.00    +0.277 C 
ENDBRANCH  26  29
ENDBRANCH  22  23
BRANCH  22  32
ATOM     31  C   UNL     1      -5.312  -2.879  -1.131  0.00  0.00    +0.009 C 
ATOM     32  C   UNL     1      -4.442  -3.637  -0.127  0.00  0.00    +0.008 C 
ATOM     33  C   UNL     1      -3.041  -3.831  -0.711  0.00  0.00    +0.009 C 
ENDBRANCH  22  32
ENDBRANCH  18  22
ENDBRANCH   1  19
TORSDOF 7
