REMARK  Name = ZINC39452984
REMARK  7 active torsions:
REMARK  status: ('A' for Active; 'I' for Inactive)
REMARK    1  A    between atoms: C_1  and  C_2
REMARK    2  A    between atoms: C_2  and  O_3
REMARK    3  A    between atoms: O_3  and  N_4
REMARK    4  A    between atoms: C_13  and  C_19
REMARK    5  A    between atoms: C_24  and  O_25
REMARK    6  A    between atoms: C_27  and  O_32
REMARK    7  A    between atoms: O_32  and  C_33
REMARK                            x       y       z     vdW  Elec       q    Type
REMARK                         _______ _______ _______ _____ _____    ______ ____
ROOT
ATOM      1  N   UNL     1      -1.431  -1.912   0.005  0.00  0.00    -0.138 N 
ATOM      2  C   UNL     1      -1.481  -2.575  -1.216  0.00  0.00    +0.150 A 
ATOM      3  C   UNL     1      -1.577  -3.952  -1.274  0.00  0.00    +0.086 A 
ATOM      4  C   UNL     1      -1.620  -4.736  -0.029  0.00  0.00    +0.100 A 
ATOM      5  C   UNL     1      -1.566  -4.032   1.204  0.00  0.00    +0.070 A 
ATOM      6  C   UNL     1      -1.462  -2.566   1.180  0.00  0.00    +0.293 A 
ATOM      7  O   UNL     1      -1.409  -1.943   2.224  0.00  0.00    -0.264 OA
ATOM      8  C   UNL     1      -1.607  -4.734   2.400  0.00  0.00    +0.026 A 
ATOM      9  C   UNL     1      -1.701  -6.131   2.336  0.00  0.00    +0.009 A 
ATOM     10  C   UNL     1      -1.750  -6.914   3.515  0.00  0.00    -0.005 A 
ATOM     11  C   UNL     1      -1.842  -8.291   3.411  0.00  0.00    +0.009 A 
ATOM     12  C   UNL     1      -1.887  -8.904   2.164  0.00  0.00    +0.003 A 
ATOM     13  C   UNL     1      -1.842  -8.175   1.015  0.00  0.00    +0.028 A 
ATOM     14  C   UNL     1      -1.749  -6.771   1.069  0.00  0.00    +0.072 A 
ATOM     15  N   UNL     1      -1.707  -6.052  -0.054  0.00  0.00    -0.245 NA
ATOM     16  N   UNL     1      -1.638  -4.587  -2.499  0.00  0.00    -0.315 N 
ATOM     17  C   UNL     1      -2.181  -3.842  -3.645  0.00  0.00    +0.210 C 
ATOM     18  C   UNL     1      -1.428  -2.511  -3.752  0.00  0.00    +0.132 C 
ATOM     19  C   UNL     1      -1.437  -1.823  -2.412  0.00  0.00    +0.189 C 
ATOM     20  O   UNL     1      -1.406  -0.610  -2.359  0.00  0.00    -0.290 OA
ATOM     21  H   UNL     1      -1.331  -5.502  -2.601  0.00  0.00    +0.149 HD
ENDROOT
BRANCH  10  22
ATOM     22  C   UNL     1      -1.702  -6.266   4.845  0.00  0.00    +0.024 A 
ATOM     23  C   UNL     1      -0.616  -6.484   5.693  0.00  0.00    +0.012 A 
ATOM     24  C   UNL     1      -0.577  -5.878   6.931  0.00  0.00    +0.001 A 
ATOM     25  C   UNL     1      -1.611  -5.051   7.336  0.00  0.00    +0.004 A 
ATOM     26  C   UNL     1      -2.692  -4.828   6.505  0.00  0.00    +0.046 A 
ATOM     27  C   UNL     1      -2.744  -5.426   5.256  0.00  0.00    +0.125 A 
BRANCH  27  28
ATOM     28  O   UNL     1      -3.803  -5.202   4.436  0.00  0.00    -0.506 OA
ATOM     29  H   UNL     1      -4.529  -5.830   4.552  0.00  0.00    +0.292 HD
ENDBRANCH  27  28
ENDBRANCH  10  22
BRANCH  17  30
ATOM     30  O   UNL     1      -1.998  -4.599  -4.843  0.00  0.00    -0.362 OA
ATOM     31  C   UNL     1      -2.897  -5.701  -4.977  0.00  0.00    +0.196 C 
ENDBRANCH  17  30
BRANCH   1  32
ATOM     32  O   UNL     1      -1.339  -0.499   0.012  0.00  0.00    -0.408 OA
BRANCH  32  34
ATOM     33  C   UNL     1      -0.019   1.526   0.010  0.00  0.00    +0.051 C 
ATOM     34  C   UNL     1       0.002  -0.004   0.002  0.00  0.00    +0.257 C 
ENDBRANCH  32  34
ENDBRANCH   1  32
TORSDOF 5
