REMARK  Name = ZINC03844398
REMARK  6 active torsions:
REMARK  status: ('A' for Active; 'I' for Inactive)
REMARK    1  A    between atoms: C_4  and  C_7
REMARK    2  A    between atoms: C_7  and  N_8
REMARK    3  A    between atoms: C_9  and  N_11
REMARK    4  A    between atoms: N_13  and  C_27
REMARK    5  A    between atoms: N_16  and  C_18
REMARK    6  A    between atoms: C_21  and  N_24
REMARK                            x       y       z     vdW  Elec       q    Type
REMARK                         _______ _______ _______ _____ _____    ______ ____
ROOT
ATOM      1  N   UNL     1       6.010  -1.394   2.855  0.00  0.00    -0.137 NA
ATOM      2  C   UNL     1       6.998  -2.255   3.067  0.00  0.00    +0.192 A 
ATOM      3  N   UNL     1       7.428  -2.789   4.260  0.00  0.00    -0.241 N 
ATOM      4  C   UNL     1       8.447  -3.635   4.194  0.00  0.00    +0.346 A 
ATOM      5  O   UNL     1       8.898  -4.160   5.195  0.00  0.00    -0.245 OA
ATOM      6  N   UNL     1       8.964  -3.892   2.975  0.00  0.00    -0.229 N 
ATOM      7  S   UNL     1       8.025  -2.964   1.944  0.00  0.00    +0.034 S 
ENDROOT
BRANCH   6   8
ATOM      8  C   UNL     1      10.027  -4.738   2.648  0.00  0.00    +0.058 A 
ATOM      9  C   UNL     1      11.000  -5.031   3.596  0.00  0.00    +0.029 A 
ATOM     10  C   UNL     1      12.050  -5.867   3.270  0.00  0.00    +0.035 A 
ATOM     11  C   UNL     1      12.133  -6.412   2.002  0.00  0.00    +0.126 A 
ATOM     12  C   UNL     1      11.167  -6.122   1.056  0.00  0.00    +0.035 A 
ATOM     13  C   UNL     1      10.112  -5.292   1.377  0.00  0.00    +0.029 A 
BRANCH  11  14
ATOM     14  N   UNL     1      13.260  -7.309   1.657  0.00  0.00    +0.056 N 
ATOM     15  O   UNL     1      14.105  -7.563   2.482  0.00  0.00    -0.126 OA
ATOM     16  O   UNL     1      13.334  -7.786   0.548  0.00  0.00    -0.126 OA
ENDBRANCH  11  14
ENDBRANCH   6   8
BRANCH   3  17
ATOM     17  C   UNL     1       6.821  -2.456   5.479  0.00  0.00    +0.053 A 
ATOM     18  C   UNL     1       7.521  -1.720   6.426  0.00  0.00    +0.026 A 
ATOM     19  C   UNL     1       6.921  -1.393   7.626  0.00  0.00    +0.002 A 
ATOM     20  C   UNL     1       5.624  -1.799   7.885  0.00  0.00    +0.000 A 
ATOM     21  C   UNL     1       4.925  -2.532   6.944  0.00  0.00    +0.002 A 
ATOM     22  C   UNL     1       5.518  -2.856   5.740  0.00  0.00    +0.026 A 
ENDBRANCH   3  17
BRANCH   1  24
ATOM     23  N   UNL     1       4.729  -0.114   1.396  0.00  0.00    -0.294 N 
ATOM     24  C   UNL     1       5.732  -0.988   1.611  0.00  0.00    +0.326 C 
ATOM     25  O   UNL     1       6.386  -1.408   0.672  0.00  0.00    -0.251 OA
ATOM     26  H   UNL     1       4.208   0.220   2.143  0.00  0.00    +0.151 HD
BRANCH  23  27
ATOM     27  C   UNL     1       4.424   0.331   0.034  0.00  0.00    +0.141 C 
BRANCH  27  31
ATOM     28  C   UNL     1       1.150   3.072   0.127  0.00  0.00    +0.000 A 
ATOM     29  C   UNL     1       2.446   3.540   0.239  0.00  0.00    +0.000 A 
ATOM     30  C   UNL     1       3.505   2.652   0.209  0.00  0.00    +0.005 A 
ATOM     31  C   UNL     1       3.269   1.298   0.067  0.00  0.00    -0.030 A 
ATOM     32  C   UNL     1       1.973   0.830  -0.044  0.00  0.00    +0.005 A 
ATOM     33  C   UNL     1       0.913   1.718  -0.015  0.00  0.00    +0.000 A 
ENDBRANCH  27  31
ENDBRANCH  23  27
ENDBRANCH   1  24
TORSDOF 6
