REMARK  Name = ZINC16009779
REMARK  4 active torsions:
REMARK  status: ('A' for Active; 'I' for Inactive)
REMARK    1  A    between atoms: C_1  and  C_2
REMARK    2  A    between atoms: C_4  and  N_35
REMARK    3  A    between atoms: C_7  and  N_8
REMARK    4  A    between atoms: C_28  and  C_33
REMARK                            x       y       z     vdW  Elec       q    Type
REMARK                         _______ _______ _______ _____ _____    ______ ____
ROOT
ATOM      1  N   UNL     1      -1.117   1.966   0.018  0.00  0.00    -0.210 N 
ATOM      2  C   UNL     1      -0.014   1.208   0.009  0.00  0.00    +0.228 C 
ATOM      3  O   UNL     1       0.002  -0.004   0.002  0.00  0.00    -0.275 OA
ATOM      4  C   UNL     1       1.208   2.098   0.002  0.00  0.00    +0.074 C 
ATOM      5  C   UNL     1       1.948   1.960   1.344  0.00  0.00    -0.054 C 
ATOM      6  C   UNL     1       3.346   1.354   1.093  0.00  0.00    -0.016 C 
ATOM      7  C   UNL     1       4.161   2.542   0.536  0.00  0.00    -0.020 C 
ATOM      8  C   UNL     1       3.414   3.801   1.006  0.00  0.00    -0.076 C 
ATOM      9  N   UNL     1       2.236   3.361   1.778  0.00  0.00    +0.395 N 
ATOM     10  C   UNL     1       1.046   4.123   1.360  0.00  0.00    +0.053 C 
ATOM     11  C   UNL     1       0.607   3.531   0.016  0.00  0.00    +0.089 C 
ATOM     12  C   UNL     1      -0.884   3.284   0.029  0.00  0.00    +0.229 C 
ATOM     13  O   UNL     1      -1.737   4.146   0.041  0.00  0.00    -0.275 OA
ATOM     14  C   UNL     1       1.348   5.590   1.241  0.00  0.00    -0.026 A 
ATOM     15  C   UNL     1       2.239   6.315   0.482  0.00  0.00    +0.024 A 
ATOM     16  C   UNL     1       2.284   7.694   0.595  0.00  0.00    +0.042 A 
ATOM     17  C   UNL     1       1.431   8.341   1.473  0.00  0.00    +0.025 A 
ATOM     18  C   UNL     1       0.538   7.618   2.236  0.00  0.00    -0.028 A 
ATOM     19  C   UNL     1       0.486   6.230   2.127  0.00  0.00    +0.039 A 
ATOM     20  N   UNL     1      -0.318   5.292   2.780  0.00  0.00    -0.286 N 
ATOM     21  C   UNL     1      -0.052   4.032   2.385  0.00  0.00    +0.212 C 
ATOM     22  O   UNL     1      -0.593   3.021   2.779  0.00  0.00    -0.277 OA
ATOM     23  C   UNL     1      -0.386   8.331   3.189  0.00  0.00    +0.046 C 
ATOM     24 CL   UNL     1       3.406   8.610  -0.361  0.00  0.00    -0.084 Cl
ATOM     25  H   UNL     1      -1.062   5.625   3.519  0.00  0.00    +0.155 HD
ATOM     26  H   UNL     1       2.434   3.492   2.853  0.00  0.00    -0.079 HD
ENDROOT
BRANCH   1  33
ATOM     27  C   UNL     1      -2.373   1.471  -2.488  0.00  0.00    +0.046 C 
ATOM     28  C   UNL     1      -3.058   1.167  -1.181  0.00  0.00    -0.026 A 
ATOM     29  C   UNL     1      -4.330   0.629  -1.176  0.00  0.00    +0.038 A 
ATOM     30  C   UNL     1      -4.962   0.355   0.023  0.00  0.00    +0.127 A 
ATOM     31  C   UNL     1      -4.320   0.615   1.221  0.00  0.00    +0.034 A 
ATOM     32  C   UNL     1      -3.047   1.149   1.222  0.00  0.00    +0.026 A 
ATOM     33  C   UNL     1      -2.410   1.424   0.019  0.00  0.00    +0.047 A 
BRANCH  30  34
ATOM     34  N   UNL     1      -6.327  -0.217   0.025  0.00  0.00    +0.056 N 
ATOM     35  O   UNL     1      -6.885  -0.458   1.081  0.00  0.00    -0.126 OA
ATOM     36  O   UNL     1      -6.893  -0.446  -1.029  0.00  0.00    -0.126 OA
ENDBRANCH  30  34
ENDBRANCH   1  33
TORSDOF 2
