REMARK  Name = ZINC01201182
REMARK  7 active torsions:
REMARK  status: ('A' for Active; 'I' for Inactive)
REMARK    1  A    between atoms: C_1  and  C_2
REMARK    2  A    between atoms: C_3  and  C_19
REMARK    3  A    between atoms: C_4  and  C_10
REMARK    4  A    between atoms: C_13  and  C_16
REMARK    5  A    between atoms: C_16  and  C_17
REMARK    6  A    between atoms: C_16  and  C_18
REMARK    7  A    between atoms: N_21  and  C_22
REMARK                            x       y       z     vdW  Elec       q    Type
REMARK                         _______ _______ _______ _____ _____    ______ ____
ROOT
ATOM      1  C   UNL     1      -3.273  -2.846  -0.936  0.00  0.00    +0.061 C 
ATOM      2  C   UNL     1      -1.888  -3.291  -0.544  0.00  0.00    +0.017 C 
ATOM      3  C   UNL     1      -0.883  -2.390  -0.523  0.00  0.00    +0.056 C 
ATOM      4  C   UNL     1       0.493  -2.878  -0.116  0.00  0.00    +0.139 C 
ATOM      5  N   UNL     1       0.622  -4.306   0.220  0.00  0.00    -0.315 N 
ATOM      6  C   UNL     1      -0.476  -5.084   0.147  0.00  0.00    +0.135 C 
ATOM      7  S   UNL     1      -0.340  -6.746   0.535  0.00  0.00    -0.019 S 
ATOM      8  N   UNL     1      -1.669  -4.599  -0.220  0.00  0.00    -0.300 N 
ATOM      9  H   UNL     1       1.477  -4.678   0.488  0.00  0.00    +0.149 HD
ATOM     10  H   UNL     1      -2.421  -5.211  -0.253  0.00  0.00    +0.154 HD
ENDROOT
BRANCH   4  11
ATOM     11  C   UNL     1       1.445  -2.580  -1.246  0.00  0.00    -0.023 A 
ATOM     12  C   UNL     1       1.371  -3.303  -2.421  0.00  0.00    +0.006 A 
ATOM     13  C   UNL     1       2.240  -3.026  -3.460  0.00  0.00    +0.004 A 
ATOM     14  C   UNL     1       3.191  -2.033  -3.318  0.00  0.00    -0.045 A 
ATOM     15  C   UNL     1       3.269  -1.313  -2.141  0.00  0.00    +0.004 A 
ATOM     16  C   UNL     1       2.396  -1.586  -1.105  0.00  0.00    +0.006 A 
BRANCH  14  17
ATOM     17  C   UNL     1       4.144  -1.735  -4.447  0.00  0.00    +0.013 C 
ATOM     18  C   UNL     1       4.962  -2.987  -4.768  0.00  0.00    +0.012 C 
ATOM     19  C   UNL     1       3.350  -1.313  -5.686  0.00  0.00    +0.012 C 
ENDBRANCH  14  17
ENDBRANCH   4  11
BRANCH   3  20
ATOM     20  C   UNL     1      -1.107  -1.034  -0.865  0.00  0.00    +0.248 C 
ATOM     21  O   UNL     1      -1.309  -0.212   0.010  0.00  0.00    -0.270 OA
ATOM     22  N   UNL     1      -1.098  -0.655  -2.158  0.00  0.00    -0.282 N 
ATOM     23  H   UNL     1      -1.038  -1.323  -2.859  0.00  0.00    +0.155 HD
BRANCH  22  24
ATOM     24  C   UNL     1      -1.174   0.702  -2.489  0.00  0.00    +0.034 A 
ATOM     25  C   UNL     1      -1.981   1.555  -1.748  0.00  0.00    +0.024 A 
ATOM     26  C   UNL     1      -2.049   2.896  -2.073  0.00  0.00    +0.017 A 
ATOM     27  C   UNL     1      -1.323   3.386  -3.144  0.00  0.00    +0.018 A 
ATOM     28  C   UNL     1      -0.523   2.538  -3.888  0.00  0.00    +0.017 A 
ATOM     29  C   UNL     1      -0.446   1.198  -3.564  0.00  0.00    +0.024 A 
ATOM     30 BR   UNL     1      -1.425   5.221  -3.592  0.00  0.00    -0.050 Br
ENDBRANCH  22  24
ENDBRANCH   3  20
TORSDOF 4
