REMARK  Name = ZINC09399832
REMARK  11 active torsions:
REMARK  status: ('A' for Active; 'I' for Inactive)
REMARK    1  A    between atoms: C_1  and  N_2
REMARK    2  A    between atoms: N_2  and  C_3
REMARK    3  A    between atoms: N_2  and  S_10
REMARK    4  A    between atoms: C_3  and  C_4
REMARK    5  A    between atoms: S_10  and  C_13
REMARK    6  A    between atoms: C_16  and  C_19
REMARK    7  A    between atoms: C_19  and  N_21
REMARK    8  A    between atoms: N_23  and  C_33
REMARK    9  A    between atoms: C_27  and  S_31
REMARK   10  A    between atoms: S_31  and  C_32
REMARK   11  A    between atoms: C_33  and  C_34
REMARK                            x       y       z     vdW  Elec       q    Type
REMARK                         _______ _______ _______ _____ _____    ______ ____
ROOT
ATOM      1  C   UNL     1      -8.502  -1.316  -0.366  0.00  0.00    +0.106 A 
ATOM      2  C   UNL     1      -7.891  -0.076  -0.313  0.00  0.00    +0.029 A 
ATOM      3  C   UNL     1      -6.522   0.029  -0.458  0.00  0.00    +0.015 A 
ATOM      4  C   UNL     1      -5.755  -1.119  -0.658  0.00  0.00    +0.039 A 
ATOM      5  C   UNL     1      -6.378  -2.366  -0.717  0.00  0.00    +0.015 A 
ATOM      6  C   UNL     1      -7.747  -2.458  -0.565  0.00  0.00    +0.029 A 
ENDROOT
BRANCH   1   7
ATOM      7  S   UNL     1     -10.249  -1.441  -0.179  0.00  0.00    +0.061 S 
ATOM      8  O   UNL     1     -10.522  -2.784   0.198  0.00  0.00    -0.153 OA
ATOM      9  O   UNL     1     -10.655  -0.331   0.609  0.00  0.00    -0.153 OA
BRANCH   7  11
ATOM     10  C   UNL     1     -11.040  -2.361  -2.597  0.00  0.00    +0.132 C 
ATOM     11  N   UNL     1     -10.918  -1.226  -1.679  0.00  0.00    -0.175 NA
BRANCH  11  12
ATOM     12  C   UNL     1     -11.388   0.100  -2.088  0.00  0.00    +0.144 C 
BRANCH  12  13
ATOM     13  C   UNL     1     -12.874   0.199  -1.859  0.00  0.00    -0.032 A 
ATOM     14  C   UNL     1     -13.754  -0.244  -2.828  0.00  0.00    +0.005 A 
ATOM     15  C   UNL     1     -15.117  -0.158  -2.615  0.00  0.00    +0.000 A 
ATOM     16  C   UNL     1     -15.601   0.381  -1.438  0.00  0.00    +0.000 A 
ATOM     17  C   UNL     1     -14.720   0.830  -0.471  0.00  0.00    +0.000 A 
ATOM     18  C   UNL     1     -13.357   0.739  -0.681  0.00  0.00    +0.005 A 
ENDBRANCH  12  13
ENDBRANCH  11  12
ENDBRANCH   7  11
ENDBRANCH   1   7
BRANCH   4  19
ATOM     19  C   UNL     1      -4.286  -1.014  -0.815  0.00  0.00    +0.269 C 
ATOM     20  O   UNL     1      -3.745   0.077  -0.768  0.00  0.00    -0.268 OA
BRANCH  19  21
ATOM     21  N   UNL     1      -3.554  -2.115  -1.007  0.00  0.00    -0.152 NA
ATOM     22  C   UNL     1      -2.236  -2.021  -1.147  0.00  0.00    +0.168 A 
ATOM     23  N   UNL     1      -1.336  -3.019  -1.348  0.00  0.00    -0.310 N 
ATOM     24  C   UNL     1       0.011  -2.725  -1.473  0.00  0.00    +0.059 A 
ATOM     25  C   UNL     1       1.080  -3.611  -1.682  0.00  0.00    +0.028 A 
ATOM     26  C   UNL     1       2.370  -3.150  -1.782  0.00  0.00    +0.017 A 
ATOM     27  C   UNL     1       2.658  -1.792  -1.681  0.00  0.00    +0.009 A 
ATOM     28  C   UNL     1       1.617  -0.894  -1.474  0.00  0.00    +0.032 A 
ATOM     29  C   UNL     1       0.329  -1.362  -1.374  0.00  0.00    +0.040 A 
ATOM     30  S   UNL     1      -1.250  -0.594  -1.111  0.00  0.00    -0.052 S 
BRANCH  27  31
ATOM     31  S   UNL     1       4.319  -1.219  -1.815  0.00  0.00    -0.129 S 
ATOM     32  C   UNL     1       5.285  -2.731  -2.075  0.00  0.00    +0.090 C 
ENDBRANCH  27  31
BRANCH  23  33
ATOM     33  C   UNL     1      -1.792  -4.409  -1.434  0.00  0.00    +0.212 C 
BRANCH  33  34
ATOM     34  C   UNL     1      -1.788  -5.010  -0.090  0.00  0.00    -0.084 C 
ATOM     35  C   UNL     1      -1.785  -5.490   0.982  0.00  0.00    +0.005 C 
ENDBRANCH  33  34
ENDBRANCH  23  33
ENDBRANCH  19  21
ENDBRANCH   4  19
TORSDOF 9
