REMARK  Name = ZINC35041845
REMARK  5 active torsions:
REMARK  status: ('A' for Active; 'I' for Inactive)
REMARK    1  A    between atoms: C_1  and  C_2
REMARK    2  A    between atoms: C_5  and  N_9
REMARK    3  A    between atoms: N_9  and  C_10
REMARK    4  A    between atoms: C_10  and  C_11
REMARK    5  A    between atoms: C_15  and  N_17
REMARK                            x       y       z     vdW  Elec       q    Type
REMARK                         _______ _______ _______ _____ _____    ______ ____
ROOT
ATOM      1  N   UNL     1       0.058  -4.168  -0.021  0.00  0.00    -0.340 N 
ATOM      2  H   UNL     1       0.060  -4.648  -0.864  0.00  0.00    +0.146 HD
ENDROOT
BRANCH   1   7
ATOM      3  C   UNL     1      -0.018   1.503   0.010  0.00  0.00    +0.045 C 
ATOM      4  C   UNL     1       0.002  -0.004   0.002  0.00  0.00    -0.037 A 
ATOM      5  C   UNL     1       0.006  -0.687  -1.200  0.00  0.00    +0.006 A 
ATOM      6  C   UNL     1       0.024  -2.068  -1.212  0.00  0.00    +0.023 A 
ATOM      7  C   UNL     1       0.040  -2.771  -0.013  0.00  0.00    +0.028 A 
ATOM      8  C   UNL     1       0.036  -2.082   1.193  0.00  0.00    +0.037 A 
ATOM      9  C   UNL     1       0.023  -0.701   1.197  0.00  0.00    +0.018 A 
ATOM     10  I   UNL     1       0.027   0.340   3.015  0.00  0.00    -0.043 I 
ENDBRANCH   1   7
BRANCH   1  11
ATOM     11  C   UNL     1       0.074  -4.907   1.243  0.00  0.00    +0.137 C 
BRANCH  11  12
ATOM     12  C   UNL     1       0.092  -6.387   0.959  0.00  0.00    -0.028 A 
ATOM     13  C   UNL     1      -1.097  -7.081   0.829  0.00  0.00    +0.005 A 
ATOM     14  C   UNL     1      -1.080  -8.438   0.568  0.00  0.00    +0.003 A 
ATOM     15  C   UNL     1       0.126  -9.102   0.437  0.00  0.00    +0.033 A 
ATOM     16  C   UNL     1       1.314  -8.409   0.567  0.00  0.00    +0.127 A 
ATOM     17  C   UNL     1       1.298  -7.050   0.823  0.00  0.00    +0.038 A 
BRANCH  16  18
ATOM     18  N   UNL     1       2.605  -9.120   0.427  0.00  0.00    +0.056 N 
ATOM     19  O   UNL     1       2.620 -10.307   0.200  0.00  0.00    -0.126 OA
ATOM     20  O   UNL     1       3.645  -8.513   0.540  0.00  0.00    -0.126 OA
ENDBRANCH  16  18
ENDBRANCH  11  12
ENDBRANCH   1  11
TORSDOF 4
