REMARK  Name = ZINC59323149
REMARK  4 active torsions:
REMARK  status: ('A' for Active; 'I' for Inactive)
REMARK    1  A    between atoms: C_6  and  C_7
REMARK    2  A    between atoms: N_15  and  C_16
REMARK    3  A    between atoms: C_16  and  C_17
REMARK    4  A    between atoms: C_17  and  N_22
REMARK                            x       y       z     vdW  Elec       q    Type
REMARK                         _______ _______ _______ _____ _____    ______ ____
ROOT
ATOM      1  C   UNL     1      -0.517   0.133  -0.173  0.00  0.00    +0.108 C 
ATOM      2  C   UNL     1      -0.874   0.306   1.319  0.00  0.00    +0.029 C 
ATOM      3  C   UNL     1      -2.424   0.351   1.302  0.00  0.00    +0.021 C 
ATOM      4  C   UNL     1      -2.699   1.103  -0.024  0.00  0.00    +0.110 C 
ATOM      5  N   UNL     1      -1.663   0.615  -0.958  0.00  0.00    -0.279 N 
ATOM      6  C   UNL     1      -1.751   0.612  -2.303  0.00  0.00    +0.303 C 
ATOM      7  O   UNL     1      -0.830   0.185  -2.971  0.00  0.00    -0.253 OA
ATOM      8  N   UNL     1      -2.860   1.083  -2.906  0.00  0.00    -0.297 N 
ATOM      9  H   UNL     1      -3.595   1.424  -2.373  0.00  0.00    +0.150 HD
ENDROOT
BRANCH   1  15
ATOM     10  C   UNL     1       0.596   2.306  -0.722  0.00  0.00    +0.009 A 
ATOM     11  C   UNL     1       1.718   3.054  -1.028  0.00  0.00    +0.050 A 
ATOM     12  C   UNL     1       2.959   2.442  -1.116  0.00  0.00    +0.162 A 
ATOM     13  C   UNL     1       3.072   1.074  -0.894  0.00  0.00    +0.162 A 
ATOM     14  C   UNL     1       1.943   0.329  -0.589  0.00  0.00    +0.055 A 
ATOM     15  C   UNL     1       0.709   0.946  -0.504  0.00  0.00    -0.023 A 
ATOM     16  O   UNL     1       4.282   0.454  -0.967  0.00  0.00    -0.485 OA
ATOM     17  C   UNL     1       5.328   1.163  -1.639  0.00  0.00    +0.270 C 
ATOM     18  C   UNL     1       5.330   2.612  -1.131  0.00  0.00    +0.270 C 
ATOM     19  O   UNL     1       4.053   3.191  -1.421  0.00  0.00    -0.485 OA
ENDBRANCH   1  15
BRANCH   8  20
ATOM     20  C   UNL     1      -2.956   1.080  -4.368  0.00  0.00    +0.128 C 
BRANCH  20  21
ATOM     21  C   UNL     1      -4.315   1.641  -4.792  0.00  0.00    +0.047 C 
ATOM     22  C   UNL     1      -4.309   1.849  -6.305  0.00  0.00    +0.035 C 
ATOM     23  C   UNL     1      -4.813   0.569  -7.028  0.00  0.00    +0.071 C 
ATOM     24  S   UNL     1      -6.174   0.083  -5.878  0.00  0.00    -0.159 S 
ATOM     25  C   UNL     1      -5.418   0.680  -4.308  0.00  0.00    +0.093 C 
BRANCH  21  26
ATOM     26  N   UNL     1      -4.508   2.944  -4.141  0.00  0.00    -0.290 NA
ATOM     27  C   UNL     1      -5.834   3.498  -4.454  0.00  0.00    +0.113 C 
ATOM     28  C   UNL     1      -6.015   4.824  -3.710  0.00  0.00    +0.175 C 
ATOM     29  O   UNL     1      -4.957   5.716  -4.071  0.00  0.00    -0.377 OA
ATOM     30  C   UNL     1      -3.652   5.208  -3.780  0.00  0.00    +0.175 C 
ATOM     31  C   UNL     1      -3.446   3.887  -4.524  0.00  0.00    +0.113 C 
ENDBRANCH  21  26
ENDBRANCH  20  21
ENDBRANCH   8  20
TORSDOF 4
