REMARK  Name = ZINC11593968
REMARK  10 active torsions:
REMARK  status: ('A' for Active; 'I' for Inactive)
REMARK    1  A    between atoms: C_1  and  C_2
REMARK    2  A    between atoms: C_5  and  O_8
REMARK    3  A    between atoms: O_8  and  C_9
REMARK    4  A    between atoms: C_14  and  N_15
REMARK    5  A    between atoms: C_16  and  C_18
REMARK    6  A    between atoms: C_18  and  S_19
REMARK    7  A    between atoms: S_19  and  C_20
REMARK    8  A    between atoms: C_23  and  C_26
REMARK    9  A    between atoms: N_24  and  N_25
REMARK   10  A    between atoms: C_30  and  C_31
REMARK                            x       y       z     vdW  Elec       q    Type
REMARK                         _______ _______ _______ _____ _____    ______ ____
ROOT
ATOM      1  N   UNL     1      -1.672  -1.847   0.021  0.00  0.00    -0.282 N 
ATOM      2  C   UNL     1      -1.339  -0.585   0.355  0.00  0.00    +0.228 C 
ATOM      3  O   UNL     1      -2.150   0.132   0.901  0.00  0.00    -0.275 OA
ATOM      4  H   UNL     1      -1.031  -2.414  -0.436  0.00  0.00    +0.155 HD
ENDROOT
BRANCH   1  10
ATOM      5  C   UNL     1      -3.160  -3.716   0.418  0.00  0.00    +0.150 A 
ATOM      6  C   UNL     1      -4.420  -4.199   0.732  0.00  0.00    +0.048 A 
ATOM      7  C   UNL     1      -5.463  -3.319   0.951  0.00  0.00    +0.004 A 
ATOM      8  C   UNL     1      -5.252  -1.955   0.862  0.00  0.00    +0.002 A 
ATOM      9  C   UNL     1      -3.997  -1.465   0.554  0.00  0.00    +0.027 A 
ATOM     10  C   UNL     1      -2.945  -2.342   0.333  0.00  0.00    +0.076 A 
BRANCH   5  11
ATOM     11  O   UNL     1      -2.134  -4.580   0.197  0.00  0.00    -0.454 OA
BRANCH  11  16
ATOM     12  C   UNL     1      -3.280 -10.095   0.175  0.00  0.00    +0.044 C 
ATOM     13  C   UNL     1      -2.974  -8.619   0.181  0.00  0.00    -0.050 A 
ATOM     14  C   UNL     1      -3.344  -7.833  -0.894  0.00  0.00    +0.007 A 
ATOM     15  C   UNL     1      -3.064  -6.481  -0.891  0.00  0.00    +0.046 A 
ATOM     16  C   UNL     1      -2.411  -5.911   0.192  0.00  0.00    +0.129 A 
ATOM     17  C   UNL     1      -2.036  -6.703   1.268  0.00  0.00    +0.046 A 
ATOM     18  C   UNL     1      -2.323  -8.054   1.262  0.00  0.00    +0.007 A 
ENDBRANCH  11  16
ENDBRANCH   5  11
ENDBRANCH   1  10
BRANCH   2  19
ATOM     19  C   UNL     1       0.042  -0.064   0.049  0.00  0.00    +0.173 C 
BRANCH  19  20
ATOM     20  S   UNL     1       0.179   1.650   0.615  0.00  0.00    -0.075 S 
BRANCH  20  21
ATOM     21  C   UNL     1       1.842   1.994   0.146  0.00  0.00    +0.209 A 
ATOM     22  N   UNL     1       2.672   1.167  -0.447  0.00  0.00    -0.121 NA
ATOM     23  N   UNL     1       3.804   1.742  -0.644  0.00  0.00    -0.127 NA
ATOM     24  C   UNL     1       3.767   2.973  -0.189  0.00  0.00    +0.185 A 
ATOM     25  N   UNL     1       2.508   3.175   0.326  0.00  0.00    -0.224 N 
BRANCH  24  26
ATOM     26  C   UNL     1       4.869   3.958  -0.228  0.00  0.00    +0.061 A 
ATOM     27  C   UNL     1       4.844   5.337   0.276  0.00  0.00    +0.053 A 
ATOM     28  C   UNL     1       6.062   5.846   0.025  0.00  0.00    +0.196 A 
ATOM     29  O   UNL     1       6.812   4.910  -0.577  0.00  0.00    -0.467 OA
ATOM     30  C   UNL     1       6.119   3.773  -0.733  0.00  0.00    +0.112 A 
ATOM     31  C   UNL     1       6.635   2.506  -1.365  0.00  0.00    +0.087 C 
ENDBRANCH  24  26
BRANCH  25  32
ATOM     32  N   UNL     1       2.024   4.316   0.900  0.00  0.00    -0.295 N 
ATOM     33  H   UNL     1       2.195   4.321   1.894  0.00  0.00    +0.163 HD
ATOM     34  H   UNL     1       2.416   5.136   0.461  0.00  0.00    +0.163 HD
ENDBRANCH  25  32
ENDBRANCH  20  21
ENDBRANCH  19  20
ENDBRANCH   2  19
TORSDOF 8
