REMARK  Name = ZINC57458303
REMARK  9 active torsions:
REMARK  status: ('A' for Active; 'I' for Inactive)
REMARK    1  A    between atoms: C_1  and  C_2
REMARK    2  A    between atoms: C_3  and  C_23
REMARK    3  A    between atoms: C_4  and  C_11
REMARK    4  A    between atoms: N_9  and  C_10
REMARK    5  A    between atoms: C_14  and  O_19
REMARK    6  A    between atoms: C_15  and  O_17
REMARK    7  A    between atoms: O_17  and  C_18
REMARK    8  A    between atoms: O_19  and  C_20
REMARK    9  A    between atoms: N_25  and  C_26
REMARK                            x       y       z     vdW  Elec       q    Type
REMARK                         _______ _______ _______ _____ _____    ______ ____
ROOT
ATOM      1  C   UNL     1      -1.052   1.649   1.408  0.00  0.00    +0.061 C 
ATOM      2  C   UNL     1      -0.639   0.312   0.850  0.00  0.00    +0.022 C 
ATOM      3  C   UNL     1      -1.568  -0.652   0.679  0.00  0.00    +0.056 C 
ATOM      4  C   UNL     1      -1.111  -1.981   0.114  0.00  0.00    +0.142 C 
ATOM      5  N   UNL     1       0.321  -2.114  -0.205  0.00  0.00    -0.288 N 
ATOM      6  C   UNL     1       1.129  -1.059   0.021  0.00  0.00    +0.307 C 
ATOM      7  O   UNL     1       2.312  -1.158  -0.239  0.00  0.00    -0.252 OA
ATOM      8  N   UNL     1       0.669   0.097   0.518  0.00  0.00    -0.262 N 
ATOM      9  C   UNL     1       1.624   1.189   0.725  0.00  0.00    +0.139 C 
ATOM     10  H   UNL     1       0.674  -2.940  -0.569  0.00  0.00    +0.151 HD
ENDROOT
BRANCH   4  11
ATOM     11  C   UNL     1      -1.466  -3.055   1.109  0.00  0.00    -0.019 A 
ATOM     12  C   UNL     1      -2.400  -4.020   0.779  0.00  0.00    +0.009 A 
ATOM     13  C   UNL     1      -2.729  -5.008   1.689  0.00  0.00    +0.050 A 
ATOM     14  C   UNL     1      -2.121  -5.033   2.934  0.00  0.00    +0.168 A 
ATOM     15  C   UNL     1      -1.181  -4.063   3.266  0.00  0.00    +0.162 A 
ATOM     16  C   UNL     1      -0.852  -3.078   2.348  0.00  0.00    +0.055 A 
BRANCH  15  17
ATOM     17  O   UNL     1      -0.582  -4.083   4.487  0.00  0.00    -0.491 OA
ATOM     18  C   UNL     1       0.300  -3.002   4.795  0.00  0.00    +0.277 C 
ENDBRANCH  15  17
BRANCH  14  19
ATOM     19  O   UNL     1      -2.444  -6.004   3.830  0.00  0.00    -0.431 OA
BRANCH  19  20
ATOM     20  C   UNL     1      -3.418  -6.966   3.421  0.00  0.00    +0.541 C 
ATOM     21  F   UNL     1      -4.620  -6.316   3.123  0.00  0.00    -0.166 F 
ATOM     22  F   UNL     1      -2.958  -7.641   2.285  0.00  0.00    -0.166 F 
ENDBRANCH  19  20
ENDBRANCH  14  19
ENDBRANCH   4  11
BRANCH   3  23
ATOM     23  C   UNL     1      -2.926  -0.428   1.017  0.00  0.00    +0.248 C 
ATOM     24  O   UNL     1      -3.251   0.602   1.580  0.00  0.00    -0.270 OA
ATOM     25  N   UNL     1      -3.857  -1.355   0.717  0.00  0.00    -0.282 N 
ATOM     26  H   UNL     1      -3.587  -2.216   0.360  0.00  0.00    +0.155 HD
BRANCH  25  27
ATOM     27  C   UNL     1      -5.213  -1.075   0.919  0.00  0.00    +0.034 A 
ATOM     28  C   UNL     1      -5.700   0.205   0.695  0.00  0.00    +0.026 A 
ATOM     29  C   UNL     1      -7.039   0.479   0.894  0.00  0.00    +0.040 A 
ATOM     30  C   UNL     1      -7.896  -0.523   1.319  0.00  0.00    +0.124 A 
ATOM     31  C   UNL     1      -7.412  -1.801   1.544  0.00  0.00    +0.040 A 
ATOM     32  C   UNL     1      -6.075  -2.080   1.339  0.00  0.00    +0.026 A 
ATOM     33  F   UNL     1      -9.205  -0.254   1.514  0.00  0.00    -0.205 F 
ENDBRANCH  25  27
ENDBRANCH   3  23
TORSDOF 6
