REMARK  Name = ZINC39687090
REMARK  8 active torsions:
REMARK  status: ('A' for Active; 'I' for Inactive)
REMARK    1  A    between atoms: C_1  and  C_2
REMARK    2  A    between atoms: C_2  and  C_4
REMARK    3  A    between atoms: C_2  and  N_12
REMARK    4  A    between atoms: C_4  and  C_5
REMARK    5  A    between atoms: C_13  and  C_15
REMARK    6  A    between atoms: C_26  and  C_28
REMARK    7  A    between atoms: C_33  and  S_34
REMARK    8  A    between atoms: S_34  and  C_35
REMARK                            x       y       z     vdW  Elec       q    Type
REMARK                         _______ _______ _______ _____ _____    ______ ____
ROOT
ATOM      1  C   UNL     1      -4.013  -0.879  -1.099  0.00  0.00    +0.100 C 
ATOM      2  C   UNL     1      -3.804  -2.342  -0.650  0.00  0.00    +0.121 C 
ATOM      3  N   UNL     1      -4.694  -3.135  -1.530  0.00  0.00    -0.296 N 
ATOM      4  C   UNL     1      -4.571  -2.488  -2.859  0.00  0.00    +0.115 C 
ATOM      5  C   UNL     1      -4.516  -0.979  -2.549  0.00  0.00    -0.004 C 
ATOM      6  C   UNL     1      -5.907  -0.364  -2.669  0.00  0.00    -0.010 C 
ATOM      7  C   UNL     1      -6.362  -0.424  -4.130  0.00  0.00    -0.082 C 
ATOM      8  N   UNL     1      -5.408   0.307  -4.972  0.00  0.00    +0.379 N 
ATOM      9  C   UNL     1      -4.094  -0.345  -4.923  0.00  0.00    -0.082 C 
ATOM     10  C   UNL     1      -3.543  -0.282  -3.496  0.00  0.00    -0.010 C 
ATOM     11  C   UNL     1      -5.446  -4.203  -1.198  0.00  0.00    +0.249 C 
ATOM     12  O   UNL     1      -6.055  -4.809  -2.059  0.00  0.00    -0.270 OA
ATOM     13  H   UNL     1      -5.741   0.318  -5.924  0.00  0.00    -0.086 HD
ATOM     14  H   UNL     1      -5.324   1.255  -4.637  0.00  0.00    -0.086 HD
ENDROOT
BRANCH  11  15
ATOM     15  C   UNL     1      -5.531  -4.636   0.208  0.00  0.00    +0.069 A 
ATOM     16  C   UNL     1      -4.420  -4.532   1.054  0.00  0.00    +0.017 A 
ATOM     17  C   UNL     1      -4.551  -4.952   2.365  0.00  0.00    +0.020 A 
ATOM     18  C   UNL     1      -5.763  -5.459   2.801  0.00  0.00    +0.112 A 
ATOM     19  N   UNL     1      -6.798  -5.549   1.990  0.00  0.00    -0.248 NA
ATOM     20  C   UNL     1      -6.730  -5.156   0.726  0.00  0.00    +0.114 A 
BRANCH  20  21
ATOM     21  S   UNL     1      -8.147  -5.293  -0.312  0.00  0.00    -0.069 S 
BRANCH  21  22
ATOM     22  C   UNL     1      -9.332  -6.126   0.692  0.00  0.00    +0.014 A 
ATOM     23  C   UNL     1     -10.265  -5.396   1.417  0.00  0.00    +0.015 A 
ATOM     24  C   UNL     1     -11.193  -6.051   2.202  0.00  0.00    +0.001 A 
ATOM     25  C   UNL     1     -11.193  -7.433   2.268  0.00  0.00    +0.000 A 
ATOM     26  C   UNL     1     -10.265  -8.162   1.547  0.00  0.00    +0.001 A 
ATOM     27  C   UNL     1      -9.338  -7.514   0.755  0.00  0.00    +0.015 A 
ENDBRANCH  21  22
ENDBRANCH  20  21
ENDBRANCH  11  15
BRANCH   1  29
ATOM     28  N   UNL     1      -2.711   1.206  -0.821  0.00  0.00    -0.312 N 
ATOM     29  C   UNL     1      -2.710  -0.123  -1.047  0.00  0.00    +0.218 C 
ATOM     30  O   UNL     1      -1.661  -0.710  -1.209  0.00  0.00    -0.275 OA
ATOM     31  H   UNL     1      -3.550   1.675  -0.692  0.00  0.00    +0.149 HD
BRANCH  28  33
ATOM     32  C   UNL     1      -1.024   2.331  -2.188  0.00  0.00    +0.028 C 
ATOM     33  C   UNL     1      -1.444   1.941  -0.770  0.00  0.00    +0.074 C 
BRANCH  33  34
ATOM     34  C   UNL     1      -1.621   3.204   0.075  0.00  0.00    +0.060 C 
BRANCH  34  35
ATOM     35  C   UNL     1      -1.915   2.817   1.502  0.00  0.00    -0.010 A 
ATOM     36  C   UNL     1      -3.224   2.732   1.939  0.00  0.00    +0.006 A 
ATOM     37  C   UNL     1      -3.494   2.377   3.248  0.00  0.00    +0.000 A 
ATOM     38  C   UNL     1      -2.456   2.107   4.120  0.00  0.00    +0.003 A 
ATOM     39  C   UNL     1      -1.147   2.190   3.684  0.00  0.00    +0.038 A 
ATOM     40  C   UNL     1      -0.875   2.541   2.373  0.00  0.00    +0.127 A 
ATOM     41  F   UNL     1       0.404   2.618   1.944  0.00  0.00    -0.205 F 
ENDBRANCH  34  35
ENDBRANCH  33  34
ENDBRANCH  28  33
ENDBRANCH   1  29
TORSDOF 7
