REMARK  Name = ZINC26872857
REMARK  8 active torsions:
REMARK  status: ('A' for Active; 'I' for Inactive)
REMARK    1  A    between atoms: C_1  and  C_2
REMARK    2  A    between atoms: C_2  and  C_4
REMARK    3  A    between atoms: C_2  and  N_11
REMARK    4  A    between atoms: N_11  and  C_12
REMARK    5  A    between atoms: C_13  and  C_15
REMARK    6  A    between atoms: C_15  and  N_16
REMARK    7  A    between atoms: C_19  and  C_23
REMARK    8  A    between atoms: C_19  and  C_24
REMARK                            x       y       z     vdW  Elec       q    Type
REMARK                         _______ _______ _______ _____ _____    ______ ____
ROOT
ATOM      1  N   UNL     1       1.085   1.986   0.078  0.00  0.00    -0.215 N 
ATOM      2  C   UNL     1       0.034   1.142   0.107  0.00  0.00    +0.251 C 
ATOM      3  O   UNL     1       0.068  -0.070   0.098  0.00  0.00    -0.272 OA
ATOM      4  C   UNL     1      -1.198   2.023   0.148  0.00  0.00    +0.135 C 
ATOM      5  N   UNL     1      -0.647   3.390   0.144  0.00  0.00    -0.281 N 
ATOM      6  C   UNL     1       0.691   3.265   0.099  0.00  0.00    +0.310 C 
ATOM      7  O   UNL     1       1.458   4.208   0.080  0.00  0.00    -0.252 OA
ATOM      8  C   UNL     1      -2.069   1.788  -1.088  0.00  0.00    +0.047 C 
ATOM      9  H   UNL     1      -1.325   4.256   0.175  0.00  0.00    +0.152 HD
ENDROOT
BRANCH   4  10
ATOM     10  C   UNL     1      -1.986   1.776   1.408  0.00  0.00    -0.015 A 
ATOM     11  C   UNL     1      -1.957   0.514   1.999  0.00  0.00    +0.007 A 
ATOM     12  C   UNL     1      -2.657   0.257   3.138  0.00  0.00    +0.009 A 
ATOM     13  C   UNL     1      -3.421   1.277   3.729  0.00  0.00    -0.018 A 
ATOM     14  C   UNL     1      -4.157   1.050   4.905  0.00  0.00    +0.008 A 
ATOM     15  C   UNL     1      -4.886   2.062   5.449  0.00  0.00    +0.001 A 
ATOM     16  C   UNL     1      -4.915   3.324   4.858  0.00  0.00    +0.001 A 
ATOM     17  C   UNL     1      -4.216   3.580   3.719  0.00  0.00    +0.008 A 
ATOM     18  C   UNL     1      -3.452   2.560   3.128  0.00  0.00    -0.018 A 
ATOM     19  C   UNL     1      -2.711   2.789   1.955  0.00  0.00    +0.014 A 
ENDBRANCH   4  10
BRANCH   1  20
ATOM     20  C   UNL     1       2.484   1.556   0.030  0.00  0.00    +0.213 C 
BRANCH  20  23
ATOM     21  N   UNL     1       4.176   1.030  -1.696  0.00  0.00    -0.296 N 
ATOM     22  C   UNL     1       5.122   0.744  -0.615  0.00  0.00    +0.132 C 
ATOM     23  C   UNL     1       2.918   1.417  -1.407  0.00  0.00    +0.234 C 
ATOM     24  O   UNL     1       2.135   1.654  -2.302  0.00  0.00    -0.274 OA
BRANCH  21  26
ATOM     25  C   UNL     1       5.860   1.726  -3.327  0.00  0.00    +0.033 C 
ATOM     26  C   UNL     1       4.598   0.894  -3.093  0.00  0.00    +0.103 C 
BRANCH  26  27
ATOM     27  C   UNL     1       4.887  -0.554  -3.392  0.00  0.00    -0.027 A 
ATOM     28  C   UNL     1       5.790  -1.253  -2.613  0.00  0.00    +0.008 A 
ATOM     29  C   UNL     1       6.053  -2.582  -2.883  0.00  0.00    +0.038 A 
ATOM     30  C   UNL     1       5.420  -3.211  -3.942  0.00  0.00    +0.123 A 
ATOM     31  C   UNL     1       4.519  -2.509  -4.724  0.00  0.00    +0.038 A 
ATOM     32  C   UNL     1       4.254  -1.181  -4.449  0.00  0.00    +0.008 A 
ATOM     33  F   UNL     1       5.679  -4.510  -4.210  0.00  0.00    -0.205 F 
ENDBRANCH  26  27
ENDBRANCH  21  26
ENDBRANCH  20  23
ENDBRANCH   1  20
TORSDOF 5
