REMARK  Name = ZINC63560707
REMARK  12 active torsions:
REMARK  status: ('A' for Active; 'I' for Inactive)
REMARK    1  A    between atoms: C_1  and  C_2
REMARK    2  A    between atoms: C_4  and  N_24
REMARK    3  A    between atoms: C_5  and  C_20
REMARK    4  A    between atoms: C_6  and  C_14
REMARK    5  A    between atoms: C_8  and  C_10
REMARK    6  A    between atoms: C_10  and  O_12
REMARK    7  A    between atoms: O_12  and  C_13
REMARK    8  A    between atoms: C_20  and  O_22
REMARK    9  A    between atoms: O_22  and  C_23
REMARK   10  A    between atoms: N_24  and  C_25
REMARK   11  A    between atoms: C_25  and  C_26
REMARK   12  A    between atoms: C_26  and  C_27
REMARK                            x       y       z     vdW  Elec       q    Type
REMARK                         _______ _______ _______ _____ _____    ______ ____
ROOT
ATOM      1  C   UNL     1      -2.159  -1.734  -1.734  0.00  0.00    +0.040 C 
ATOM      2  C   UNL     1      -1.399  -1.943  -0.450  0.00  0.00    -0.056 C 
ATOM      3  C   UNL     1      -1.232  -3.174   0.020  0.00  0.00    +0.023 C 
ATOM      4  C   UNL     1      -0.518  -3.386   1.288  0.00  0.00    +0.038 C 
ATOM      5  C   UNL     1      -0.339  -2.324   2.146  0.00  0.00    +0.066 C 
ATOM      6  C   UNL     1      -0.913  -0.976   1.792  0.00  0.00    +0.075 C 
ATOM      7  C   UNL     1      -0.832  -0.756   0.280  0.00  0.00    +0.135 C 
ENDROOT
BRANCH   6   8
ATOM      8  C   UNL     1      -0.127   0.102   2.493  0.00  0.00    -0.039 A 
ATOM      9  C   UNL     1       1.215  -0.088   2.766  0.00  0.00    +0.004 A 
ATOM     10  C   UNL     1       1.936   0.901   3.409  0.00  0.00    +0.000 A 
ATOM     11  C   UNL     1       1.316   2.079   3.779  0.00  0.00    +0.000 A 
ATOM     12  C   UNL     1      -0.026   2.269   3.506  0.00  0.00    +0.000 A 
ATOM     13  C   UNL     1      -0.746   1.283   2.859  0.00  0.00    +0.004 A 
ENDBRANCH   6   8
BRANCH   7  14
ATOM     14  C   UNL     1       0.607  -0.563  -0.124  0.00  0.00    +0.315 C 
ATOM     15  O   UNL     1       1.260  -1.506  -0.503  0.00  0.00    -0.250 OA
BRANCH  14  16
ATOM     16  O   UNL     1       1.163   0.657  -0.062  0.00  0.00    -0.467 OA
ATOM     17  C   UNL     1       2.531   0.767  -0.460  0.00  0.00    +0.280 C 
ENDBRANCH  14  16
ENDBRANCH   7  14
BRANCH   5  18
ATOM     18  C   UNL     1       0.375  -2.496   3.344  0.00  0.00    +0.337 C 
ATOM     19  O   UNL     1      -0.152  -2.234   4.410  0.00  0.00    -0.245 OA
BRANCH  18  20
ATOM     20  O   UNL     1       1.646  -2.952   3.313  0.00  0.00    -0.465 OA
ATOM     21  C   UNL     1       2.312  -3.103   4.568  0.00  0.00    +0.280 C 
ENDBRANCH  18  20
ENDBRANCH   5  18
BRANCH   4  22
ATOM     22  N   UNL     1      -0.035  -4.633   1.614  0.00  0.00    -0.343 N 
ATOM     23  H   UNL     1       0.365  -4.786   2.485  0.00  0.00    +0.146 HD
BRANCH  22  24
ATOM     24  C   UNL     1      -0.124  -5.729   0.647  0.00  0.00    +0.106 C 
BRANCH  24  25
ATOM     25  C   UNL     1       0.480  -6.997   1.254  0.00  0.00    +0.052 C 
BRANCH  25  26
ATOM     26  C   UNL     1       0.388  -8.124   0.259  0.00  0.00    -0.040 C 
ATOM     27  C   UNL     1       1.347  -8.524  -0.608  0.00  0.00    -0.001 A 
ATOM     28  C   UNL     1       2.708  -8.046  -0.874  0.00  0.00    +0.010 A 
ATOM     29  C   UNL     1       3.445  -8.661  -1.827  0.00  0.00    +0.001 A 
ATOM     30  C   UNL     1       2.942  -9.741  -2.565  0.00  0.00    +0.002 A 
ATOM     31  C   UNL     1       1.700 -10.237  -2.377  0.00  0.00    +0.026 A 
ATOM     32  C   UNL     1       0.839  -9.667  -1.400  0.00  0.00    +0.043 A 
ATOM     33  N   UNL     1      -0.386  -9.962  -1.037  0.00  0.00    -0.380 N 
ATOM     34  C   UNL     1      -0.791  -9.043   0.032  0.00  0.00    +0.144 C 
ATOM     35  H   UNL     1      -0.931 -10.672  -1.410  0.00  0.00    +0.160 HD
ENDBRANCH  25  26
ENDBRANCH  24  25
ENDBRANCH  22  24
ENDBRANCH   4  22
TORSDOF 9
