REMARK  Name = ZINC49601446
REMARK  14 active torsions:
REMARK  status: ('A' for Active; 'I' for Inactive)
REMARK    1  A    between atoms: C_1  and  C_2
REMARK    2  A    between atoms: C_2  and  O_4
REMARK    3  A    between atoms: O_4  and  C_5
REMARK    4  A    between atoms: C_9  and  C_43
REMARK    5  A    between atoms: C_9  and  C_44
REMARK    6  A    between atoms: C_12  and  C_42
REMARK    7  A    between atoms: C_16  and  C_41
REMARK    8  A    between atoms: C_18  and  O_40
REMARK    9  A    between atoms: C_23  and  O_36
REMARK   10  A    between atoms: C_25  and  O_27
REMARK   11  A    between atoms: O_27  and  C_28
REMARK   12  A    between atoms: C_28  and  C_30
REMARK   13  A    between atoms: O_36  and  C_37
REMARK   14  A    between atoms: C_37  and  C_39
REMARK                            x       y       z     vdW  Elec       q    Type
REMARK                         _______ _______ _______ _____ _____    ______ ____
ROOT
ATOM      1  C   UNL     1      -0.616  -1.966   0.473  0.00  0.00    +0.183 C 
ATOM      2  C   UNL     1       0.088  -2.406  -0.813  0.00  0.00    +0.046 C 
ATOM      3  C   UNL     1      -0.690  -1.857  -2.003  0.00  0.00    +0.010 C 
ATOM      4  C   UNL     1      -2.139  -2.332  -2.010  0.00  0.00    -0.028 C 
ATOM      5  C   UNL     1      -2.849  -2.122  -0.675  0.00  0.00    +0.049 C 
ATOM      6  C   UNL     1      -2.023  -2.568   0.521  0.00  0.00    +0.018 C 
ATOM      7  C   UNL     1      -2.677  -2.222   1.847  0.00  0.00    -0.013 C 
ATOM      8  C   UNL     1      -3.964  -3.006   2.131  0.00  0.00    +0.008 C 
ATOM      9  C   UNL     1      -3.987  -3.250   3.658  0.00  0.00    +0.010 C 
ATOM     10  C   UNL     1      -2.723  -2.559   4.220  0.00  0.00    -0.006 C 
ATOM     11  C   UNL     1      -1.734  -2.615   3.018  0.00  0.00    +0.017 C 
ATOM     12  C   UNL     1      -3.039  -1.081   4.474  0.00  0.00    +0.121 C 
ATOM     13  C   UNL     1      -3.773  -0.495   3.269  0.00  0.00    +0.039 C 
ATOM     14  C   UNL     1      -2.956  -0.728   1.984  0.00  0.00    +0.043 C 
ATOM     15  C   UNL     1      -3.752  -0.198   0.811  0.00  0.00    +0.221 C 
ATOM     16  C   UNL     1      -3.350  -0.692  -0.564  0.00  0.00    +0.222 C 
ATOM     17  C   UNL     1      -2.172  -3.266   5.461  0.00  0.00    +0.014 C 
ATOM     18  C   UNL     1      -1.858  -4.103   0.511  0.00  0.00    +0.016 C 
ATOM     19  C   UNL     1      -2.203  -3.797  -2.461  0.00  0.00    +0.011 C 
ATOM     20  C   UNL     1      -2.846  -1.537  -3.132  0.00  0.00    +0.011 C 
ENDROOT
BRANCH  12  21
ATOM     21  O   UNL     1      -3.860  -0.956   5.637  0.00  0.00    -0.391 OA
ATOM     22  H   UNL     1      -4.097  -0.044   5.855  0.00  0.00    +0.210 HD
ENDBRANCH  12  21
BRANCH   1  23
ATOM     23  O   UNL     1      -0.675  -0.540   0.487  0.00  0.00    -0.461 OA
BRANCH  23  25
ATOM     24  C   UNL     1       0.373   1.614   1.088  0.00  0.00    +0.136 C 
ATOM     25  C   UNL     1       0.365   0.108   1.037  0.00  0.00    +0.304 C 
ATOM     26  O   UNL     1       1.294  -0.517   1.491  0.00  0.00    -0.251 OA
ENDBRANCH  23  25
ENDBRANCH   1  23
BRANCH  16  27
ATOM     27  O   UNL     1      -4.558  -0.558  -1.357  0.00  0.00    -0.454 OA
BRANCH  27  28
ATOM     28  C   UNL     1      -4.836   0.667  -1.845  0.00  0.00    +0.340 C 
ATOM     29  O   UNL     1      -4.089   1.597  -1.614  0.00  0.00    -0.245 OA
BRANCH  28  30
ATOM     30  C   UNL     1      -6.049   0.878  -2.661  0.00  0.00    +0.059 A 
ATOM     31  C   UNL     1      -6.912  -0.187  -2.924  0.00  0.00    +0.015 A 
ATOM     32  C   UNL     1      -8.043   0.018  -3.687  0.00  0.00    +0.001 A 
ATOM     33  C   UNL     1      -8.322   1.275  -4.192  0.00  0.00    +0.000 A 
ATOM     34  C   UNL     1      -7.471   2.336  -3.936  0.00  0.00    +0.001 A 
ATOM     35  C   UNL     1      -6.340   2.146  -3.169  0.00  0.00    +0.015 A 
ENDBRANCH  28  30
ENDBRANCH  27  28
ENDBRANCH  16  27
BRANCH  15  36
ATOM     36  O   UNL     1      -5.154  -0.428   1.005  0.00  0.00    -0.457 OA
BRANCH  36  37
ATOM     37  C   UNL     1      -5.879   0.595   1.485  0.00  0.00    +0.304 C 
ATOM     38  O   UNL     1      -5.353   1.664   1.690  0.00  0.00    -0.251 OA
ATOM     39  C   UNL     1      -7.347   0.411   1.767  0.00  0.00    +0.136 C 
ENDBRANCH  36  37
ENDBRANCH  15  36
TORSDOF 8
