REMARK  Name = ZINC18196400
REMARK  3 active torsions:
REMARK  status: ('A' for Active; 'I' for Inactive)
REMARK    1  A    between atoms: C_3  and  C_6
REMARK    2  A    between atoms: C_11  and  C_21
REMARK    3  A    between atoms: C_18  and  O_19
REMARK                            x       y       z     vdW  Elec       q    Type
REMARK                         _______ _______ _______ _____ _____    ______ ____
ROOT
ATOM      1  C   UNL     1       5.353   3.031   1.604  0.00  0.00    +0.039 C 
ATOM      2  C   UNL     1       4.734   2.060   0.597  0.00  0.00    +0.060 C 
ATOM      3  C   UNL     1       3.314   2.480   0.291  0.00  0.00    +0.017 C 
ATOM      4  C   UNL     1       2.956   3.781   0.320  0.00  0.00    +0.027 C 
ATOM      5  C   UNL     1       1.551   4.245  -0.001  0.00  0.00    +0.128 C 
ATOM      6  C   UNL     1       0.617   3.069   0.009  0.00  0.00    +0.070 A 
ATOM      7  C   UNL     1       1.065   1.774   0.001  0.00  0.00    +0.126 A 
ATOM      8  N   UNL     1      -0.011   0.966   0.007  0.00  0.00    -0.260 N 
ATOM      9  H   UNL     1       0.003  -0.034   0.006  0.00  0.00    +0.190 HD
ATOM     10  N   UNL     1      -1.157   1.778   0.017  0.00  0.00    -0.134 NA
ATOM     11  C   UNL     1      -0.774   3.037   0.024  0.00  0.00    +0.237 A 
ATOM     12  N   UNL     1       2.423   1.479  -0.007  0.00  0.00    -0.303 N 
ATOM     13  C   UNL     1       3.889   4.779   0.655  0.00  0.00    +0.162 C 
ATOM     14  O   UNL     1       3.537   5.942   0.665  0.00  0.00    -0.292 OA
ATOM     15  C   UNL     1       5.312   4.440   1.002  0.00  0.00    +0.088 C 
ATOM     16  H   UNL     1       2.735   0.585  -0.219  0.00  0.00    +0.153 HD
ENDROOT
BRANCH   5  17
ATOM     17  C   UNL     1       1.534   4.887  -1.364  0.00  0.00    +0.119 A 
ATOM     18  N   UNL     1       1.404   4.236  -2.540  0.00  0.00    -0.348 N 
ATOM     19  H   UNL     1       1.305   3.249  -2.663  0.00  0.00    +0.167 HD
ATOM     20  C   UNL     1       1.433   5.180  -3.531  0.00  0.00    +0.104 A 
ATOM     21  C   UNL     1       1.589   6.374  -2.927  0.00  0.00    +0.130 A 
ATOM     22  N   UNL     1       1.647   6.165  -1.604  0.00  0.00    -0.240 NA
ENDBRANCH   5  17
BRANCH   1  25
ATOM     23  C   UNL     1       8.708   1.974   3.067  0.00  0.00    +0.008 A 
ATOM     24  C   UNL     1       7.367   2.310   3.055  0.00  0.00    +0.011 A 
ATOM     25  C   UNL     1       6.782   2.637   1.877  0.00  0.00    -0.006 A 
ATOM     26  S   UNL     1       8.145   2.487   0.733  0.00  0.00    -0.101 S 
ATOM     27  C   UNL     1       9.400   1.992   1.902  0.00  0.00    +0.045 A 
ENDBRANCH   1  25
BRANCH  11  28
ATOM     28  O   UNL     1      -1.597   4.120   0.036  0.00  0.00    -0.491 OA
ATOM     29  H   UNL     1      -2.549   3.815   0.045  0.00  0.00    +0.294 HD
ENDBRANCH  11  28
TORSDOF 3
