REMARK  Name = ZINC24280498
REMARK  7 active torsions:
REMARK  status: ('A' for Active; 'I' for Inactive)
REMARK    1  A    between atoms: C_3  and  C_6
REMARK    2  A    between atoms: C_9  and  C_26
REMARK    3  A    between atoms: C_12  and  C_14
REMARK    4  A    between atoms: C_14  and  O_15
REMARK    5  A    between atoms: O_15  and  C_16
REMARK    6  A    between atoms: C_16  and  C_18
REMARK    7  A    between atoms: C_23  and  O_24
REMARK                            x       y       z     vdW  Elec       q    Type
REMARK                         _______ _______ _______ _____ _____    ______ ____
ROOT
ATOM      1  C   UNL     1       2.499   1.455  -0.015  0.00  0.00    +0.173 C 
ATOM      2  C   UNL     1       3.076   1.546  -1.441  0.00  0.00    +0.090 C 
ATOM      3  C   UNL     1       4.201   2.549  -1.316  0.00  0.00    +0.075 C 
ATOM      4  N   UNL     1       4.277   2.961  -0.095  0.00  0.00    -0.180 NA
ATOM      5  N   UNL     1       3.332   2.391   0.757  0.00  0.00    -0.179 N 
ATOM      6  C   UNL     1       3.203   2.654   2.072  0.00  0.00    +0.273 C 
ATOM      7  O   UNL     1       2.341   2.098   2.720  0.00  0.00    -0.270 OA
ENDROOT
BRANCH   1  10
ATOM      8  C   UNL     1      -1.159   1.903   0.017  0.00  0.00    +0.041 A 
ATOM      9  C   UNL     1      -0.013   1.076   0.008  0.00  0.00    +0.046 A 
ATOM     10  C   UNL     1       1.057   1.892   0.002  0.00  0.00    +0.128 A 
ATOM     11  O   UNL     1       0.621   3.162   0.013  0.00  0.00    -0.466 OA
ATOM     12  C   UNL     1      -0.722   3.175   0.026  0.00  0.00    +0.195 A 
ENDBRANCH   1  10
BRANCH   3  13
ATOM     13  C   UNL     1       5.072   2.985  -2.412  0.00  0.00    +0.035 A 
ATOM     14  C   UNL     1       6.118   3.891  -2.388  0.00  0.00    +0.017 A 
ATOM     15  C   UNL     1       6.795   4.139  -3.559  0.00  0.00    +0.008 A 
ATOM     16  C   UNL     1       6.420   3.493  -4.694  0.00  0.00    +0.046 A 
ATOM     17  S   UNL     1       5.065   2.480  -4.125  0.00  0.00    -0.095 S 
ENDBRANCH   3  13
BRANCH   6  18
ATOM     18  C   UNL     1       4.128   3.639   2.738  0.00  0.00    +0.330 C 
BRANCH  18  19
ATOM     19  O   UNL     1       3.788   3.748   4.146  0.00  0.00    -0.452 OA
BRANCH  19  20
ATOM     20  C   UNL     1       4.527   4.594   4.890  0.00  0.00    +0.343 C 
ATOM     21  O   UNL     1       5.430   5.225   4.377  0.00  0.00    -0.245 OA
BRANCH  20  22
ATOM     22  C   UNL     1       4.239   4.756   6.326  0.00  0.00    +0.101 A 
ATOM     23  C   UNL     1       3.201   4.033   6.921  0.00  0.00    +0.034 A 
ATOM     24  C   UNL     1       2.937   4.188   8.265  0.00  0.00    +0.019 A 
ATOM     25  C   UNL     1       3.697   5.058   9.030  0.00  0.00    +0.019 A 
ATOM     26  C   UNL     1       4.726   5.778   8.456  0.00  0.00    +0.047 A 
ATOM     27  C   UNL     1       5.008   5.631   7.106  0.00  0.00    +0.131 A 
ATOM     28 BR   UNL     1       1.532   3.209   9.068  0.00  0.00    -0.050 Br
BRANCH  27  29
ATOM     29  O   UNL     1       6.022   6.334   6.541  0.00  0.00    -0.506 OA
ATOM     30  H   UNL     1       6.624   7.020   7.155  0.00  0.00    +0.292 HD
ENDBRANCH  27  29
ENDBRANCH  20  22
ENDBRANCH  19  20
ENDBRANCH  18  19
ENDBRANCH   6  18
TORSDOF 7
