REMARK  Name = ZINC22434786
REMARK  8 active torsions:
REMARK  status: ('A' for Active; 'I' for Inactive)
REMARK    1  A    between atoms: C_1  and  C_2
REMARK    2  A    between atoms: C_5  and  N_9
REMARK    3  A    between atoms: C_6  and  C_8
REMARK    4  A    between atoms: N_9  and  C_10
REMARK    5  A    between atoms: C_10  and  C_16
REMARK    6  A    between atoms: N_20  and  C_21
REMARK    7  A    between atoms: C_24  and  O_27
REMARK    8  A    between atoms: O_27  and  C_28
REMARK                            x       y       z     vdW  Elec       q    Type
REMARK                         _______ _______ _______ _____ _____    ______ ____
ROOT
ATOM      1  C   UNL     1      -2.415   0.983   1.277  0.00  0.00    +0.094 C 
ATOM      2  C   UNL     1      -2.167   2.274   2.061  0.00  0.00    +0.034 C 
ATOM      3  C   UNL     1      -3.503   2.846   2.537  0.00  0.00    +0.003 C 
ATOM      4  C   UNL     1      -4.201   1.828   3.441  0.00  0.00    +0.000 C 
ATOM      5  C   UNL     1      -4.449   0.537   2.657  0.00  0.00    +0.003 C 
ATOM      6  C   UNL     1      -3.113  -0.035   2.181  0.00  0.00    +0.034 C 
ENDROOT
BRANCH   1   7
ATOM      7  C   UNL     1      -1.099   0.419   0.808  0.00  0.00    +0.180 A 
ATOM      8  N   UNL     1       0.037   0.462   1.454  0.00  0.00    -0.111 NA
ATOM      9  N   UNL     1       0.967  -0.104   0.773  0.00  0.00    -0.023 NA
ATOM     10  N   UNL     1       0.495  -0.549  -0.341  0.00  0.00    -0.039 NA
ATOM     11  N   UNL     1      -0.874  -0.226  -0.356  0.00  0.00    -0.195 N 
BRANCH  11  12
ATOM     12  C   UNL     1      -1.805  -0.508  -1.368  0.00  0.00    +0.069 A 
ATOM     13  C   UNL     1      -3.050  -1.026  -1.040  0.00  0.00    +0.031 A 
ATOM     14  C   UNL     1      -3.969  -1.298  -2.035  0.00  0.00    +0.048 A 
ATOM     15  C   UNL     1      -3.642  -1.065  -3.363  0.00  0.00    +0.120 A 
ATOM     16  C   UNL     1      -2.395  -0.553  -3.692  0.00  0.00    +0.048 A 
ATOM     17  C   UNL     1      -1.479  -0.275  -2.697  0.00  0.00    +0.031 A 
BRANCH  15  18
ATOM     18  O   UNL     1      -4.544  -1.339  -4.342  0.00  0.00    -0.495 OA
ATOM     19  C   UNL     1      -5.847  -1.754  -3.927  0.00  0.00    +0.277 C 
ENDBRANCH  15  18
ENDBRANCH  11  12
ENDBRANCH   1   7
BRANCH   1  20
ATOM     20  N   UNL     1      -3.264   1.271   0.119  0.00  0.00    -0.331 N 
ATOM     21  H   UNL     1      -4.243   0.779   0.018  0.00  0.00    +0.147 HD
BRANCH  20  26
ATOM     22  C   UNL     1      -1.504   4.918  -3.851  0.00  0.00    +0.044 C 
ATOM     23  C   UNL     1      -1.972   3.949  -2.796  0.00  0.00    -0.050 A 
ATOM     24  C   UNL     1      -1.116   3.573  -1.777  0.00  0.00    +0.005 A 
ATOM     25  C   UNL     1      -1.542   2.685  -0.809  0.00  0.00    +0.023 A 
ATOM     26  C   UNL     1      -2.831   2.170  -0.859  0.00  0.00    +0.031 A 
ATOM     27  C   UNL     1      -3.686   2.546  -1.886  0.00  0.00    -0.029 A 
ATOM     28  C   UNL     1      -3.256   3.439  -2.849  0.00  0.00    +0.008 A 
ATOM     29  C   UNL     1      -5.084   1.986  -1.948  0.00  0.00    +0.045 C 
ENDBRANCH  20  26
ENDBRANCH   1  20
TORSDOF 5
