REMARK  Name = ZINC08868388
REMARK  8 active torsions:
REMARK  status: ('A' for Active; 'I' for Inactive)
REMARK    1  A    between atoms: C_1  and  O_2
REMARK    2  A    between atoms: O_2  and  C_3
REMARK    3  A    between atoms: C_6  and  N_11
REMARK    4  A    between atoms: C_8  and  O_9
REMARK    5  A    between atoms: O_9  and  C_10
REMARK    6  A    between atoms: C_13  and  C_18
REMARK    7  A    between atoms: C_18  and  N_19
REMARK    8  A    between atoms: N_22  and  C_23
REMARK                            x       y       z     vdW  Elec       q    Type
REMARK                         _______ _______ _______ _____ _____    ______ ____
ROOT
ATOM      1  N   UNL     1       2.179   9.445   1.533  0.00  0.00    -0.234 N 
ATOM      2  C   UNL     1       2.156  10.890   1.804  0.00  0.00    +0.163 C 
ATOM      3  C   UNL     1       0.691  11.168   2.190  0.00  0.00    +0.213 C 
ATOM      4  O   UNL     1       0.050   9.863   2.106  0.00  0.00    -0.444 OA
ATOM      5  C   UNL     1       0.951   8.947   1.731  0.00  0.00    +0.408 C 
ATOM      6  O   UNL     1       0.680   7.772   1.584  0.00  0.00    -0.226 OA
ENDROOT
BRANCH   1  10
ATOM      7  C   UNL     1       5.531   7.254   0.358  0.00  0.00    +0.162 A 
ATOM      8  C   UNL     1       5.636   8.617   0.578  0.00  0.00    +0.051 A 
ATOM      9  C   UNL     1       4.526   9.343   0.967  0.00  0.00    +0.027 A 
ATOM     10  C   UNL     1       3.304   8.707   1.138  0.00  0.00    +0.043 A 
ATOM     11  C   UNL     1       3.195   7.341   0.918  0.00  0.00    +0.073 A 
ATOM     12  C   UNL     1       4.306   6.614   0.524  0.00  0.00    +0.163 A 
BRANCH   7  14
ATOM     13  C   UNL     1       7.848   7.262  -0.181  0.00  0.00    +0.277 C 
ATOM     14  O   UNL     1       6.625   6.540  -0.025  0.00  0.00    -0.491 OA
ENDBRANCH   7  14
BRANCH  12  15
ATOM     15  O   UNL     1       4.201   5.277   0.302  0.00  0.00    -0.491 OA
ATOM     16  C   UNL     1       2.913   4.687   0.491  0.00  0.00    +0.277 C 
ENDBRANCH  12  15
ENDBRANCH   1  10
BRANCH   3  17
ATOM     17  C   UNL     1       0.045  12.147   1.207  0.00  0.00    +0.152 C 
BRANCH  17  18
ATOM     18  N   UNL     1      -1.336  12.412   1.618  0.00  0.00    -0.296 N 
ATOM     19  C   UNL     1      -2.104  13.252   0.896  0.00  0.00    +0.304 C 
ATOM     20  O   UNL     1      -1.651  13.789  -0.097  0.00  0.00    -0.253 OA
ATOM     21  N   UNL     1      -3.374  13.496   1.274  0.00  0.00    -0.265 N 
ATOM     22  H   UNL     1      -1.697  11.984   2.410  0.00  0.00    +0.150 HD
ATOM     23  H   UNL     1      -3.759  13.013   2.021  0.00  0.00    +0.157 HD
BRANCH  21  24
ATOM     24  C   UNL     1      -4.140  14.448   0.586  0.00  0.00    +0.106 A 
ATOM     25  C   UNL     1      -4.119  15.779   0.985  0.00  0.00    +0.147 A 
ATOM     26  C   UNL     1      -4.871  16.717   0.301  0.00  0.00    +0.040 A 
ATOM     27  C   UNL     1      -5.652  16.330  -0.773  0.00  0.00    +0.006 A 
ATOM     28  C   UNL     1      -5.679  15.006  -1.170  0.00  0.00    +0.040 A 
ATOM     29  C   UNL     1      -4.926  14.063  -0.494  0.00  0.00    +0.147 A 
ATOM     30  F   UNL     1      -4.953  12.770  -0.882  0.00  0.00    -0.203 F 
ATOM     31  F   UNL     1      -3.361  16.158   2.038  0.00  0.00    -0.203 F 
ENDBRANCH  21  24
ENDBRANCH  17  18
ENDBRANCH   3  17
TORSDOF 6
