REMARK  Name = ZINC06301793
REMARK  6 active torsions:
REMARK  status: ('A' for Active; 'I' for Inactive)
REMARK    1  A    between atoms: C_1  and  C_2
REMARK    2  A    between atoms: C_4  and  C_36
REMARK    3  A    between atoms: C_7  and  C_14
REMARK    4  A    between atoms: C_14  and  C_16
REMARK    5  A    between atoms: C_14  and  N_73
REMARK    6  A    between atoms: N_20  and  C_21
REMARK                            x       y       z     vdW  Elec       q    Type
REMARK                         _______ _______ _______ _____ _____    ______ ____
ROOT
ATOM      1  C   UNL     1      -3.729   6.022   0.070  0.00  0.00    +0.039 C 
ENDROOT
BRANCH   1   8
ATOM      2  C   UNL     1       2.709   1.329  -0.312  0.00  0.00    +0.044 C 
ATOM      3  C   UNL     1       1.369   2.018  -0.259  0.00  0.00    -0.048 A 
ATOM      4  C   UNL     1       0.206   1.264  -0.335  0.00  0.00    +0.007 A 
ATOM      5  C   UNL     1      -1.018   1.870  -0.294  0.00  0.00    -0.041 A 
ATOM      6  C   UNL     1      -1.100   3.260  -0.163  0.00  0.00    +0.002 A 
ATOM      7  C   UNL     1      -2.395   3.941  -0.110  0.00  0.00    +0.018 A 
ATOM      8  C   UNL     1      -2.413   5.291   0.012  0.00  0.00    +0.011 A 
ATOM      9  C   UNL     1      -1.203   6.014   0.086  0.00  0.00    +0.251 A 
ATOM     10  O   UNL     1      -1.242   7.227   0.195  0.00  0.00    -0.268 OA
ATOM     11  N   UNL     1      -0.009   5.398   0.037  0.00  0.00    -0.322 N 
ATOM     12  H   UNL     1       0.803   5.925   0.091  0.00  0.00    +0.169 HD
ATOM     13  C   UNL     1       0.077   4.027  -0.086  0.00  0.00    +0.050 A 
ATOM     14  C   UNL     1       1.313   3.389  -0.135  0.00  0.00    +0.029 A 
ATOM     15  C   UNL     1      -2.275   1.043  -0.383  0.00  0.00    +0.044 C 
ENDBRANCH   1   8
BRANCH   1  26
ATOM     16  C   UNL     1      -4.959   7.724   1.276  0.00  0.00    -0.077 C 
ATOM     17  C   UNL     1      -4.895   8.684   2.466  0.00  0.00    -0.018 C 
ATOM     18  C   UNL     1      -4.826   7.875   3.764  0.00  0.00    +0.003 C 
ATOM     19  C   UNL     1      -3.606   6.952   3.717  0.00  0.00    -0.044 C 
ATOM     20  C   UNL     1      -3.707   6.042   2.491  0.00  0.00    -0.071 C 
ATOM     21  C   UNL     1      -2.333   7.795   3.624  0.00  0.00    +0.005 C 
ATOM     22  C   UNL     1      -1.113   6.873   3.579  0.00  0.00    +0.000 C 
ATOM     23  C   UNL     1      -1.069   6.022   4.849  0.00  0.00    +0.000 C 
ATOM     24  C   UNL     1      -2.342   5.178   4.941  0.00  0.00    +0.000 C 
ATOM     25  C   UNL     1      -3.563   6.099   4.986  0.00  0.00    +0.005 C 
ATOM     26  N   UNL     1      -3.745   6.880   1.274  0.00  0.00    +0.390 N 
ATOM     27  H   UNL     1      -2.918   7.487   1.261  0.00  0.00    -0.080 HD
ENDBRANCH   1  26
BRANCH   1  28
ATOM     28  C   UNL     1      -3.876   6.891  -1.153  0.00  0.00    +0.143 A 
ATOM     29  N   UNL     1      -3.265   8.027  -1.383  0.00  0.00    -0.115 NA
ATOM     30  N   UNL     1      -3.652   8.460  -2.534  0.00  0.00    -0.023 NA
ATOM     31  N   UNL     1      -4.499   7.633  -3.039  0.00  0.00    -0.044 NA
ATOM     32  N   UNL     1      -4.664   6.652  -2.218  0.00  0.00    -0.227 N 
BRANCH  32  33
ATOM     33  C   UNL     1      -5.543   5.496  -2.408  0.00  0.00    +0.111 C 
ATOM     34  C   UNL     1      -5.161   4.750  -3.703  0.00  0.00    +0.027 C 
ATOM     35  C   UNL     1      -6.519   4.288  -4.290  0.00  0.00    +0.002 C 
ATOM     36  C   UNL     1      -7.451   5.485  -3.977  0.00  0.00    +0.002 C 
ATOM     37  C   UNL     1      -6.998   5.963  -2.582  0.00  0.00    +0.027 C 
ENDBRANCH  32  33
ENDBRANCH   1  28
TORSDOF 4
