REMARK  Name = ZINC41023336
REMARK  11 active torsions:
REMARK  status: ('A' for Active; 'I' for Inactive)
REMARK    1  A    between atoms: C_1  and  C_2
REMARK    2  A    between atoms: C_2  and  O_3
REMARK    3  A    between atoms: O_3  and  C_4
REMARK    4  A    between atoms: C_9  and  N_10
REMARK    5  A    between atoms: C_11  and  C_13
REMARK    6  A    between atoms: C_14  and  C_32
REMARK    7  A    between atoms: C_18  and  S_29
REMARK    8  A    between atoms: C_21  and  C_23
REMARK    9  A    between atoms: C_24  and  C_28
REMARK   10  A    between atoms: S_29  and  C_30
REMARK   11  A    between atoms: C_30  and  C_31
REMARK                            x       y       z     vdW  Elec       q    Type
REMARK                         _______ _______ _______ _____ _____    ______ ____
ROOT
ATOM      1  C   UNL     1       3.304  -1.326   5.507  0.00  0.00    +0.061 C 
ATOM      2  C   UNL     1       3.964  -1.961   6.486  0.00  0.00    +0.018 C 
ATOM      3  N   UNL     1       4.585  -1.286   7.508  0.00  0.00    -0.287 N 
ATOM      4  C   UNL     1       4.741   0.086   7.365  0.00  0.00    +0.219 A 
ATOM      5  N   UNL     1       5.468   0.925   8.052  0.00  0.00    -0.187 NA
ATOM      6  C   UNL     1       5.315   2.162   7.554  0.00  0.00    +0.210 A 
ATOM      7  N   UNL     1       4.479   2.115   6.539  0.00  0.00    -0.141 NA
ATOM      8  N   UNL     1       4.092   0.783   6.400  0.00  0.00    -0.219 N 
ATOM      9  C   UNL     1       3.179   0.173   5.438  0.00  0.00    +0.184 C 
ATOM     10  C   UNL     1       4.024  -3.467   6.466  0.00  0.00    +0.061 C 
ATOM     11  H   UNL     1       4.903  -1.749   8.299  0.00  0.00    +0.155 HD
ENDROOT
BRANCH   9  12
ATOM     12  C   UNL     1       1.765   0.575   5.769  0.00  0.00    +0.022 A 
ATOM     13  C   UNL     1       0.867   1.244   5.006  0.00  0.00    -0.038 A 
ATOM     14  C   UNL     1      -0.388   1.506   5.522  0.00  0.00    +0.011 A 
ATOM     15  C   UNL     1      -0.684   1.085   6.776  0.00  0.00    +0.046 A 
ATOM     16  S   UNL     1       0.836   0.285   7.266  0.00  0.00    -0.099 S 
ATOM     17  C   UNL     1       1.232   1.698   3.616  0.00  0.00    +0.044 C 
ENDBRANCH   9  12
BRANCH   1  19
ATOM     18  N   UNL     1       1.472  -2.618   4.670  0.00  0.00    -0.279 N 
ATOM     19  C   UNL     1       2.703  -2.100   4.487  0.00  0.00    +0.248 C 
ATOM     20  O   UNL     1       3.297  -2.299   3.442  0.00  0.00    -0.270 OA
ATOM     21  H   UNL     1       0.965  -2.393   5.466  0.00  0.00    +0.155 HD
BRANCH  18  27
ATOM     22  C   UNL     1      -0.458  -3.615   3.602  0.00  0.00    +0.142 A 
ATOM     23  C   UNL     1      -0.994  -4.465   2.649  0.00  0.00    +0.047 A 
ATOM     24  C   UNL     1      -0.158  -5.181   1.812  0.00  0.00    +0.004 A 
ATOM     25  C   UNL     1       1.215  -5.052   1.925  0.00  0.00    +0.002 A 
ATOM     26  C   UNL     1       1.757  -4.207   2.874  0.00  0.00    +0.027 A 
ATOM     27  C   UNL     1       0.925  -3.480   3.712  0.00  0.00    +0.076 A 
BRANCH  22  28
ATOM     28  O   UNL     1      -1.279  -2.910   4.426  0.00  0.00    -0.490 OA
BRANCH  28  30
ATOM     29  C   UNL     1      -3.441  -2.229   5.263  0.00  0.00    +0.048 C 
ATOM     30  C   UNL     1      -2.685  -3.098   4.256  0.00  0.00    +0.226 C 
ENDBRANCH  28  30
ENDBRANCH  22  28
ENDBRANCH  18  27
ENDBRANCH   1  19
BRANCH   6  31
ATOM     31  S   UNL     1       6.105   3.614   8.163  0.00  0.00    -0.085 S 
BRANCH  31  32
ATOM     32  C   UNL     1       7.112   3.018   9.549  0.00  0.00    +0.074 C 
ATOM     33  C   UNL     1       7.862   4.194  10.177  0.00  0.00    +0.016 C 
ENDBRANCH  31  32
ENDBRANCH   6  31
TORSDOF 7
