REMARK  Name = ZINC63373885
REMARK  7 active torsions:
REMARK  status: ('A' for Active; 'I' for Inactive)
REMARK    1  A    between atoms: C_1  and  C_2
REMARK    2  A    between atoms: C_2  and  C_3
REMARK    3  A    between atoms: C_6  and  C_9
REMARK    4  A    between atoms: N_16  and  C_31
REMARK    5  A    between atoms: C_19  and  C_30
REMARK    6  A    between atoms: C_31  and  C_32
REMARK    7  A    between atoms: C_32  and  C_33
REMARK                            x       y       z     vdW  Elec       q    Type
REMARK                         _______ _______ _______ _____ _____    ______ ____
ROOT
ATOM      1  C   UNL     1       2.797  -1.919   4.683  0.00  0.00    +0.065 C 
ATOM      2  C   UNL     1       2.593  -0.943   5.855  0.00  0.00    +0.121 C 
ATOM      3  N   UNL     1       3.013  -1.594   7.111  0.00  0.00    -0.283 N 
ATOM      4  C   UNL     1       3.984  -1.016   7.827  0.00  0.00    +0.234 C 
ATOM      5  O   UNL     1       4.479  -0.001   7.383  0.00  0.00    -0.274 OA
ATOM      6  C   UNL     1       4.502  -1.526   9.130  0.00  0.00    +0.203 C 
ATOM      7  N   UNL     1       3.822  -2.738   9.554  0.00  0.00    -0.291 N 
ATOM      8  C   UNL     1       2.863  -3.330   8.846  0.00  0.00    +0.242 C 
ATOM      9  O   UNL     1       2.363  -4.338   9.300  0.00  0.00    -0.273 OA
ATOM     10  C   UNL     1       2.361  -2.837   7.529  0.00  0.00    +0.135 C 
ATOM     11  C   UNL     1       2.603  -3.893   6.446  0.00  0.00    +0.139 C 
ATOM     12  C   UNL     1       2.226  -3.245   5.118  0.00  0.00    -0.027 C 
ATOM     13  C   UNL     1       1.352  -4.060   4.541  0.00  0.00    -0.000 A 
ATOM     14  C   UNL     1       0.711  -4.030   3.216  0.00  0.00    +0.010 A 
ATOM     15  C   UNL     1      -0.171  -5.031   2.955  0.00  0.00    +0.001 A 
ATOM     16  C   UNL     1      -0.476  -6.046   3.867  0.00  0.00    +0.002 A 
ATOM     17  C   UNL     1       0.073  -6.157   5.103  0.00  0.00    +0.026 A 
ATOM     18  C   UNL     1       1.024  -5.168   5.489  0.00  0.00    +0.043 A 
ATOM     19  N   UNL     1       1.728  -5.056   6.602  0.00  0.00    -0.375 N 
ATOM     20  C   UNL     1       0.854  -2.595   7.633  0.00  0.00    +0.044 C 
ATOM     21  H   UNL     1       1.681  -5.630   7.382  0.00  0.00    +0.160 HD
ENDROOT
BRANCH   1  25
ATOM     22  C   UNL     1       0.731  -0.503   1.223  0.00  0.00    -0.048 A 
ATOM     23  C   UNL     1       2.097  -0.710   1.176  0.00  0.00    +0.004 A 
ATOM     24  C   UNL     1       2.766  -1.167   2.296  0.00  0.00    +0.004 A 
ATOM     25  C   UNL     1       2.068  -1.419   3.463  0.00  0.00    -0.039 A 
ATOM     26  C   UNL     1       0.702  -1.212   3.510  0.00  0.00    +0.004 A 
ATOM     27  C   UNL     1       0.034  -0.750   2.391  0.00  0.00    +0.004 A 
BRANCH  22  29
ATOM     28  C   UNL     1      -0.019   1.526   0.010  0.00  0.00    +0.009 C 
ATOM     29  C   UNL     1       0.002  -0.004   0.002  0.00  0.00    +0.032 C 
ENDBRANCH  22  29
ENDBRANCH   1  25
BRANCH   7  30
ATOM     30  C   UNL     1       4.213  -3.341  10.831  0.00  0.00    +0.113 C 
BRANCH  30  31
ATOM     31  C   UNL     1       3.356  -2.755  11.955  0.00  0.00    +0.054 C 
BRANCH  31  32
ATOM     32  C   UNL     1       3.758  -3.376  13.268  0.00  0.00    -0.046 A 
ATOM     33  C   UNL     1       3.139  -4.532  13.705  0.00  0.00    +0.006 A 
ATOM     34  C   UNL     1       3.507  -5.102  14.909  0.00  0.00    +0.038 A 
ATOM     35  C   UNL     1       4.497  -4.514  15.678  0.00  0.00    +0.123 A 
ATOM     36  C   UNL     1       5.117  -3.356  15.240  0.00  0.00    +0.038 A 
ATOM     37  C   UNL     1       4.750  -2.791  14.033  0.00  0.00    +0.006 A 
ATOM     38  F   UNL     1       4.857  -5.070  16.855  0.00  0.00    -0.205 F 
ENDBRANCH  31  32
ENDBRANCH  30  31
ENDBRANCH   7  30
TORSDOF 5
