REMARK  Name = ZINC02313661
REMARK  10 active torsions:
REMARK  status: ('A' for Active; 'I' for Inactive)
REMARK    1  A    between atoms: C_1  and  C_2
REMARK    2  A    between atoms: C_2  and  C_3
REMARK    3  A    between atoms: C_2  and  C_4
REMARK    4  A    between atoms: N_14  and  C_26
REMARK    5  A    between atoms: C_17  and  S_20
REMARK    6  A    between atoms: S_20  and  C_21
REMARK    7  A    between atoms: C_21  and  C_23
REMARK    8  A    between atoms: C_21  and  C_24
REMARK    9  A    between atoms: C_29  and  O_32
REMARK   10  A    between atoms: O_32  and  C_33
REMARK                            x       y       z     vdW  Elec       q    Type
REMARK                         _______ _______ _______ _____ _____    ______ ____
ROOT
ATOM      1  C   UNL     1       5.178   3.182  -2.375  0.00  0.00    +0.126 C 
ATOM      2  C   UNL     1       3.858   3.192  -1.598  0.00  0.00    +0.068 C 
ATOM      3  C   UNL     1       3.653   1.805  -1.000  0.00  0.00    -0.018 A 
ATOM      4  C   UNL     1       4.697   0.954  -0.902  0.00  0.00    +0.021 A 
ATOM      5  S   UNL     1       4.020  -0.506  -0.169  0.00  0.00    -0.072 S 
ATOM      6  C   UNL     1       2.383   0.012   0.003  0.00  0.00    +0.102 A 
ATOM      7  C   UNL     1       2.370   1.306  -0.508  0.00  0.00    +0.075 A 
ATOM      8  C   UNL     1       1.065   2.005  -0.487  0.00  0.00    +0.268 A 
ATOM      9  O   UNL     1       0.972   3.140  -0.918  0.00  0.00    -0.266 OA
ATOM     10  N   UNL     1      -0.017   1.382   0.010  0.00  0.00    -0.245 N 
ATOM     11  C   UNL     1       0.057   0.091   0.508  0.00  0.00    +0.245 A 
ATOM     12  N   UNL     1       1.249  -0.587   0.503  0.00  0.00    -0.249 N 
ATOM     13  C   UNL     1       1.028  -1.825   1.048  0.00  0.00    +0.199 A 
ATOM     14  N   UNL     1      -0.238  -1.906   1.373  0.00  0.00    -0.120 NA
ATOM     15  N   UNL     1      -0.853  -0.695   1.032  0.00  0.00    -0.109 NA
ATOM     16  C   UNL     1       6.104   1.229  -1.332  0.00  0.00    +0.203 C 
ATOM     17  O   UNL     1       6.225   2.642  -1.562  0.00  0.00    -0.371 OA
ENDROOT
BRANCH  10  18
ATOM     18  C   UNL     1      -1.249   2.050   0.019  0.00  0.00    +0.053 A 
ATOM     19  C   UNL     1      -2.104   1.945  -1.070  0.00  0.00    +0.030 A 
ATOM     20  C   UNL     1      -3.320   2.600  -1.058  0.00  0.00    +0.047 A 
ATOM     21  C   UNL     1      -3.682   3.372   0.037  0.00  0.00    +0.120 A 
ATOM     22  C   UNL     1      -2.825   3.481   1.123  0.00  0.00    +0.047 A 
ATOM     23  C   UNL     1      -1.612   2.822   1.115  0.00  0.00    +0.030 A 
BRANCH  21  24
ATOM     24  O   UNL     1      -4.876   4.021   0.046  0.00  0.00    -0.495 OA
ATOM     25  C   UNL     1      -5.708   3.864  -1.105  0.00  0.00    +0.277 C 
ENDBRANCH  21  24
ENDBRANCH  10  18
BRANCH   1  27
ATOM     26  C   UNL     1       6.847   4.607  -3.570  0.00  0.00    +0.010 C 
ATOM     27  C   UNL     1       5.537   4.613  -2.779  0.00  0.00    +0.012 C 
ATOM     28  C   UNL     1       4.420   5.193  -3.648  0.00  0.00    +0.010 C 
ENDBRANCH   1  27
BRANCH  13  29
ATOM     29  S   UNL     1       2.237  -3.087   1.272  0.00  0.00    -0.071 S 
BRANCH  29  30
ATOM     30  C   UNL     1       1.313  -4.451   2.030  0.00  0.00    +0.164 C 
ATOM     31  C   UNL     1       0.818  -4.025   3.414  0.00  0.00    +0.031 C 
BRANCH  30  32
ATOM     32  C   UNL     1       2.211  -5.653   2.166  0.00  0.00    +0.369 C 
ATOM     33  O   UNL     1       3.409  -5.507   2.232  0.00  0.00    -0.245 OA
ATOM     34  O   UNL     1       1.681  -6.885   2.214  0.00  0.00    -0.245 OA
ENDBRANCH  30  32
ENDBRANCH  29  30
ENDBRANCH  13  29
TORSDOF 6
