REMARK  Name = ZINC38936452
REMARK  9 active torsions:
REMARK  status: ('A' for Active; 'I' for Inactive)
REMARK    1  A    between atoms: C_1  and  C_2
REMARK    2  A    between atoms: C_5  and  N_9
REMARK    3  A    between atoms: C_6  and  C_8
REMARK    4  A    between atoms: N_9  and  C_10
REMARK    5  A    between atoms: C_10  and  C_11
REMARK    6  A    between atoms: C_17  and  C_23
REMARK    7  A    between atoms: C_24  and  C_26
REMARK    8  A    between atoms: C_31  and  O_32
REMARK    9  A    between atoms: O_32  and  C_33
REMARK                            x       y       z     vdW  Elec       q    Type
REMARK                         _______ _______ _______ _____ _____    ______ ____
ROOT
ATOM      1  N   UNL     1       0.043  -4.180   0.083  0.00  0.00    -0.266 N 
ATOM      2  C   UNL     1      -1.079  -4.902  -0.109  0.00  0.00    +0.254 C 
ATOM      3  O   UNL     1      -1.002  -6.066  -0.451  0.00  0.00    -0.270 OA
ENDROOT
BRANCH   1   8
ATOM      4  C   UNL     1      -0.312   1.354   1.276  0.00  0.00    +0.044 C 
ATOM      5  C   UNL     1      -0.218  -0.116   0.959  0.00  0.00    -0.050 A 
ATOM      6  C   UNL     1      -0.052  -1.033   1.981  0.00  0.00    +0.005 A 
ATOM      7  C   UNL     1       0.035  -2.381   1.694  0.00  0.00    +0.024 A 
ATOM      8  C   UNL     1      -0.045  -2.816   0.377  0.00  0.00    +0.040 A 
ATOM      9  C   UNL     1      -0.211  -1.893  -0.647  0.00  0.00    -0.029 A 
ATOM     10  C   UNL     1      -0.303  -0.546  -0.353  0.00  0.00    +0.008 A 
ATOM     11  C   UNL     1      -0.298  -2.360  -2.077  0.00  0.00    +0.045 C 
ENDBRANCH   1   8
BRANCH   2  12
ATOM     12  C   UNL     1      -2.401  -4.279   0.097  0.00  0.00    +0.079 A 
ATOM     13  C   UNL     1      -2.682  -3.605   1.287  0.00  0.00    +0.017 A 
ATOM     14  C   UNL     1      -3.918  -3.025   1.473  0.00  0.00    +0.001 A 
ATOM     15  C   UNL     1      -4.885  -3.109   0.484  0.00  0.00    +0.004 A 
ATOM     16  C   UNL     1      -4.620  -3.772  -0.697  0.00  0.00    +0.046 A 
ATOM     17  C   UNL     1      -3.379  -4.356  -0.904  0.00  0.00    +0.132 A 
BRANCH  17  18
ATOM     18  O   UNL     1      -3.116  -5.003  -2.066  0.00  0.00    -0.494 OA
ATOM     19  C   UNL     1      -4.162  -5.041  -3.039  0.00  0.00    +0.277 C 
ENDBRANCH  17  18
ENDBRANCH   2  12
BRANCH   1  20
ATOM     20  C   UNL     1       1.355  -4.825  -0.017  0.00  0.00    +0.131 C 
BRANCH  20  21
ATOM     21  C   UNL     1       1.838  -5.217   1.381  0.00  0.00    +0.116 C 
ATOM     22  C   UNL     1       3.313  -5.552   1.286  0.00  0.00    -0.003 C 
ATOM     23  C   UNL     1       3.698  -6.799   1.683  0.00  0.00    -0.007 A 
ATOM     24  C   UNL     1       5.102  -7.205   1.624  0.00  0.00    +0.010 A 
ATOM     25  C   UNL     1       5.439  -8.457   2.029  0.00  0.00    +0.004 A 
ATOM     26  C   UNL     1       4.477  -9.353   2.495  0.00  0.00    -0.049 A 
ATOM     27  C   UNL     1       3.158  -9.037   2.573  0.00  0.00    +0.027 A 
ATOM     28  C   UNL     1       2.704  -7.765   2.180  0.00  0.00    +0.041 A 
ATOM     29  N   UNL     1       1.407  -7.466   2.262  0.00  0.00    -0.284 N 
ATOM     30  C   UNL     1       0.914  -6.293   1.907  0.00  0.00    +0.226 C 
ATOM     31  O   UNL     1      -0.280  -6.078   2.004  0.00  0.00    -0.275 OA
ATOM     32  C   UNL     1       4.919 -10.727   2.928  0.00  0.00    +0.044 C 
ATOM     33  H   UNL     1       0.797  -8.142   2.597  0.00  0.00    +0.155 HD
ENDBRANCH  20  21
ENDBRANCH   1  20
TORSDOF 5
