REMARK  Name = ZINC53097210
REMARK  9 active torsions:
REMARK  status: ('A' for Active; 'I' for Inactive)
REMARK    1  A    between atoms: C_6  and  O_7
REMARK    2  A    between atoms: O_7  and  C_8
REMARK    3  A    between atoms: C_8  and  C_9
REMARK    4  A    between atoms: C_9  and  C_11
REMARK    5  A    between atoms: C_9  and  O_21
REMARK    6  A    between atoms: C_11  and  N_12
REMARK    7  A    between atoms: N_12  and  C_13
REMARK    8  A    between atoms: C_13  and  C_19
REMARK    9  A    between atoms: C_19  and  O_20
REMARK                            x       y       z     vdW  Elec       q    Type
REMARK                         _______ _______ _______ _____ _____    ______ ____
ROOT
ATOM      1  C   UNL     1      -2.374  -4.254   0.129  0.00  0.00    -0.047 C 
ENDROOT
BRANCH   1   2
ATOM      2  N   UNL     1      -3.723  -4.835   0.139  0.00  0.00    +0.386 N 
ATOM      3  H   UNL     1      -4.240  -4.471   0.925  0.00  0.00    -0.085 HD
ATOM      4  H   UNL     1      -4.200  -4.594  -0.717  0.00  0.00    -0.085 HD
BRANCH   2   5
ATOM      5  C   UNL     1      -3.626  -6.296   0.251  0.00  0.00    -0.045 C 
ATOM      6  C   UNL     1      -2.842  -6.848  -0.942  0.00  0.00    -0.010 C 
ATOM      7  C   UNL     1      -3.565  -6.483  -2.240  0.00  0.00    -0.001 C 
ATOM      8  C   UNL     1      -4.970  -7.088  -2.229  0.00  0.00    -0.000 C 
ATOM      9  C   UNL     1      -5.754  -6.536  -1.037  0.00  0.00    -0.001 C 
ATOM     10  C   UNL     1      -5.031  -6.901   0.261  0.00  0.00    -0.010 C 
BRANCH   5  11
ATOM     11  C   UNL     1      -2.904  -6.661   1.549  0.00  0.00    +0.143 C 
BRANCH  11  12
ATOM     12  O   UNL     1      -2.809  -8.083   1.658  0.00  0.00    -0.396 OA
ATOM     13  H   UNL     1      -2.361  -8.387   2.459  0.00  0.00    +0.209 HD
ENDBRANCH  11  12
ENDBRANCH   5  11
ENDBRANCH   2   5
ENDBRANCH   1   2
BRANCH   1  14
ATOM     14  C   UNL     1      -2.475  -2.731   0.012  0.00  0.00    +0.135 C 
BRANCH  14  15
ATOM     15  O   UNL     1      -3.150  -2.390  -1.201  0.00  0.00    -0.390 OA
ATOM     16  H   UNL     1      -2.708  -2.709  -2.000  0.00  0.00    +0.210 HD
ENDBRANCH  14  15
BRANCH  14  17
ATOM     17  C   UNL     1      -1.070  -2.126   0.001  0.00  0.00    +0.258 C 
BRANCH  17  18
ATOM     18  O   UNL     1      -1.165  -0.701   0.010  0.00  0.00    -0.489 OA
BRANCH  18  24
ATOM     19  C   UNL     1      -0.017   1.383   0.010  0.00  0.00    +0.047 A 
ATOM     20  C   UNL     1       1.171   2.089   0.002  0.00  0.00    +0.019 A 
ATOM     21  C   UNL     1       2.378   1.414  -0.013  0.00  0.00    +0.018 A 
ATOM     22  C   UNL     1       2.399   0.030  -0.022  0.00  0.00    +0.019 A 
ATOM     23  C   UNL     1       1.214  -0.679  -0.014  0.00  0.00    +0.047 A 
ATOM     24  C   UNL     1       0.002  -0.004   0.002  0.00  0.00    +0.121 A 
ATOM     25 BR   UNL     1       4.002   2.383  -0.024  0.00  0.00    -0.050 Br
ENDBRANCH  18  24
ENDBRANCH  17  18
ENDBRANCH  14  17
ENDBRANCH   1  14
TORSDOF 9
