REMARK  Name = ZINC04794483
REMARK  6 active torsions:
REMARK  status: ('A' for Active; 'I' for Inactive)
REMARK    1  A    between atoms: C_1  and  C_2
REMARK    2  A    between atoms: C_2  and  O_4
REMARK    3  A    between atoms: O_4  and  C_5
REMARK    4  A    between atoms: C_8  and  C_11
REMARK    5  A    between atoms: C_25  and  C_27
REMARK    6  A    between atoms: C_25  and  C_28
REMARK                            x       y       z     vdW  Elec       q    Type
REMARK                         _______ _______ _______ _____ _____    ______ ____
ROOT
ATOM      1  C   UNL     1      -1.291  -6.320  -0.158  0.00  0.00    +0.086 C 
ATOM      2  C   UNL     1      -1.940  -6.757  -1.440  0.00  0.00    -0.011 A 
ATOM      3  C   UNL     1      -1.219  -6.735  -2.620  0.00  0.00    +0.055 A 
ATOM      4  C   UNL     1      -1.810  -7.135  -3.808  0.00  0.00    +0.162 A 
ATOM      5  C   UNL     1      -3.134  -7.560  -3.817  0.00  0.00    +0.164 A 
ATOM      6  C   UNL     1      -3.858  -7.582  -2.635  0.00  0.00    +0.073 A 
ATOM      7  C   UNL     1      -3.260  -7.184  -1.447  0.00  0.00    +0.039 A 
ATOM      8  N   UNL     1      -3.980  -7.217  -0.251  0.00  0.00    -0.317 N 
ATOM      9  C   UNL     1      -3.325  -7.247   0.946  0.00  0.00    +0.016 C 
ATOM     10  C   UNL     1      -2.045  -6.830   1.043  0.00  0.00    +0.024 C 
ATOM     11  C   UNL     1      -1.371  -6.856   2.276  0.00  0.00    +0.162 C 
ATOM     12  O   UNL     1      -0.216  -6.479   2.332  0.00  0.00    -0.292 OA
ATOM     13  C   UNL     1      -2.049  -7.342   3.527  0.00  0.00    +0.086 C 
ATOM     14  C   UNL     1      -3.554  -7.077   3.412  0.00  0.00    -0.023 C 
ATOM     15  C   UNL     1      -4.069  -7.767   2.152  0.00  0.00    +0.058 C 
ATOM     16  C   UNL     1      -3.805  -5.571   3.317  0.00  0.00    +0.011 C 
ATOM     17  C   UNL     1      -4.271  -7.643   4.639  0.00  0.00    +0.011 C 
ATOM     18  O   UNL     1      -3.730  -7.963  -4.972  0.00  0.00    -0.485 OA
ATOM     19  C   UNL     1      -3.089  -7.582  -6.194  0.00  0.00    +0.270 C 
ATOM     20  C   UNL     1      -1.588  -7.869  -6.059  0.00  0.00    +0.270 C 
ATOM     21  O   UNL     1      -1.083  -7.104  -4.959  0.00  0.00    -0.485 OA
ATOM     22  H   UNL     1      -4.950  -7.219  -0.271  0.00  0.00    +0.152 HD
ENDROOT
BRANCH   1  26
ATOM     23  C   UNL     1      -1.185  -2.049  -0.031  0.00  0.00    +0.132 A 
ATOM     24  C   UNL     1      -0.003  -2.775  -0.004  0.00  0.00    +0.046 A 
ATOM     25  C   UNL     1      -0.040  -4.155  -0.045  0.00  0.00    +0.008 A 
ATOM     26  C   UNL     1      -1.253  -4.814  -0.113  0.00  0.00    -0.035 A 
ATOM     27  C   UNL     1      -2.433  -4.093  -0.142  0.00  0.00    +0.008 A 
ATOM     28  C   UNL     1      -2.402  -2.713  -0.095  0.00  0.00    +0.046 A 
BRANCH  23  29
ATOM     29  O   UNL     1      -1.151  -0.691   0.009  0.00  0.00    -0.426 OA
BRANCH  29  31
ATOM     30  C   UNL     1      -0.883   1.471  -1.153  0.00  0.00    +0.136 C 
ATOM     31  C   UNL     1      -0.826  -0.035  -1.116  0.00  0.00    +0.309 C 
ATOM     32  O   UNL     1      -0.487  -0.651  -2.098  0.00  0.00    -0.251 OA
ENDBRANCH  29  31
ENDBRANCH  23  29
ENDBRANCH   1  26
TORSDOF 3
