REMARK  Name = ZINC20213118
REMARK  7 active torsions:
REMARK  status: ('A' for Active; 'I' for Inactive)
REMARK    1  A    between atoms: C_1  and  C_2
REMARK    2  A    between atoms: C_2  and  C_3
REMARK    3  A    between atoms: C_9  and  C_14
REMARK    4  A    between atoms: C_14  and  N_15
REMARK    5  A    between atoms: N_18  and  C_21
REMARK    6  A    between atoms: C_21  and  C_22
REMARK    7  A    between atoms: N_24  and  C_25
REMARK                            x       y       z     vdW  Elec       q    Type
REMARK                         _______ _______ _______ _____ _____    ______ ____
ROOT
ATOM      1  N   UNL     1       5.397   0.247  -1.083  0.00  0.00    +0.384 N 
ATOM      2  C   UNL     1       6.288   0.575  -2.203  0.00  0.00    -0.063 C 
ATOM      3  C   UNL     1       6.668   2.056  -2.137  0.00  0.00    +0.066 C 
ATOM      4  N   UNL     1       7.338   2.330  -0.858  0.00  0.00    -0.298 NA
ATOM      5  C   UNL     1       6.466   1.983   0.273  0.00  0.00    +0.066 C 
ATOM      6  C   UNL     1       6.089   0.503   0.187  0.00  0.00    -0.063 C 
ATOM      7  H   UNL     1       4.567   0.819  -1.135  0.00  0.00    -0.081 HD
ENDROOT
BRANCH   1   8
ATOM      8  C   UNL     1       5.019  -1.171  -1.157  0.00  0.00    -0.042 C 
BRANCH   8  15
ATOM      9  C   UNL     1       0.741  -0.518  -1.301  0.00  0.00    -0.047 A 
ATOM     10  C   UNL     1       0.025  -0.749  -2.467  0.00  0.00    +0.007 A 
ATOM     11  C   UNL     1       0.661  -1.191  -3.607  0.00  0.00    +0.047 A 
ATOM     12  C   UNL     1       2.033  -1.410  -3.592  0.00  0.00    +0.139 A 
ATOM     13  C   UNL     1       2.755  -1.175  -2.409  0.00  0.00    +0.019 A 
ATOM     14  C   UNL     1       2.092  -0.722  -1.265  0.00  0.00    +0.015 A 
ATOM     15  C   UNL     1       4.203  -1.409  -2.402  0.00  0.00    -0.047 A 
ATOM     16  C   UNL     1       4.787  -1.844  -3.546  0.00  0.00    +0.094 A 
ATOM     17  C   UNL     1       4.000  -2.059  -4.699  0.00  0.00    +0.337 A 
ATOM     18  O   UNL     1       4.537  -2.450  -5.719  0.00  0.00    -0.245 OA
ATOM     19  O   UNL     1       2.676  -1.843  -4.697  0.00  0.00    -0.422 OA
BRANCH   9  21
ATOM     20  C   UNL     1      -0.001   1.496  -0.059  0.00  0.00    +0.009 C 
ATOM     21  C   UNL     1       0.024  -0.034  -0.067  0.00  0.00    +0.032 C 
ENDBRANCH   9  21
ENDBRANCH   8  15
ENDBRANCH   1   8
BRANCH   4  22
ATOM     22  C   UNL     1       7.769   3.732  -0.780  0.00  0.00    +0.180 C 
BRANCH  22  23
ATOM     23  C   UNL     1       8.659   3.918   0.421  0.00  0.00    +0.231 C 
ATOM     24  O   UNL     1       8.910   2.975   1.142  0.00  0.00    -0.274 OA
ATOM     25  N   UNL     1       9.176   5.132   0.696  0.00  0.00    -0.282 N 
ATOM     26  H   UNL     1       9.029   5.871   0.085  0.00  0.00    +0.155 HD
BRANCH  25  27
ATOM     27  C   UNL     1       9.926   5.326   1.862  0.00  0.00    +0.072 A 
ATOM     28  C   UNL     1      10.736   4.308   2.346  0.00  0.00    +0.064 A 
ATOM     29  C   UNL     1      11.476   4.503   3.498  0.00  0.00    +0.125 A 
ATOM     30  C   UNL     1      11.410   5.713   4.169  0.00  0.00    +0.041 A 
ATOM     31  C   UNL     1      10.604   6.729   3.689  0.00  0.00    +0.043 A 
ATOM     32  C   UNL     1       9.866   6.542   2.535  0.00  0.00    +0.145 A 
ATOM     33  F   UNL     1       9.084   7.537   2.064  0.00  0.00    -0.204 F 
ATOM     34  F   UNL     1      12.264   3.512   3.970  0.00  0.00    -0.205 F 
ENDBRANCH  25  27
ENDBRANCH  22  23
ENDBRANCH   4  22
TORSDOF 6
