REMARK  Name = ZINC38789281
REMARK  5 active torsions:
REMARK  status: ('A' for Active; 'I' for Inactive)
REMARK    1  A    between atoms: C_4  and  O_7
REMARK    2  A    between atoms: O_7  and  C_8
REMARK    3  A    between atoms: C_11  and  N_14
REMARK    4  A    between atoms: N_14  and  C_15
REMARK    5  A    between atoms: C_15  and  C_16
REMARK                            x       y       z     vdW  Elec       q    Type
REMARK                         _______ _______ _______ _____ _____    ______ ____
ROOT
ATOM      1  C   UNL     1       5.182  -6.814   0.135  0.00  0.00    +0.118 C 
ENDROOT
BRANCH   1   2
ATOM      2  C   UNL     1       4.982  -8.331   0.153  0.00  0.00    +0.115 C 
ATOM      3  C   UNL     1       6.343  -8.981  -0.001  0.00  0.00    -0.003 C 
ATOM      4  C   UNL     1       6.746  -9.830   0.982  0.00  0.00    -0.003 A 
ATOM      5  C   UNL     1       8.045 -10.499   0.908  0.00  0.00    +0.059 A 
ATOM      6  C   UNL     1       8.420 -11.342   1.908  0.00  0.00    +0.163 A 
ATOM      7  C   UNL     1       7.579 -11.579   3.014  0.00  0.00    +0.164 A 
ATOM      8  C   UNL     1       6.343 -10.974   3.129  0.00  0.00    +0.073 A 
ATOM      9  C   UNL     1       5.879 -10.093   2.145  0.00  0.00    +0.044 A 
ATOM     10  N   UNL     1       4.680  -9.520   2.277  0.00  0.00    -0.284 N 
ATOM     11  C   UNL     1       4.183  -8.679   1.389  0.00  0.00    +0.226 C 
ATOM     12  O   UNL     1       3.084  -8.186   1.563  0.00  0.00    -0.275 OA
ATOM     13  O   UNL     1       7.977 -12.418   4.009  0.00  0.00    -0.485 OA
ATOM     14  C   UNL     1       9.049 -13.316   3.708  0.00  0.00    +0.270 C 
ATOM     15  C   UNL     1      10.165 -12.520   3.018  0.00  0.00    +0.270 C 
ATOM     16  O   UNL     1       9.633 -11.957   1.814  0.00  0.00    -0.485 OA
ATOM     17  H   UNL     1       4.151  -9.730   3.062  0.00  0.00    +0.155 HD
ENDBRANCH   1   2
BRANCH   1  18
ATOM     18  N   UNL     1       3.877  -6.151   0.070  0.00  0.00    -0.343 N 
ATOM     19  H   UNL     1       3.065  -6.680   0.046  0.00  0.00    +0.146 HD
BRANCH  18  23
ATOM     20  C   UNL     1       3.657  -1.989  -0.010  0.00  0.00    +0.129 A 
ATOM     21  C   UNL     1       2.495  -2.746  -0.046  0.00  0.00    +0.048 A 
ATOM     22  C   UNL     1       2.567  -4.125  -0.019  0.00  0.00    +0.026 A 
ATOM     23  C   UNL     1       3.804  -4.754   0.043  0.00  0.00    +0.027 A 
ATOM     24  C   UNL     1       4.967  -3.996   0.078  0.00  0.00    +0.026 A 
ATOM     25  C   UNL     1       4.893  -2.617   0.046  0.00  0.00    +0.048 A 
BRANCH  20  26
ATOM     26  O   UNL     1       3.586  -0.632  -0.036  0.00  0.00    -0.456 OA
BRANCH  26  30
ATOM     27  C   UNL     1       3.335   1.363   3.566  0.00  0.00    +0.000 A 
ATOM     28  C   UNL     1       3.418  -0.017   3.546  0.00  0.00    +0.004 A 
ATOM     29  C   UNL     1       3.502  -0.687   2.341  0.00  0.00    +0.046 A 
ATOM     30  C   UNL     1       3.503   0.025   1.150  0.00  0.00    +0.128 A 
ATOM     31  C   UNL     1       3.420   1.410   1.174  0.00  0.00    +0.046 A 
ATOM     32  C   UNL     1       3.336   2.076   2.381  0.00  0.00    +0.004 A 
ENDBRANCH  26  30
ENDBRANCH  20  26
ENDBRANCH  18  23
ENDBRANCH   1  18
TORSDOF 5
