REMARK  Name = ZINC20707624
REMARK  7 active torsions:
REMARK  status: ('A' for Active; 'I' for Inactive)
REMARK    1  A    between atoms: C_1  and  C_2
REMARK    2  A    between atoms: C_2  and  C_3
REMARK    3  A    between atoms: C_2  and  C_4
REMARK    4  A    between atoms: C_4  and  C_5
REMARK    5  A    between atoms: N_7  and  C_8
REMARK    6  A    between atoms: C_21  and  C_24
REMARK    7  A    between atoms: C_29  and  O_30
REMARK                            x       y       z     vdW  Elec       q    Type
REMARK                         _______ _______ _______ _____ _____    ______ ____
ROOT
ATOM      1  C   UNL     1      -3.346   0.155   3.302  0.00  0.00    +0.034 A 
ATOM      2  C   UNL     1      -4.238  -0.098   2.268  0.00  0.00    +0.025 A 
ATOM      3  C   UNL     1      -3.893   0.204   0.968  0.00  0.00    +0.025 A 
ATOM      4  C   UNL     1      -2.654   0.762   0.680  0.00  0.00    +0.031 A 
ATOM      5  C   UNL     1      -1.763   1.028   1.726  0.00  0.00    -0.018 A 
ATOM      6  C   UNL     1      -2.109   0.720   3.023  0.00  0.00    +0.029 A 
ATOM      7  C   UNL     1      -0.464   1.643   1.377  0.00  0.00    +0.049 C 
ATOM      8  C   UNL     1       0.742   1.464   2.225  0.00  0.00    -0.023 C 
ATOM      9  C   UNL     1       1.817   1.488   1.446  0.00  0.00    -0.030 C 
ATOM     10  C   UNL     1       1.399   1.655  -0.016  0.00  0.00    +0.033 C 
ATOM     11  C   UNL     1      -0.018   1.068  -0.001  0.00  0.00    +0.029 C 
ATOM     12  C   UNL     1      -1.001   1.604  -1.027  0.00  0.00    +0.108 C 
ATOM     13  N   UNL     1      -2.315   1.026  -0.655  0.00  0.00    -0.336 N 
ATOM     14  H   UNL     1      -3.054   0.792  -1.436  0.00  0.00    +0.147 HD
ENDROOT
BRANCH  12  15
ATOM     15  C   UNL     1      -0.580   1.197  -2.415  0.00  0.00    +0.014 A 
ATOM     16  C   UNL     1      -1.189   0.123  -3.035  0.00  0.00    +0.009 A 
ATOM     17  C   UNL     1      -0.803  -0.251  -4.309  0.00  0.00    +0.001 A 
ATOM     18  C   UNL     1       0.193   0.448  -4.965  0.00  0.00    +0.004 A 
ATOM     19  C   UNL     1       0.806   1.522  -4.349  0.00  0.00    +0.046 A 
ATOM     20  C   UNL     1       0.416   1.903  -3.073  0.00  0.00    +0.122 A 
BRANCH  20  21
ATOM     21  O   UNL     1       1.013   2.963  -2.468  0.00  0.00    -0.506 OA
ATOM     22  H   UNL     1       1.803   3.522  -2.991  0.00  0.00    +0.292 HD
ENDBRANCH  20  21
ENDBRANCH  12  15
BRANCH   1  25
ATOM     23  C   UNL     1      -4.971  -0.020   5.034  0.00  0.00    +0.217 C 
ATOM     24  O   UNL     1      -5.833   0.293   4.241  0.00  0.00    -0.275 OA
ATOM     25  N   UNL     1      -3.694  -0.157   4.623  0.00  0.00    -0.285 N 
ATOM     26  H   UNL     1      -2.926  -0.514   5.325  0.00  0.00    +0.155 HD
BRANCH  23  27
ATOM     27  C   UNL     1      -5.326  -0.256   6.480  0.00  0.00    +0.099 C 
BRANCH  27  29
ATOM     28  C   UNL     1      -7.210  -0.395   8.115  0.00  0.00    +0.008 C 
ATOM     29  C   UNL     1      -6.827  -0.036   6.678  0.00  0.00    -0.008 C 
ATOM     30  C   UNL     1      -7.168   1.432   6.411  0.00  0.00    +0.008 C 
ENDBRANCH  27  29
ENDBRANCH  23  27
ENDBRANCH   1  25
TORSDOF 5
