REMARK  Name = ZINC01514310
REMARK  5 active torsions:
REMARK  status: ('A' for Active; 'I' for Inactive)
REMARK    1  A    between atoms: C_1  and  O_2
REMARK    2  A    between atoms: O_2  and  C_3
REMARK    3  A    between atoms: C_6  and  N_9
REMARK    4  A    between atoms: C_13  and  C_17
REMARK    5  A    between atoms: C_13  and  C_23
REMARK                            x       y       z     vdW  Elec       q    Type
REMARK                         _______ _______ _______ _____ _____    ______ ____
ROOT
ATOM      1  N   UNL     1       4.875   4.001  -0.019  0.00  0.00    -0.219 N 
ATOM      2  C   UNL     1       6.054   3.243   0.068  0.00  0.00    +0.072 C 
ATOM      3  C   UNL     1       6.097   1.961  -0.286  0.00  0.00    +0.042 C 
ATOM      4  S   UNL     1       7.484   4.100   0.679  0.00  0.00    -0.071 S 
ATOM      5  C   UNL     1       7.358   5.680  -0.222  0.00  0.00    +0.209 C 
ATOM      6  N   UNL     1       5.967   6.131  -0.158  0.00  0.00    -0.273 N 
ATOM      7  C   UNL     1       4.910   5.330  -0.119  0.00  0.00    +0.313 C 
ATOM      8  O   UNL     1       3.829   5.883  -0.177  0.00  0.00    -0.252 OA
ATOM      9  H   UNL     1       5.806   7.088  -0.146  0.00  0.00    +0.152 HD
ENDROOT
BRANCH   1  13
ATOM     10  C   UNL     1       1.187   2.054   0.021  0.00  0.00    +0.120 A 
ATOM     11  C   UNL     1       1.813   2.376   1.216  0.00  0.00    +0.047 A 
ATOM     12  C   UNL     1       3.037   3.016   1.203  0.00  0.00    +0.027 A 
ATOM     13  C   UNL     1       3.635   3.346  -0.006  0.00  0.00    +0.043 A 
ATOM     14  C   UNL     1       3.004   3.029  -1.201  0.00  0.00    +0.027 A 
ATOM     15  C   UNL     1       1.783   2.384  -1.187  0.00  0.00    +0.047 A 
BRANCH  10  17
ATOM     16  C   UNL     1      -0.572   1.109   1.313  0.00  0.00    +0.277 C 
ATOM     17  O   UNL     1      -0.016   1.419   0.034  0.00  0.00    -0.495 OA
ENDBRANCH  10  17
ENDBRANCH   1  13
BRANCH   5  18
ATOM     18  C   UNL     1       8.257   6.705   0.419  0.00  0.00    -0.005 A 
ATOM     19  C   UNL     1       7.875   8.033   0.455  0.00  0.00    +0.007 A 
ATOM     20  C   UNL     1       8.698   8.973   1.049  0.00  0.00    +0.000 A 
ATOM     21  C   UNL     1       9.906   8.586   1.596  0.00  0.00    +0.000 A 
ATOM     22  C   UNL     1      10.291   7.258   1.555  0.00  0.00    +0.000 A 
ATOM     23  C   UNL     1       9.466   6.318   0.967  0.00  0.00    +0.007 A 
ENDBRANCH   5  18
BRANCH   5  24
ATOM     24  C   UNL     1       7.767   5.475  -1.682  0.00  0.00    +0.425 C 
ATOM     25  F   UNL     1       6.921   4.534  -2.277  0.00  0.00    -0.167 F 
ATOM     26  F   UNL     1       7.668   6.691  -2.369  0.00  0.00    -0.167 F 
ATOM     27  F   UNL     1       9.087   5.015  -1.737  0.00  0.00    -0.167 F 
ENDBRANCH   5  24
TORSDOF 4
