REMARK  Name = ZINC39530663
REMARK  10 active torsions:
REMARK  status: ('A' for Active; 'I' for Inactive)
REMARK    1  A    between atoms: C_1  and  C_2
REMARK    2  A    between atoms: C_2  and  C_3
REMARK    3  A    between atoms: C_2  and  S_4
REMARK    4  A    between atoms: S_4  and  C_7
REMARK    5  A    between atoms: C_9  and  C_30
REMARK    6  A    between atoms: C_12  and  N_13
REMARK    7  A    between atoms: C_17  and  S_20
REMARK    8  A    between atoms: S_20  and  O_23
REMARK    9  A    between atoms: O_23  and  C_24
REMARK   10  A    between atoms: C_30  and  C_31
REMARK                            x       y       z     vdW  Elec       q    Type
REMARK                         _______ _______ _______ _____ _____    ______ ____
ROOT
ATOM      1  C   UNL     1      -0.092   0.028   2.626  0.00  0.00    +0.110 A 
ATOM      2  C   UNL     1      -0.667  -0.763   3.603  0.00  0.00    +0.032 A 
ATOM      3  C   UNL     1      -1.421  -0.184   4.607  0.00  0.00    -0.041 A 
ATOM      4  C   UNL     1      -1.603   1.186   4.638  0.00  0.00    +0.006 A 
ATOM      5  C   UNL     1      -1.030   1.982   3.665  0.00  0.00    +0.025 A 
ATOM      6  C   UNL     1      -0.268   1.405   2.658  0.00  0.00    +0.055 A 
ENDROOT
BRANCH   6   7
ATOM      7  N   UNL     1       0.317   2.208   1.675  0.00  0.00    -0.330 N 
ATOM      8  C   UNL     1      -0.352   2.431   0.385  0.00  0.00    +0.086 C 
ATOM      9  C   UNL     1      -0.388   3.938   0.111  0.00  0.00    -0.061 C 
ATOM     10  N   UNL     1       0.974   4.482   0.190  0.00  0.00    +0.398 N 
ATOM     11  C   UNL     1       1.490   4.341   1.557  0.00  0.00    +0.133 C 
ATOM     12  C   UNL     1       1.616   2.858   1.905  0.00  0.00    +0.115 C 
ATOM     13  H   UNL     1       1.573   3.979  -0.448  0.00  0.00    -0.083 HD
ATOM     14  H   UNL     1       0.961   5.458  -0.064  0.00  0.00    -0.083 HD
BRANCH  11  15
ATOM     15  S   UNL     1       3.118   5.132   1.674  0.00  0.00    +0.109 S 
ATOM     16  O   UNL     1       3.552   5.162   3.027  0.00  0.00    -0.138 OA
ATOM     17  O   UNL     1       3.974   4.645   0.649  0.00  0.00    -0.138 OA
BRANCH  15  18
ATOM     18  O   UNL     1       2.871   6.590   1.313  0.00  0.00    -0.347 OA
BRANCH  18  19
ATOM     19  C   UNL     1       2.264   7.308   2.295  0.00  0.00    +0.156 A 
ATOM     20  C   UNL     1       0.880   7.376   2.350  0.00  0.00    +0.048 A 
ATOM     21  C   UNL     1       0.265   8.106   3.350  0.00  0.00    +0.004 A 
ATOM     22  C   UNL     1       1.029   8.767   4.293  0.00  0.00    +0.000 A 
ATOM     23  C   UNL     1       2.409   8.701   4.240  0.00  0.00    +0.004 A 
ATOM     24  C   UNL     1       3.028   7.968   3.246  0.00  0.00    +0.048 A 
ENDBRANCH  18  19
ENDBRANCH  15  18
ENDBRANCH  11  15
ENDBRANCH   6   7
BRANCH   1  25
ATOM     25  S   UNL     1       0.868  -0.710   1.347  0.00  0.00    +0.001 S 
ATOM     26  O   UNL     1       0.432  -0.074   0.153  0.00  0.00    -0.169 OA
ATOM     27  O   UNL     1       0.697  -2.110   1.526  0.00  0.00    -0.169 OA
BRANCH  25  29
ATOM     28  C   UNL     1       2.989  -0.823   3.071  0.00  0.00    +0.032 C 
ATOM     29  C   UNL     1       2.580  -0.238   1.717  0.00  0.00    +0.130 C 
ATOM     30  C   UNL     1       3.506  -0.780   0.627  0.00  0.00    +0.032 C 
ENDBRANCH  25  29
ENDBRANCH   1  25
BRANCH   3  31
ATOM     31  C   UNL     1      -2.048  -1.050   5.670  0.00  0.00    +0.070 C 
BRANCH  31  32
ATOM     32  C   UNL     1      -1.089  -1.203   6.822  0.00  0.00    -0.043 A 
ATOM     33  C   UNL     1      -0.179  -2.243   6.831  0.00  0.00    +0.004 A 
ATOM     34  C   UNL     1       0.700  -2.383   7.888  0.00  0.00    +0.000 A 
ATOM     35  C   UNL     1       0.669  -1.483   8.937  0.00  0.00    +0.000 A 
ATOM     36  C   UNL     1      -0.240  -0.442   8.928  0.00  0.00    +0.000 A 
ATOM     37  C   UNL     1      -1.117  -0.299   7.868  0.00  0.00    +0.004 A 
ENDBRANCH  31  32
ENDBRANCH   3  31
TORSDOF 8
