REMARK  Name = ZINC14279207
REMARK  8 active torsions:
REMARK  status: ('A' for Active; 'I' for Inactive)
REMARK    1  A    between atoms: C_1  and  C_2
REMARK    2  A    between atoms: C_2  and  C_3
REMARK    3  A    between atoms: C_2  and  C_4
REMARK    4  A    between atoms: N_9  and  C_12
REMARK    5  A    between atoms: C_17  and  N_18
REMARK    6  A    between atoms: C_19  and  C_21
REMARK    7  A    between atoms: C_22  and  C_23
REMARK    8  A    between atoms: C_26  and  C_28
REMARK                            x       y       z     vdW  Elec       q    Type
REMARK                         _______ _______ _______ _____ _____    ______ ____
ROOT
ATOM      1  N   UNL     1      -1.959  -4.390  -0.003  0.00  0.00    -0.280 N 
ATOM      2  C   UNL     1      -2.038  -3.172  -0.574  0.00  0.00    +0.241 C 
ATOM      3  O   UNL     1      -3.080  -2.805  -1.087  0.00  0.00    -0.270 OA
ATOM      4  H   UNL     1      -1.109  -4.714   0.333  0.00  0.00    +0.155 HD
ENDROOT
BRANCH   1  10
ATOM      5  C   UNL     1      -2.985  -6.575   0.198  0.00  0.00    +0.051 A 
ATOM      6  C   UNL     1      -4.124  -7.360   0.304  0.00  0.00    +0.025 A 
ATOM      7  C   UNL     1      -5.373  -6.767   0.316  0.00  0.00    +0.002 A 
ATOM      8  C   UNL     1      -5.492  -5.393   0.223  0.00  0.00    +0.002 A 
ATOM      9  C   UNL     1      -4.362  -4.602   0.121  0.00  0.00    +0.025 A 
ATOM     10  C   UNL     1      -3.105  -5.189   0.103  0.00  0.00    +0.055 A 
BRANCH   5  16
ATOM     11  C   UNL     1       0.784 -10.385   0.239  0.00  0.00    +0.218 C 
ATOM     12  O   UNL     1       0.970 -10.939   1.302  0.00  0.00    -0.275 OA
ATOM     13  N   UNL     1       0.240  -9.153   0.207  0.00  0.00    -0.298 N 
ATOM     14  C   UNL     1      -0.031  -8.415   1.451  0.00  0.00    +0.126 C 
ATOM     15  C   UNL     1      -1.484  -7.930   1.422  0.00  0.00    +0.124 C 
ATOM     16  N   UNL     1      -1.720  -7.172   0.186  0.00  0.00    -0.325 N 
ATOM     17  C   UNL     1      -1.550  -8.022  -1.000  0.00  0.00    +0.124 C 
ATOM     18  C   UNL     1      -0.099  -8.510  -1.071  0.00  0.00    +0.126 C 
BRANCH  11  20
ATOM     19  C   UNL     1       2.424 -11.912  -0.824  0.00  0.00    +0.017 C 
ATOM     20  C   UNL     1       1.162 -11.075  -1.046  0.00  0.00    +0.069 C 
ATOM     21  C   UNL     1       0.017 -11.987  -1.492  0.00  0.00    +0.017 C 
ENDBRANCH  11  20
ENDBRANCH   5  16
ENDBRANCH   1  10
BRANCH   2  22
ATOM     22  C   UNL     1      -0.910  -2.318  -0.577  0.00  0.00    +0.071 C 
ATOM     23  C   UNL     1      -0.989  -1.090  -1.151  0.00  0.00    +0.051 C 
BRANCH  23  24
ATOM     24  C   UNL     1       0.138  -0.237  -1.154  0.00  0.00    +0.129 A 
ATOM     25  C   UNL     1       0.196   1.031  -1.701  0.00  0.00    +0.050 A 
ATOM     26  C   UNL     1       1.491   1.507  -1.479  0.00  0.00    +0.050 A 
ATOM     27  C   UNL     1       2.171   0.527  -0.813  0.00  0.00    +0.136 A 
ATOM     28  O   UNL     1       1.347  -0.518  -0.623  0.00  0.00    -0.455 OA
BRANCH  27  29
ATOM     29  C   UNL     1       3.579   0.603  -0.375  0.00  0.00    +0.020 A 
ATOM     30  C   UNL     1       4.334   1.748  -0.638  0.00  0.00    +0.031 A 
ATOM     31  C   UNL     1       5.649   1.815  -0.222  0.00  0.00    +0.043 A 
ATOM     32  C   UNL     1       6.221   0.746   0.448  0.00  0.00    +0.040 A 
ATOM     33  C   UNL     1       5.479  -0.394   0.708  0.00  0.00    +0.043 A 
ATOM     34  C   UNL     1       4.162  -0.471   0.301  0.00  0.00    +0.031 A 
ATOM     35 CL   UNL     1       6.205  -1.728   1.548  0.00  0.00    -0.083 Cl
ATOM     36 CL   UNL     1       6.588   3.238  -0.544  0.00  0.00    -0.083 Cl
ENDBRANCH  27  29
ENDBRANCH  23  24
ENDBRANCH   2  22
TORSDOF 6
