REMARK  Name = ZINC03418596
REMARK  6 active torsions:
REMARK  status: ('A' for Active; 'I' for Inactive)
REMARK    1  A    between atoms: C_1  and  N_2
REMARK    2  A    between atoms: N_2  and  C_3
REMARK    3  A    between atoms: N_2  and  C_4
REMARK    4  A    between atoms: C_7  and  C_10
REMARK    5  A    between atoms: C_13  and  C_25
REMARK    6  A    between atoms: C_29  and  N_31
REMARK                            x       y       z     vdW  Elec       q    Type
REMARK                         _______ _______ _______ _____ _____    ______ ____
ROOT
ATOM      1  C   UNL     1       1.731   2.312   3.011  0.00  0.00    +0.034 C 
ATOM      2  C   UNL     1       2.533   1.614   1.904  0.00  0.00    -0.068 C 
ATOM      3  C   UNL     1       0.849   1.870   0.170  0.00  0.00    +0.007 C 
ATOM      4  C   UNL     1      -0.110   2.180   1.295  0.00  0.00    +0.011 A 
ATOM      5  C   UNL     1       0.290   2.379   2.571  0.00  0.00    -0.015 A 
ATOM      6  C   UNL     1      -0.895   2.651   3.353  0.00  0.00    +0.004 A 
ATOM      7  C   UNL     1      -1.098   2.929   4.709  0.00  0.00    +0.010 A 
ATOM      8  C   UNL     1      -2.393   3.141   5.113  0.00  0.00    +0.001 A 
ATOM      9  C   UNL     1      -3.459   3.083   4.230  0.00  0.00    +0.002 A 
ATOM     10  C   UNL     1      -3.288   2.810   2.884  0.00  0.00    +0.026 A 
ATOM     11  C   UNL     1      -1.984   2.591   2.445  0.00  0.00    +0.047 A 
ATOM     12  N   UNL     1      -1.471   2.304   1.212  0.00  0.00    -0.359 N 
ATOM     13  H   UNL     1      -1.992   2.203   0.400  0.00  0.00    +0.166 HD
ATOM     14  N   UNL     1       2.218   2.232   0.600  0.00  0.00    +0.388 N 
ATOM     15  H   UNL     1       2.890   1.902  -0.102  0.00  0.00    -0.084 HD
ATOM     16  H   UNL     1       2.286   3.253   0.684  0.00  0.00    -0.084 HD
ENDROOT
BRANCH   3  17
ATOM     17  C   UNL     1       0.483   2.675  -1.050  0.00  0.00    -0.054 A 
ATOM     18  C   UNL     1       0.861   4.002  -1.142  0.00  0.00    +0.004 A 
ATOM     19  C   UNL     1       0.525   4.740  -2.260  0.00  0.00    +0.022 A 
ATOM     20  C   UNL     1      -0.190   4.152  -3.289  0.00  0.00    +0.071 A 
ATOM     21  C   UNL     1      -0.568   2.825  -3.196  0.00  0.00    +0.145 A 
ATOM     22  C   UNL     1      -0.227   2.085  -2.079  0.00  0.00    +0.036 A 
ATOM     23 CL   UNL     1      -0.612   5.080  -4.694  0.00  0.00    -0.081 Cl
BRANCH  21  24
ATOM     24  N   UNL     1      -1.332   2.195  -4.296  0.00  0.00    +0.058 N 
ATOM     25  O   UNL     1      -1.665   1.026  -4.214  0.00  0.00    -0.126 OA
ATOM     26  O   UNL     1      -1.628   2.845  -5.282  0.00  0.00    -0.126 OA
ENDBRANCH  21  24
ENDBRANCH   3  17
BRANCH   1  30
ATOM     27  C   UNL     1       3.243   6.263   3.618  0.00  0.00    +0.029 A 
ATOM     28  C   UNL     1       2.525   5.961   2.467  0.00  0.00    +0.023 A 
ATOM     29  C   UNL     1       2.038   4.684   2.274  0.00  0.00    +0.006 A 
ATOM     30  C   UNL     1       2.264   3.705   3.225  0.00  0.00    -0.042 A 
ATOM     31  C   UNL     1       2.973   4.003   4.374  0.00  0.00    +0.006 A 
ATOM     32  C   UNL     1       3.467   5.278   4.571  0.00  0.00    +0.023 A 
BRANCH  27  34
ATOM     33  C   UNL     1       3.397   8.622   2.872  0.00  0.00    +0.129 C 
ATOM     34  N   UNL     1       3.736   7.554   3.817  0.00  0.00    -0.336 N 
ATOM     35  C   UNL     1       4.593   7.842   4.969  0.00  0.00    +0.129 C 
ENDBRANCH  27  34
ENDBRANCH   1  30
TORSDOF 4
