REMARK  Name = ZINC09809534
REMARK  10 active torsions:
REMARK  status: ('A' for Active; 'I' for Inactive)
REMARK    1  A    between atoms: C_1  and  C_2
REMARK    2  A    between atoms: C_2  and  O_3
REMARK    3  A    between atoms: O_3  and  C_4
REMARK    4  A    between atoms: C_4  and  C_6
REMARK    5  A    between atoms: C_6  and  N_7
REMARK    6  A    between atoms: C_11  and  S_27
REMARK    7  A    between atoms: N_16  and  C_17
REMARK    8  A    between atoms: C_17  and  C_19
REMARK    9  A    between atoms: C_22  and  C_25
REMARK   10  A    between atoms: S_27  and  N_30
REMARK                            x       y       z     vdW  Elec       q    Type
REMARK                         _______ _______ _______ _____ _____    ______ ____
ROOT
ATOM      1  N   UNL     1      -0.058   1.123   4.807  0.00  0.00    -0.310 N 
ATOM      2  C   UNL     1      -0.382  -0.107   5.349  0.00  0.00    +0.058 A 
ATOM      3  C   UNL     1      -1.386  -1.000   4.942  0.00  0.00    +0.029 A 
ATOM      4  C   UNL     1      -1.569  -2.196   5.596  0.00  0.00    +0.030 A 
ATOM      5  C   UNL     1      -0.770  -2.559   6.667  0.00  0.00    +0.106 A 
ATOM      6  C   UNL     1       0.230  -1.699   7.086  0.00  0.00    +0.045 A 
ATOM      7  C   UNL     1       0.414  -0.503   6.433  0.00  0.00    +0.041 A 
ATOM      8  S   UNL     1       1.540   0.855   6.629  0.00  0.00    -0.052 S 
ATOM      9  C   UNL     1       0.961   1.853   5.335  0.00  0.00    +0.167 A 
ATOM     10  N   UNL     1       1.405   3.045   4.951  0.00  0.00    -0.152 NA
ENDROOT
BRANCH   5  11
ATOM     11  S   UNL     1      -1.024  -4.097   7.488  0.00  0.00    +0.056 S 
ATOM     12  O   UNL     1      -1.668  -4.954   6.555  0.00  0.00    -0.153 OA
ATOM     13  O   UNL     1       0.209  -4.435   8.108  0.00  0.00    -0.153 OA
BRANCH  11  14
ATOM     14  N   UNL     1      -2.110  -3.827   8.709  0.00  0.00    -0.204 NA
ATOM     15  H   UNL     1      -2.471  -2.938   8.849  0.00  0.00    +0.144 HD
ATOM     16  H   UNL     1      -2.384  -4.558   9.285  0.00  0.00    +0.144 HD
ENDBRANCH  11  14
ENDBRANCH   5  11
BRANCH  10  17
ATOM     17  C   UNL     1       2.428   3.616   5.595  0.00  0.00    +0.269 C 
ATOM     18  O   UNL     1       2.952   3.044   6.534  0.00  0.00    -0.268 OA
BRANCH  17  19
ATOM     19  C   UNL     1       2.923   4.945   5.166  0.00  0.00    +0.039 A 
ATOM     20  C   UNL     1       2.326   5.598   4.087  0.00  0.00    +0.014 A 
ATOM     21  C   UNL     1       2.784   6.835   3.691  0.00  0.00    +0.019 A 
ATOM     22  C   UNL     1       3.852   7.432   4.364  0.00  0.00    +0.052 A 
ATOM     23  C   UNL     1       4.453   6.776   5.441  0.00  0.00    +0.019 A 
ATOM     24  C   UNL     1       3.991   5.541   5.839  0.00  0.00    +0.014 A 
BRANCH  22  25
ATOM     25  C   UNL     1       4.331   8.717   3.950  0.00  0.00    +0.099 C 
ATOM     26  N   UNL     1       4.712   9.736   3.621  0.00  0.00    -0.191 NA
ENDBRANCH  22  25
ENDBRANCH  17  19
ENDBRANCH  10  17
BRANCH   1  27
ATOM     27  C   UNL     1      -0.817   1.643   3.667  0.00  0.00    +0.244 C 
BRANCH  27  28
ATOM     28  C   UNL     1      -0.166   1.194   2.384  0.00  0.00    +0.327 C 
ATOM     29  O   UNL     1       0.829   0.510   2.418  0.00  0.00    -0.249 OA
BRANCH  28  30
ATOM     30  O   UNL     1      -0.692   1.554   1.203  0.00  0.00    -0.464 OA
BRANCH  30  32
ATOM     31  C   UNL     1      -0.753   1.593  -1.232  0.00  0.00    +0.048 C 
ATOM     32  C   UNL     1      -0.013   1.086   0.008  0.00  0.00    +0.229 C 
ENDBRANCH  30  32
ENDBRANCH  28  30
ENDBRANCH  27  28
ENDBRANCH   1  27
TORSDOF 9
