REMARK  Name = ZINC39991681
REMARK  12 active torsions:
REMARK  status: ('A' for Active; 'I' for Inactive)
REMARK    1  A    between atoms: C_1  and  C_2
REMARK    2  A    between atoms: C_5  and  S_8
REMARK    3  A    between atoms: S_8  and  C_9
REMARK    4  A    between atoms: C_11  and  C_35
REMARK    5  A    between atoms: C_12  and  C_14
REMARK    6  A    between atoms: C_14  and  C_16
REMARK    7  A    between atoms: N_20  and  C_29
REMARK    8  A    between atoms: C_21  and  C_23
REMARK    9  A    between atoms: C_29  and  C_30
REMARK   10  A    between atoms: C_30  and  C_31
REMARK   11  A    between atoms: C_31  and  O_32
REMARK   12  A    between atoms: O_32  and  C_33
REMARK                            x       y       z     vdW  Elec       q    Type
REMARK                         _______ _______ _______ _____ _____    ______ ____
ROOT
ATOM      1  C   UNL     1       0.548  -8.353   5.821  0.00  0.00    +0.077 C 
ATOM      2  C   UNL     1       0.761  -9.125   6.911  0.00  0.00    +0.249 C 
ATOM      3  C   UNL     1       0.890 -10.534   6.491  0.00  0.00    +0.288 C 
ATOM      4  O   UNL     1       1.087 -11.470   7.241  0.00  0.00    -0.266 OA
ATOM      5  N   UNL     1       0.759 -10.630   5.156  0.00  0.00    -0.283 N 
ATOM      6  C   UNL     1       0.528  -9.280   4.628  0.00  0.00    +0.145 C 
ATOM      7  O   UNL     1       0.843  -8.676   8.186  0.00  0.00    -0.282 OA
ENDROOT
BRANCH   6   8
ATOM      8  C   UNL     1      -0.811  -9.211   3.940  0.00  0.00    -0.022 A 
ATOM      9  C   UNL     1      -1.929  -9.751   4.547  0.00  0.00    +0.006 A 
ATOM     10  C   UNL     1      -3.157  -9.688   3.916  0.00  0.00    +0.000 A 
ATOM     11  C   UNL     1      -3.267  -9.083   2.678  0.00  0.00    +0.000 A 
ATOM     12  C   UNL     1      -2.150  -8.542   2.071  0.00  0.00    +0.000 A 
ATOM     13  C   UNL     1      -0.922  -8.601   2.704  0.00  0.00    +0.006 A 
ENDBRANCH   6   8
BRANCH   1  14
ATOM     14  C   UNL     1       0.366  -6.897   5.802  0.00  0.00    +0.203 C 
ATOM     15  O   UNL     1      -0.612  -6.398   6.333  0.00  0.00    -0.286 OA
BRANCH  14  19
ATOM     16  C   UNL     1       3.306  -4.968   3.853  0.00  0.00    +0.140 A 
ATOM     17  N   UNL     1       2.416  -4.186   4.442  0.00  0.00    -0.237 NA
ATOM     18  C   UNL     1       1.408  -4.681   5.111  0.00  0.00    +0.058 A 
ATOM     19  C   UNL     1       1.326  -6.070   5.165  0.00  0.00    +0.083 A 
ATOM     20  S   UNL     1       2.763  -6.521   4.205  0.00  0.00    -0.057 S 
ATOM     21  C   UNL     1       0.390  -3.797   5.785  0.00  0.00    +0.067 C 
BRANCH  16  22
ATOM     22  S   UNL     1       4.721  -4.495   2.916  0.00  0.00    -0.063 S 
BRANCH  22  27
ATOM     23  C   UNL     1       4.880   1.516   3.440  0.00  0.00    +0.044 C 
ATOM     24  C   UNL     1       4.840   0.015   3.309  0.00  0.00    -0.050 A 
ATOM     25  C   UNL     1       5.417  -0.778   4.285  0.00  0.00    +0.004 A 
ATOM     26  C   UNL     1       5.382  -2.153   4.168  0.00  0.00    +0.015 A 
ATOM     27  C   UNL     1       4.767  -2.740   3.069  0.00  0.00    +0.015 A 
ATOM     28  C   UNL     1       4.188  -1.940   2.091  0.00  0.00    +0.015 A 
ATOM     29  C   UNL     1       4.222  -0.566   2.217  0.00  0.00    +0.004 A 
ENDBRANCH  22  27
ENDBRANCH  16  22
ENDBRANCH  14  19
ENDBRANCH   1  14
BRANCH   5  30
ATOM     30  C   UNL     1       0.828 -11.864   4.369  0.00  0.00    +0.111 C 
BRANCH  30  31
ATOM     31  C   UNL     1      -0.572 -12.470   4.247  0.00  0.00    +0.047 C 
BRANCH  31  32
ATOM     32  C   UNL     1      -0.500 -13.758   3.425  0.00  0.00    +0.161 C 
BRANCH  32  33
ATOM     33  O   UNL     1      -1.807 -14.324   3.311  0.00  0.00    -0.383 OA
ATOM     34  C   UNL     1      -1.851 -15.538   2.558  0.00  0.00    +0.193 C 
ENDBRANCH  32  33
ENDBRANCH  31  32
ENDBRANCH  30  31
ENDBRANCH   5  30
TORSDOF 9
