REMARK  Name = ZINC17939656
REMARK  8 active torsions:
REMARK  status: ('A' for Active; 'I' for Inactive)
REMARK    1  A    between atoms: C_1  and  C_2
REMARK    2  A    between atoms: C_5  and  C_8
REMARK    3  A    between atoms: C_10  and  C_13
REMARK    4  A    between atoms: C_13  and  O_15
REMARK    5  A    between atoms: O_15  and  C_16
REMARK    6  A    between atoms: C_16  and  C_18
REMARK    7  A    between atoms: C_16  and  C_19
REMARK    8  A    between atoms: N_21  and  C_22
REMARK                            x       y       z     vdW  Elec       q    Type
REMARK                         _______ _______ _______ _____ _____    ______ ____
ROOT
ATOM      1  C   UNL     1       3.939  -5.819  -1.211  0.00  0.00    +0.359 C 
ATOM      2  O   UNL     1       2.964  -6.408  -1.636  0.00  0.00    -0.243 OA
ENDROOT
BRANCH   1   5
ATOM      3  C   UNL     1       7.565  -6.180  -1.278  0.00  0.00    +0.109 A 
ATOM      4  N   UNL     1       6.360  -5.702  -1.032  0.00  0.00    -0.232 NA
ATOM      5  C   UNL     1       5.289  -6.338  -1.484  0.00  0.00    +0.155 A 
ATOM      6  C   UNL     1       5.463  -7.495  -2.223  0.00  0.00    +0.082 A 
ATOM      7  S   UNL     1       7.193  -7.640  -2.237  0.00  0.00    -0.075 S 
BRANCH   3  12
ATOM      8  C   UNL     1      12.688  -4.090   0.306  0.00  0.00    +0.044 C 
ATOM      9  C   UNL     1      11.347  -4.637  -0.109  0.00  0.00    -0.050 A 
ATOM     10  C   UNL     1      11.278  -5.796  -0.861  0.00  0.00    +0.004 A 
ATOM     11  C   UNL     1      10.053  -6.303  -1.244  0.00  0.00    +0.011 A 
ATOM     12  C   UNL     1       8.882  -5.643  -0.871  0.00  0.00    +0.007 A 
ATOM     13  C   UNL     1       8.958  -4.471  -0.118  0.00  0.00    +0.011 A 
ATOM     14  C   UNL     1      10.189  -3.978   0.264  0.00  0.00    +0.004 A 
ENDBRANCH   3  12
ENDBRANCH   1   5
BRANCH   1  15
ATOM     15  O   UNL     1       3.784  -4.690  -0.490  0.00  0.00    -0.448 OA
BRANCH  15  16
ATOM     16  C   UNL     1       2.424  -4.237  -0.260  0.00  0.00    +0.259 C 
ATOM     17  C   UNL     1       1.891  -4.859   1.032  0.00  0.00    +0.062 C 
BRANCH  16  18
ATOM     18  C   UNL     1       2.409  -2.735  -0.138  0.00  0.00    +0.258 C 
ATOM     19  O   UNL     1       3.451  -2.116  -0.144  0.00  0.00    -0.271 OA
ATOM     20  N   UNL     1       1.237  -2.080  -0.021  0.00  0.00    -0.282 N 
ATOM     21  H   UNL     1       0.409  -2.579   0.061  0.00  0.00    +0.155 HD
BRANCH  20  22
ATOM     22  C   UNL     1       1.214  -0.681  -0.019  0.00  0.00    +0.034 A 
ATOM     23  C   UNL     1       2.138   0.031  -0.773  0.00  0.00    +0.024 A 
ATOM     24  C   UNL     1       2.113   1.412  -0.768  0.00  0.00    +0.017 A 
ATOM     25  C   UNL     1       1.170   2.086  -0.013  0.00  0.00    +0.018 A 
ATOM     26  C   UNL     1       0.249   1.379   0.739  0.00  0.00    +0.017 A 
ATOM     27  C   UNL     1       0.269  -0.002   0.738  0.00  0.00    +0.024 A 
ATOM     28 BR   UNL     1       1.140   3.977  -0.009  0.00  0.00    -0.050 Br
ENDBRANCH  20  22
ENDBRANCH  16  18
ENDBRANCH  15  16
ENDBRANCH   1  15
TORSDOF 6
