REMARK  Name = ZINC16751511
REMARK  15 active torsions:
REMARK  status: ('A' for Active; 'I' for Inactive)
REMARK    1  A    between atoms: C_1  and  C_2
REMARK    2  A    between atoms: C_2  and  C_3
REMARK    3  A    between atoms: C_2  and  C_4
REMARK    4  A    between atoms: C_4  and  C_5
REMARK    5  A    between atoms: C_5  and  O_6
REMARK    6  A    between atoms: O_6  and  C_7
REMARK    7  A    between atoms: C_10  and  C_15
REMARK    8  A    between atoms: C_12  and  O_13
REMARK    9  A    between atoms: O_13  and  C_14
REMARK   10  A    between atoms: N_30  and  C_31
REMARK   11  A    between atoms: C_31  and  C_32
REMARK   12  A    between atoms: C_32  and  C_33
REMARK   13  A    between atoms: C_33  and  N_69
REMARK   14  A    between atoms: C_34  and  N_69
REMARK   15  A    between atoms: C_35  and  N_69
REMARK                            x       y       z     vdW  Elec       q    Type
REMARK                         _______ _______ _______ _____ _____    ______ ____
ROOT
ATOM      1  C   UNL     1      -2.110  -3.373   0.003  0.00  0.00    +0.145 C 
ATOM      2  C   UNL     1      -1.106  -2.249  -0.001  0.00  0.00    +0.072 A 
ATOM      3  C   UNL     1      -1.247  -0.791   0.009  0.00  0.00    +0.199 A 
ATOM      4  O   UNL     1      -2.341  -0.254   0.022  0.00  0.00    -0.287 OA
ATOM      5  C   UNL     1       0.002  -0.004   0.002  0.00  0.00    +0.067 A 
ATOM      6  C   UNL     1      -0.017   1.390   0.010  0.00  0.00    +0.053 A 
ATOM      7  C   UNL     1       1.174   2.085   0.002  0.00  0.00    +0.124 A 
ATOM      8  C   UNL     1       2.384   1.400  -0.012  0.00  0.00    +0.042 A 
ATOM      9  C   UNL     1       2.413   0.023  -0.020  0.00  0.00    +0.050 A 
ATOM     10  C   UNL     1       1.223  -0.700  -0.013  0.00  0.00    +0.140 A 
ATOM     11  O   UNL     1       1.241  -2.046  -0.022  0.00  0.00    -0.450 OA
ATOM     12  C   UNL     1       0.130  -2.808  -0.015  0.00  0.00    +0.199 A 
ATOM     13  C   UNL     1      -0.025  -4.284  -0.022  0.00  0.00    +0.283 C 
ATOM     14  O   UNL     1       0.894  -5.079  -0.035  0.00  0.00    -0.267 OA
ATOM     15  N   UNL     1      -1.328  -4.615  -0.011  0.00  0.00    -0.284 N 
ATOM     16  F   UNL     1       1.166   3.436   0.009  0.00  0.00    -0.205 F 
ENDROOT
BRANCH   1  20
ATOM     17  C   UNL     1      -4.511  -3.188   3.537  0.00  0.00    +0.162 A 
ATOM     18  C   UNL     1      -3.229  -3.713   3.593  0.00  0.00    +0.050 A 
ATOM     19  C   UNL     1      -2.456  -3.771   2.449  0.00  0.00    +0.009 A 
ATOM     20  C   UNL     1      -2.958  -3.307   1.247  0.00  0.00    -0.019 A 
ATOM     21  C   UNL     1      -4.233  -2.778   1.185  0.00  0.00    +0.055 A 
ATOM     22  C   UNL     1      -5.016  -2.721   2.327  0.00  0.00    +0.162 A 
BRANCH  22  23
ATOM     23  O   UNL     1      -6.273  -2.206   2.267  0.00  0.00    -0.491 OA
ATOM     24  C   UNL     1      -6.725  -1.746   0.992  0.00  0.00    +0.277 C 
ENDBRANCH  22  23
BRANCH  17  25
ATOM     25  O   UNL     1      -5.273  -3.129   4.662  0.00  0.00    -0.488 OA
BRANCH  25  26
ATOM     26  C   UNL     1      -4.689  -3.626   5.868  0.00  0.00    +0.229 C 
BRANCH  26  27
ATOM     27  C   UNL     1      -5.688  -3.478   7.017  0.00  0.00    +0.044 C 
BRANCH  27  29
ATOM     28  C   UNL     1      -6.011  -3.748   9.479  0.00  0.00    +0.007 C 
ATOM     29  C   UNL     1      -5.063  -4.010   8.308  0.00  0.00    -0.014 C 
ATOM     30  C   UNL     1      -4.820  -5.515   8.175  0.00  0.00    +0.007 C 
ENDBRANCH  27  29
ENDBRANCH  26  27
ENDBRANCH  25  26
ENDBRANCH  17  25
ENDBRANCH   1  20
BRANCH  15  31
ATOM     31  C   UNL     1      -1.871  -5.975  -0.014  0.00  0.00    +0.107 C 
BRANCH  31  32
ATOM     32  C   UNL     1      -2.074  -6.441  -1.458  0.00  0.00    +0.000 C 
BRANCH  32  33
ATOM     33  C   UNL     1      -2.641  -7.861  -1.461  0.00  0.00    -0.078 C 
BRANCH  33  36
ATOM     34  C   UNL     1      -3.152  -9.742  -2.898  0.00  0.00    -0.097 C 
ATOM     35  C   UNL     1      -3.876  -7.515  -3.514  0.00  0.00    -0.097 C 
ATOM     36  N   UNL     1      -2.811  -8.304  -2.861  0.00  0.00    +0.376 N 
ATOM     37  H   UNL     1      -1.929  -8.158  -3.366  0.00  0.00    -0.083 HD
ENDBRANCH  33  36
ENDBRANCH  32  33
ENDBRANCH  31  32
ENDBRANCH  15  31
TORSDOF 10
