REMARK  Name = ZINC11284575
REMARK  3 active torsions:
REMARK  status: ('A' for Active; 'I' for Inactive)
REMARK    1  A    between atoms: C_1  and  C_2
REMARK    2  A    between atoms: N_16  and  C_17
REMARK    3  A    between atoms: C_17  and  C_18
REMARK                            x       y       z     vdW  Elec       q    Type
REMARK                         _______ _______ _______ _____ _____    ______ ____
ROOT
ATOM      1  C   UNL     1      -0.201   1.368   0.247  0.00  0.00    -0.008 C 
ATOM      2  C   UNL     1       0.024  -0.115  -0.054  0.00  0.00    -0.040 C 
ATOM      3  C   UNL     1      -1.306  -0.820  -0.092  0.00  0.00    -0.054 A 
ATOM      4  C   UNL     1      -2.378  -0.182  -0.699  0.00  0.00    +0.051 A 
ATOM      5  C   UNL     1      -3.617  -0.797  -0.760  0.00  0.00    +0.162 A 
ATOM      6  C   UNL     1      -3.786  -2.063  -0.211  0.00  0.00    +0.162 A 
ATOM      7  C   UNL     1      -2.715  -2.694   0.398  0.00  0.00    +0.053 A 
ATOM      8  C   UNL     1      -1.477  -2.073   0.459  0.00  0.00    -0.038 A 
ATOM      9  C   UNL     1      -0.339  -2.788   1.137  0.00  0.00    -0.019 C 
ATOM     10  C   UNL     1      -0.335  -4.271   0.723  0.00  0.00    +0.010 C 
ATOM     11  C   UNL     1       0.079  -5.023   2.013  0.00  0.00    +0.001 C 
ATOM     12  C   UNL     1      -0.640  -4.219   3.125  0.00  0.00    +0.001 C 
ATOM     13  C   UNL     1      -0.531  -2.751   2.661  0.00  0.00    +0.010 C 
ATOM     14  C   UNL     1       0.993  -2.143   0.764  0.00  0.00    -0.066 C 
ATOM     15  N   UNL     1       0.887  -0.692   0.980  0.00  0.00    +0.389 N 
ATOM     16  O   UNL     1      -4.992  -2.692  -0.269  0.00  0.00    -0.485 OA
ATOM     17  C   UNL     1      -6.131  -1.874  -0.554  0.00  0.00    +0.270 C 
ATOM     18  C   UNL     1      -5.781  -0.955  -1.733  0.00  0.00    +0.270 C 
ATOM     19  O   UNL     1      -4.657  -0.152  -1.357  0.00  0.00    -0.485 OA
ATOM     20  H   UNL     1       0.489  -0.514   1.890  0.00  0.00    -0.080 HD
ENDROOT
BRANCH  15  21
ATOM     21  C   UNL     1       2.223  -0.085   0.900  0.00  0.00    -0.002 C 
BRANCH  21  22
ATOM     22  C   UNL     1       3.068  -0.577   2.047  0.00  0.00    +0.094 A 
ATOM     23  N   UNL     1       4.377  -0.215   2.084  0.00  0.00    -0.312 N 
ATOM     24  H   UNL     1       4.741   0.346   1.382  0.00  0.00    +0.170 HD
ATOM     25  C   UNL     1       5.178  -0.630   3.093  0.00  0.00    +0.259 A 
ATOM     26  O   UNL     1       6.352  -0.312   3.140  0.00  0.00    -0.267 OA
ATOM     27  C   UNL     1       4.574  -1.478   4.131  0.00  0.00    +0.065 A 
ATOM     28  C   UNL     1       5.312  -1.959   5.212  0.00  0.00    +0.015 A 
ATOM     29  C   UNL     1       4.695  -2.751   6.156  0.00  0.00    +0.001 A 
ATOM     30  C   UNL     1       3.349  -3.072   6.038  0.00  0.00    +0.002 A 
ATOM     31  C   UNL     1       2.603  -2.608   4.978  0.00  0.00    +0.028 A 
ATOM     32  C   UNL     1       3.205  -1.804   4.009  0.00  0.00    +0.078 A 
ATOM     33  N   UNL     1       2.506  -1.320   2.951  0.00  0.00    -0.236 NA
ENDBRANCH  21  22
ENDBRANCH  15  21
TORSDOF 2
