REMARK  Name = ZINC36492770
REMARK  15 active torsions:
REMARK  status: ('A' for Active; 'I' for Inactive)
REMARK    1  A    between atoms: C_1  and  C_2
REMARK    2  A    between atoms: C_5  and  C_8
REMARK    3  A    between atoms: C_8  and  C_10
REMARK    4  A    between atoms: C_8  and  N_21
REMARK    5  A    between atoms: N_12  and  C_13
REMARK    6  A    between atoms: C_13  and  C_14
REMARK    7  A    between atoms: C_13  and  C_15
REMARK    8  A    between atoms: C_13  and  C_16
REMARK    9  A    between atoms: C_16  and  C_17
REMARK   10  A    between atoms: C_17  and  C_18
REMARK   11  A    between atoms: C_17  and  C_19
REMARK   12  A    between atoms: C_17  and  C_20
REMARK   13  A    between atoms: N_21  and  C_22
REMARK   14  A    between atoms: C_28  and  C_30
REMARK   15  A    between atoms: C_33  and  N_36
REMARK                            x       y       z     vdW  Elec       q    Type
REMARK                         _______ _______ _______ _____ _____    ______ ____
ROOT
ATOM      1  C   UNL     1       0.788  -2.056   0.730  0.00  0.00    +0.193 C 
ENDROOT
BRANCH   1   6
ATOM      2  C   UNL     1       1.635   3.274  -1.336  0.00  0.00    +0.044 C 
ATOM      3  C   UNL     1       1.414   1.884  -0.797  0.00  0.00    -0.050 A 
ATOM      4  C   UNL     1       2.487   1.142  -0.340  0.00  0.00    +0.004 A 
ATOM      5  C   UNL     1       2.284  -0.133   0.154  0.00  0.00    +0.006 A 
ATOM      6  C   UNL     1       1.009  -0.666   0.192  0.00  0.00    -0.018 A 
ATOM      7  C   UNL     1      -0.064   0.077  -0.265  0.00  0.00    +0.006 A 
ATOM      8  C   UNL     1       0.138   1.354  -0.755  0.00  0.00    +0.004 A 
ENDBRANCH   1   6
BRANCH   1   9
ATOM      9  C   UNL     1       2.110  -2.649   1.147  0.00  0.00    +0.239 C 
ATOM     10  O   UNL     1       2.264  -3.049   2.281  0.00  0.00    -0.273 OA
ATOM     11  N   UNL     1       3.120  -2.734   0.259  0.00  0.00    -0.308 N 
ATOM     12  H   UNL     1       2.997  -2.413  -0.648  0.00  0.00    +0.149 HD
BRANCH  11  13
ATOM     13  C   UNL     1       4.405  -3.310   0.664  0.00  0.00    +0.030 C 
ATOM     14  C   UNL     1       5.182  -2.288   1.497  0.00  0.00    +0.031 C 
ATOM     15  C   UNL     1       4.159  -4.568   1.500  0.00  0.00    +0.031 C 
BRANCH  13  16
ATOM     16  C   UNL     1       5.215  -3.676  -0.581  0.00  0.00    +0.031 C 
BRANCH  16  17
ATOM     17  C   UNL     1       4.290  -4.304  -1.625  0.00  0.00    -0.036 C 
ATOM     18  C   UNL     1       3.234  -3.284  -2.051  0.00  0.00    +0.010 C 
ATOM     19  C   UNL     1       5.112  -4.728  -2.844  0.00  0.00    +0.010 C 
ATOM     20  C   UNL     1       3.601  -5.531  -1.023  0.00  0.00    +0.010 C 
ENDBRANCH  16  17
ENDBRANCH  13  16
ENDBRANCH  11  13
ENDBRANCH   1   9
BRANCH   1  21
ATOM     21  N   UNL     1      -0.106  -1.995   1.888  0.00  0.00    -0.279 N 
ATOM     22  C   UNL     1      -1.271  -2.673   1.876  0.00  0.00    +0.248 C 
ATOM     23  O   UNL     1      -1.653  -3.207   0.853  0.00  0.00    -0.270 OA
BRANCH  21  24
ATOM     24  C   UNL     1       0.264  -1.197   3.059  0.00  0.00    +0.077 C 
ATOM     25  C   UNL     1       1.284  -0.132   2.649  0.00  0.00    +0.022 C 
ATOM     26  C   UNL     1       1.671   0.701   3.872  0.00  0.00    +0.002 C 
ATOM     27  C   UNL     1       2.285  -0.210   4.936  0.00  0.00    +0.000 C 
ATOM     28  C   UNL     1       1.266  -1.274   5.347  0.00  0.00    +0.002 C 
ATOM     29  C   UNL     1       0.879  -2.108   4.124  0.00  0.00    +0.022 C 
ENDBRANCH  21  24
BRANCH  22  30
ATOM     30  C   UNL     1      -2.083  -2.769   3.108  0.00  0.00    +0.037 A 
ATOM     31  C   UNL     1      -1.638  -2.175   4.290  0.00  0.00    +0.015 A 
ATOM     32  C   UNL     1      -2.401  -2.267   5.435  0.00  0.00    +0.033 A 
ATOM     33  C   UNL     1      -3.606  -2.947   5.414  0.00  0.00    +0.126 A 
ATOM     34  C   UNL     1      -4.053  -3.539   4.246  0.00  0.00    +0.033 A 
ATOM     35  C   UNL     1      -3.303  -3.448   3.092  0.00  0.00    +0.015 A 
BRANCH  33  36
ATOM     36  N   UNL     1      -4.419  -3.043   6.647  0.00  0.00    +0.056 N 
ATOM     37  O   UNL     1      -4.030  -2.527   7.669  0.00  0.00    -0.126 OA
ATOM     38  O   UNL     1      -5.472  -3.636   6.632  0.00  0.00    -0.126 OA
ENDBRANCH  33  36
ENDBRANCH  22  30
ENDBRANCH   1  21
TORSDOF 9
