REMARK  Name = ZINC39995211
REMARK  8 active torsions:
REMARK  status: ('A' for Active; 'I' for Inactive)
REMARK    1  A    between atoms: C_1  and  N_2
REMARK    2  A    between atoms: N_2  and  C_25
REMARK    3  A    between atoms: C_3  and  C_5
REMARK    4  A    between atoms: C_5  and  S_6
REMARK    5  A    between atoms: S_6  and  C_7
REMARK    6  A    between atoms: C_11  and  C_16
REMARK    7  A    between atoms: N_12  and  C_13
REMARK    8  A    between atoms: C_25  and  C_31
REMARK                            x       y       z     vdW  Elec       q    Type
REMARK                         _______ _______ _______ _____ _____    ______ ____
ROOT
ATOM      1  C   UNL     1       0.029  -0.077   5.399  0.00  0.00    +0.237 C 
ATOM      2  N   UNL     1       1.170   0.842   5.550  0.00  0.00    -0.237 N 
ATOM      3  N   UNL     1       0.664   2.135   5.372  0.00  0.00    -0.169 NA
ATOM      4  C   UNL     1      -0.621   2.114   5.135  0.00  0.00    +0.147 C 
ATOM      5  N   UNL     1      -1.118   0.805   5.131  0.00  0.00    -0.282 N 
ATOM      6  H   UNL     1       2.090   0.600   5.737  0.00  0.00    +0.171 HD
ENDROOT
BRANCH   4   7
ATOM      7  C   UNL     1      -1.404   3.258   4.916  0.00  0.00    +0.022 C 
ATOM      8  C   UNL     1      -0.960   4.577   4.809  0.00  0.00    +0.006 A 
ATOM      9  C   UNL     1       0.324   5.159   4.880  0.00  0.00    +0.010 A 
ATOM     10  C   UNL     1       0.463   6.502   4.737  0.00  0.00    +0.001 A 
ATOM     11  C   UNL     1      -0.639   7.332   4.520  0.00  0.00    +0.002 A 
ATOM     12  C   UNL     1      -1.900   6.841   4.441  0.00  0.00    +0.026 A 
ATOM     13  C   UNL     1      -2.124   5.447   4.580  0.00  0.00    +0.043 A 
ATOM     14  N   UNL     1      -3.233   4.734   4.543  0.00  0.00    -0.380 N 
ATOM     15  C   UNL     1      -2.905   3.319   4.738  0.00  0.00    +0.152 C 
ATOM     16  H   UNL     1      -4.125   5.090   4.404  0.00  0.00    +0.160 HD
ENDBRANCH   4   7
BRANCH   5  17
ATOM     17  C   UNL     1      -2.505   0.393   4.903  0.00  0.00    +0.078 C 
ATOM     18  C   UNL     1      -2.831  -1.096   5.038  0.00  0.00    +0.024 C 
ATOM     19  C   UNL     1      -2.798  -0.443   3.655  0.00  0.00    +0.024 C 
ENDBRANCH   5  17
BRANCH   1  20
ATOM     20  S   UNL     1       0.303  -1.204   4.005  0.00  0.00    -0.109 S 
BRANCH  20  21
ATOM     21  C   UNL     1       0.567  -0.098   2.592  0.00  0.00    +0.168 C 
BRANCH  21  24
ATOM     22  C   UNL     1       1.036   1.157   0.095  0.00  0.00    +0.133 C 
ATOM     23  N   UNL     1       1.031  -0.305   0.171  0.00  0.00    -0.285 N 
ATOM     24  C   UNL     1       0.809  -0.918   1.351  0.00  0.00    +0.226 C 
ATOM     25  O   UNL     1       0.805  -2.129   1.414  0.00  0.00    -0.275 OA
BRANCH  23  26
ATOM     26  C   UNL     1       1.267  -1.103  -1.036  0.00  0.00    +0.123 C 
ATOM     27  C   UNL     1       2.506  -1.977  -0.835  0.00  0.00    +0.041 C 
ATOM     28  C   UNL     1       2.752  -2.810  -2.095  0.00  0.00    +0.003 C 
ATOM     29  C   UNL     1       2.974  -1.877  -3.287  0.00  0.00    +0.000 C 
ATOM     30  C   UNL     1       1.735  -1.002  -3.488  0.00  0.00    +0.003 C 
ATOM     31  C   UNL     1       1.489  -0.170  -2.228  0.00  0.00    +0.041 C 
BRANCH  26  32
ATOM     32  C   UNL     1       0.098  -1.959  -1.294  0.00  0.00    +0.089 C 
ATOM     33  N   UNL     1      -0.804  -2.620  -1.493  0.00  0.00    -0.194 NA
ENDBRANCH  26  32
ENDBRANCH  23  26
ENDBRANCH  21  24
ENDBRANCH  20  21
ENDBRANCH   1  20
TORSDOF 7
