REMARK  Name = ZINC13630155
REMARK  7 active torsions:
REMARK  status: ('A' for Active; 'I' for Inactive)
REMARK    1  A    between atoms: C_8  and  C_10
REMARK    2  A    between atoms: N_12  and  C_13
REMARK    3  A    between atoms: C_13  and  N_15
REMARK    4  A    between atoms: N_15  and  N_16
REMARK    5  A    between atoms: C_17  and  C_19
REMARK    6  A    between atoms: N_24  and  C_26
REMARK    7  A    between atoms: C_26  and  C_27
REMARK                            x       y       z     vdW  Elec       q    Type
REMARK                         _______ _______ _______ _____ _____    ______ ____
ROOT
ATOM      1  N   UNL     1      -1.197   2.366   0.021  0.00  0.00    -0.246 N 
ATOM      2  H   UNL     1      -2.031   1.869   0.022  0.00  0.00    +0.172 HD
ENDROOT
BRANCH   1   3
ATOM      3  N   UNL     1      -1.216   3.767   0.028  0.00  0.00    -0.235 N 
ATOM      4  C   UNL     1      -2.393   4.425   0.037  0.00  0.00    +0.234 C 
ATOM      5  O   UNL     1      -3.435   3.804   0.039  0.00  0.00    -0.274 OA
ATOM      6  H   UNL     1      -0.383   4.263   0.027  0.00  0.00    +0.173 HD
BRANCH   4   7
ATOM      7  C   UNL     1      -2.413   5.931   0.046  0.00  0.00    +0.102 C 
ATOM      8  C   UNL     1      -1.737   6.501  -1.223  0.00  0.00    +0.110 C 
ATOM      9  C   UNL     1      -2.566   7.717  -1.571  0.00  0.00    +0.217 C 
ATOM     10  O   UNL     1      -2.220   8.602  -2.325  0.00  0.00    -0.276 OA
ATOM     11  N   UNL     1      -3.744   7.674  -0.925  0.00  0.00    -0.293 N 
ATOM     12  C   UNL     1      -3.855   6.465  -0.100  0.00  0.00    +0.121 C 
BRANCH  11  13
ATOM     13  C   UNL     1      -4.783   8.701  -1.030  0.00  0.00    +0.182 C 
BRANCH  13  14
ATOM     14  C   UNL     1      -5.715   8.359  -2.163  0.00  0.00    +0.122 A 
ATOM     15  C   UNL     1      -6.829   7.610  -2.067  0.00  0.00    +0.046 A 
ATOM     16  C   UNL     1      -7.394   7.548  -3.361  0.00  0.00    +0.041 A 
ATOM     17  C   UNL     1      -6.588   8.256  -4.173  0.00  0.00    +0.195 A 
ATOM     18  O   UNL     1      -5.573   8.745  -3.442  0.00  0.00    -0.466 OA
ENDBRANCH  13  14
ENDBRANCH  11  13
ENDBRANCH   4   7
ENDBRANCH   1   3
BRANCH   1  19
ATOM     19  C   UNL     1      -0.021   1.708   0.011  0.00  0.00    +0.153 C 
ATOM     20  S   UNL     1       0.002  -0.004   0.002  0.00  0.00    -0.017 S 
BRANCH  19  23
ATOM     21  C   UNL     1       2.313   1.740  -0.011  0.00  0.00    +0.258 C 
ATOM     22  O   UNL     1       2.329   0.523  -0.017  0.00  0.00    -0.269 OA
ATOM     23  N   UNL     1       1.137   2.397   0.004  0.00  0.00    -0.262 N 
ATOM     24  H   UNL     1       1.124   3.367   0.009  0.00  0.00    +0.157 HD
BRANCH  21  32
ATOM     25  C   UNL     1       8.247   3.594  -0.057  0.00  0.00    +0.001 A 
ATOM     26  C   UNL     1       7.880   4.934  -0.046  0.00  0.00    +0.001 A 
ATOM     27  C   UNL     1       6.543   5.273  -0.031  0.00  0.00    +0.016 A 
ATOM     28  C   UNL     1       5.590   4.277  -0.028  0.00  0.00    +0.021 A 
ATOM     29  C   UNL     1       5.934   2.904  -0.039  0.00  0.00    +0.008 A 
ATOM     30  C   UNL     1       7.320   2.602  -0.054  0.00  0.00    +0.010 A 
ATOM     31  C   UNL     1       4.847   2.010  -0.028  0.00  0.00    +0.068 A 
ATOM     32  C   UNL     1       3.573   2.490  -0.019  0.00  0.00    +0.094 A 
ATOM     33  S   UNL     1       3.815   4.258  -0.011  0.00  0.00    -0.082 S 
ATOM     34 CL   UNL     1       5.131   0.297  -0.031  0.00  0.00    -0.082 Cl
ENDBRANCH  21  32
ENDBRANCH  19  23
ENDBRANCH   1  19
TORSDOF 7
