REMARK  Name = ZINC43730154
REMARK  8 active torsions:
REMARK  status: ('A' for Active; 'I' for Inactive)
REMARK    1  A    between atoms: C_1  and  C_2
REMARK    2  A    between atoms: C_2  and  C_3
REMARK    3  A    between atoms: C_3  and  C_5
REMARK    4  A    between atoms: C_3  and  N_6
REMARK    5  A    between atoms: C_11  and  C_29
REMARK    6  A    between atoms: C_29  and  C_30
REMARK    7  A    between atoms: C_30  and  C_31
REMARK    8  A    between atoms: C_30  and  C_32
REMARK                            x       y       z     vdW  Elec       q    Type
REMARK                         _______ _______ _______ _____ _____    ______ ____
ROOT
ATOM      1  N   UNL     1      -2.082  -0.162   1.273  0.00  0.00    -0.239 N 
ATOM      2  C   UNL     1      -1.617  -0.547   2.467  0.00  0.00    +0.227 C 
ATOM      3  O   UNL     1      -0.632  -1.231   2.648  0.00  0.00    -0.275 OA
ATOM      4  C   UNL     1      -2.511   0.003   3.555  0.00  0.00    +0.107 C 
ATOM      5  C   UNL     1      -3.264  -1.164   4.229  0.00  0.00    +0.068 C 
ATOM      6  N   UNL     1      -4.675  -0.703   4.324  0.00  0.00    -0.295 NA
ATOM      7  C   UNL     1      -4.903   0.021   3.058  0.00  0.00    +0.136 C 
ATOM      8  C   UNL     1      -3.592   0.792   2.766  0.00  0.00    +0.122 C 
ATOM      9  C   UNL     1      -3.183   0.596   1.324  0.00  0.00    +0.228 C 
ATOM     10  O   UNL     1      -3.765   1.052   0.363  0.00  0.00    -0.275 OA
ATOM     11  C   UNL     1      -5.261  -0.921   1.944  0.00  0.00    +0.005 A 
ATOM     12  C   UNL     1      -4.618  -1.992   1.364  0.00  0.00    +0.027 A 
ATOM     13  C   UNL     1      -5.221  -2.683   0.327  0.00  0.00    +0.041 A 
ATOM     14  C   UNL     1      -6.470  -2.294  -0.125  0.00  0.00    +0.022 A 
ATOM     15  C   UNL     1      -7.115  -1.221   0.452  0.00  0.00    +0.025 A 
ATOM     16  C   UNL     1      -6.516  -0.520   1.496  0.00  0.00    +0.039 A 
ATOM     17  N   UNL     1      -6.962   0.581   2.231  0.00  0.00    -0.283 N 
ATOM     18  C   UNL     1      -6.072   0.961   3.168  0.00  0.00    +0.243 C 
ATOM     19  O   UNL     1      -6.191   1.881   3.949  0.00  0.00    -0.273 OA
ATOM     20 CL   UNL     1      -4.412  -4.034  -0.405  0.00  0.00    -0.084 Cl
ATOM     21  H   UNL     1      -5.306  -1.485   4.412  0.00  0.00    +0.123 HD
ATOM     22  H   UNL     1      -7.814   1.022   2.083  0.00  0.00    +0.155 HD
ENDROOT
BRANCH   1  23
ATOM     23  C   UNL     1      -1.433  -0.534   0.013  0.00  0.00    +0.081 C 
ATOM     24  C   UNL     1      -1.416  -2.058  -0.121  0.00  0.00    +0.028 C 
BRANCH  23  26
ATOM     25  C   UNL     1      -0.019   1.526   0.010  0.00  0.00    +0.006 C 
ATOM     26  C   UNL     1       0.002  -0.004   0.002  0.00  0.00    +0.019 C 
ENDBRANCH  23  26
ENDBRANCH   1  23
BRANCH   5  27
ATOM     27  C   UNL     1      -2.695  -1.432   5.624  0.00  0.00    +0.022 C 
BRANCH  27  28
ATOM     28  C   UNL     1      -3.369  -2.668   6.222  0.00  0.00    -0.016 C 
ATOM     29  C   UNL     1      -3.004  -3.900   5.392  0.00  0.00    +0.007 C 
ATOM     30  C   UNL     1      -2.892  -2.863   7.662  0.00  0.00    +0.007 C 
ENDBRANCH  27  28
ENDBRANCH   5  27
TORSDOF 4
