REMARK  Name = ZINC21176840
REMARK  8 active torsions:
REMARK  status: ('A' for Active; 'I' for Inactive)
REMARK    1  A    between atoms: C_1  and  C_2
REMARK    2  A    between atoms: C_2  and  O_3
REMARK    3  A    between atoms: O_3  and  C_4
REMARK    4  A    between atoms: C_9  and  N_12
REMARK    5  A    between atoms: N_12  and  S_13
REMARK    6  A    between atoms: S_13  and  C_16
REMARK    7  A    between atoms: C_17  and  C_25
REMARK    8  A    between atoms: C_20  and  C_23
REMARK                            x       y       z     vdW  Elec       q    Type
REMARK                         _______ _______ _______ _____ _____    ______ ____
ROOT
ATOM      1  N   UNL     1      -1.372  -0.511  -0.021  0.00  0.00    -0.187 NA
ATOM      2  H   UNL     1      -2.131  -0.073   0.644  0.00  0.00    +0.148 HD
ENDROOT
BRANCH   1   8
ATOM      3  C   UNL     1       2.803   2.229   2.011  0.00  0.00    +0.403 C 
ATOM      4  O   UNL     1       3.405   1.721   2.937  0.00  0.00    -0.226 OA
ATOM      5  N   UNL     1       2.151   1.453   1.124  0.00  0.00    -0.267 N 
ATOM      6  C   UNL     1       1.420   2.052  -0.001  0.00  0.00    +0.112 C 
ATOM      7  C   UNL     1      -0.019   1.526   0.010  0.00  0.00    +0.039 C 
ATOM      8  C   UNL     1       0.002  -0.004   0.002  0.00  0.00    +0.079 C 
ATOM      9  C   UNL     1       0.712  -0.513   1.258  0.00  0.00    +0.039 C 
ATOM     10  C   UNL     1       2.159  -0.010   1.262  0.00  0.00    +0.112 C 
BRANCH   3  11
ATOM     11  O   UNL     1       2.788   3.569   1.873  0.00  0.00    -0.451 OA
BRANCH  11  13
ATOM     12  C   UNL     1       3.381   5.833   2.545  0.00  0.00    +0.048 C 
ATOM     13  C   UNL     1       3.512   4.343   2.866  0.00  0.00    +0.230 C 
ENDBRANCH  11  13
ENDBRANCH   3  11
ENDBRANCH   1   8
BRANCH   1  14
ATOM     14  S   UNL     1      -1.731  -1.895  -0.857  0.00  0.00    +0.060 S 
ATOM     15  O   UNL     1      -3.118  -2.135  -0.668  0.00  0.00    -0.153 OA
ATOM     16  O   UNL     1      -1.151  -1.752  -2.146  0.00  0.00    -0.153 OA
BRANCH  14  17
ATOM     17  C   UNL     1      -0.877  -3.217  -0.065  0.00  0.00    +0.128 A 
ATOM     18  C   UNL     1      -1.488  -3.921   0.956  0.00  0.00    -0.004 A 
ATOM     19  C   UNL     1      -0.818  -4.959   1.578  0.00  0.00    +0.046 A 
ATOM     20  C   UNL     1       0.463  -5.294   1.178  0.00  0.00    +0.025 A 
ATOM     21  C   UNL     1       1.074  -4.591   0.157  0.00  0.00    -0.029 A 
ATOM     22  C   UNL     1       0.402  -3.556  -0.469  0.00  0.00    +0.070 A 
ATOM     23 CL   UNL     1       1.166  -2.677  -1.757  0.00  0.00    -0.081 Cl
ATOM     24  C   UNL     1       2.470  -4.955  -0.279  0.00  0.00    +0.045 C 
ATOM     25 CL   UNL     1      -1.585  -5.842   2.861  0.00  0.00    -0.083 Cl
ATOM     26  C   UNL     1      -2.884  -3.556   1.393  0.00  0.00    +0.047 C 
ENDBRANCH  14  17
ENDBRANCH   1  14
TORSDOF 5
