REMARK  Name = ZINC46586095
REMARK  9 active torsions:
REMARK  status: ('A' for Active; 'I' for Inactive)
REMARK    1  A    between atoms: C_1  and  C_2
REMARK    2  A    between atoms: C_4  and  C_33
REMARK    3  A    between atoms: C_8  and  N_32
REMARK    4  A    between atoms: C_9  and  C_11
REMARK    5  A    between atoms: C_11  and  O_13
REMARK    6  A    between atoms: O_13  and  C_14
REMARK    7  A    between atoms: C_14  and  C_15
REMARK    8  A    between atoms: N_17  and  C_18
REMARK    9  A    between atoms: N_17  and  C_24
REMARK                            x       y       z     vdW  Elec       q    Type
REMARK                         _______ _______ _______ _____ _____    ______ ____
ROOT
ATOM      1  O   UNL     1       0.094  -1.911   5.773  0.00  0.00    -0.451 OA
ENDROOT
BRANCH   1   2
ATOM      2  C   UNL     1      -0.070  -0.907   4.886  0.00  0.00    +0.348 C 
ATOM      3  O   UNL     1      -0.180   0.240   5.279  0.00  0.00    -0.244 OA
BRANCH   2  12
ATOM      4  C   UNL     1      -0.612   1.364  -0.131  0.00  0.00    +0.044 C 
ATOM      5  C   UNL     1      -0.441  -0.134  -0.123  0.00  0.00    -0.037 A 
ATOM      6  C   UNL     1      -0.421  -0.840  -1.303  0.00  0.00    +0.025 A 
ATOM      7  C   UNL     1      -0.263  -2.217  -1.293  0.00  0.00    +0.014 A 
ATOM      8  N   UNL     1      -0.131  -2.867  -0.153  0.00  0.00    -0.353 N 
ATOM      9  C   UNL     1      -0.142  -2.236   1.002  0.00  0.00    +0.088 A 
ATOM     10  C   UNL     1      -0.292  -0.834   1.099  0.00  0.00    +0.030 A 
ATOM     11  C   UNL     1      -0.276  -0.304   2.454  0.00  0.00    +0.055 A 
ATOM     12  C   UNL     1      -0.116  -1.188   3.500  0.00  0.00    +0.119 A 
ATOM     13  S   UNL     1       0.006  -2.769   2.689  0.00  0.00    -0.062 S 
ATOM     14  C   UNL     1      -0.244  -2.978  -2.594  0.00  0.00    +0.063 C 
ATOM     15  H   UNL     1      -0.022  -3.831  -0.166  0.00  0.00    +0.166 HD
BRANCH  11  16
ATOM     16  N   UNL     1      -0.418   1.056   2.687  0.00  0.00    -0.356 N 
ATOM     17  H   UNL     1      -0.645   1.652   1.957  0.00  0.00    +0.142 HD
ATOM     18  H   UNL     1      -0.291   1.411   3.581  0.00  0.00    +0.142 HD
ENDBRANCH  11  16
ENDBRANCH   2  12
ENDBRANCH   1   2
BRANCH   1  19
ATOM     19  C   UNL     1       0.015  -1.572   7.159  0.00  0.00    +0.328 C 
BRANCH  19  20
ATOM     20  C   UNL     1       0.106  -2.827   7.989  0.00  0.00    +0.258 C 
ATOM     21  O   UNL     1       0.156  -3.910   7.446  0.00  0.00    -0.271 OA
ATOM     22  N   UNL     1       0.133  -2.744   9.334  0.00  0.00    -0.260 N 
BRANCH  22  23
ATOM     23  C   UNL     1      -0.068  -1.452   9.993  0.00  0.00    +0.127 C 
ATOM     24  C   UNL     1      -1.412  -1.476  10.769  0.00  0.00    +0.198 C 
ATOM     25  S   UNL     1      -2.480  -0.668   9.504  0.00  0.00    -0.008 S 
ATOM     26  O   UNL     1      -3.267   0.364  10.083  0.00  0.00    -0.170 OA
ATOM     27  O   UNL     1      -3.047  -1.629   8.624  0.00  0.00    -0.170 OA
ATOM     28  C   UNL     1      -1.204   0.158   8.569  0.00  0.00    +0.132 C 
ATOM     29  C   UNL     1      -0.076  -0.369   8.962  0.00  0.00    +0.016 C 
ENDBRANCH  22  23
BRANCH  22  30
ATOM     30  C   UNL     1       0.353  -3.894  10.101  0.00  0.00    +0.037 A 
ATOM     31  C   UNL     1       0.259  -3.835  11.485  0.00  0.00    +0.023 A 
ATOM     32  C   UNL     1       0.477  -4.972  12.239  0.00  0.00    +0.002 A 
ATOM     33  C   UNL     1       0.788  -6.167  11.617  0.00  0.00    +0.000 A 
ATOM     34  C   UNL     1       0.883  -6.228  10.239  0.00  0.00    +0.002 A 
ATOM     35  C   UNL     1       0.661  -5.097   9.479  0.00  0.00    +0.023 A 
ENDBRANCH  22  30
ENDBRANCH  19  20
ENDBRANCH   1  19
TORSDOF 7
