REMARK  Name = ZINC13304718
REMARK  9 active torsions:
REMARK  status: ('A' for Active; 'I' for Inactive)
REMARK    1  A    between atoms: C_1  and  C_2
REMARK    2  A    between atoms: C_4  and  C_8
REMARK    3  A    between atoms: C_5  and  C_7
REMARK    4  A    between atoms: N_10  and  N_11
REMARK    5  A    between atoms: C_12  and  C_13
REMARK    6  A    between atoms: C_14  and  C_34
REMARK    7  A    between atoms: N_16  and  C_28
REMARK    8  A    between atoms: C_17  and  S_18
REMARK    9  A    between atoms: S_18  and  C_19
REMARK                            x       y       z     vdW  Elec       q    Type
REMARK                         _______ _______ _______ _____ _____    ______ ____
ROOT
ATOM      1  C   UNL     1       7.828   2.764  -0.058  0.00  0.00    +0.049 A 
ATOM      2  C   UNL     1       8.640   1.609  -0.066  0.00  0.00    +0.070 A 
ATOM      3  N   UNL     1       9.890   1.983  -0.082  0.00  0.00    -0.170 NA
ATOM      4  N   UNL     1       9.951   3.381  -0.075  0.00  0.00    -0.225 N 
ATOM      5  C   UNL     1       8.679   3.863  -0.060  0.00  0.00    +0.116 A 
ATOM      6  C   UNL     1       8.147   0.185  -0.061  0.00  0.00    +0.068 C 
ENDROOT
BRANCH   4   7
ATOM      7  C   UNL     1      11.121   4.152  -0.083  0.00  0.00    +0.067 A 
ATOM      8  C   UNL     1      11.155   5.358  -0.771  0.00  0.00    +0.028 A 
ATOM      9  C   UNL     1      12.309   6.118  -0.773  0.00  0.00    +0.002 A 
ATOM     10  C   UNL     1      13.431   5.675  -0.099  0.00  0.00    +0.000 A 
ATOM     11  C   UNL     1      13.402   4.472   0.584  0.00  0.00    +0.002 A 
ATOM     12  C   UNL     1      12.250   3.710   0.594  0.00  0.00    +0.028 A 
ENDBRANCH   4   7
BRANCH   1  14
ATOM     13  N   UNL     1       5.681   1.688  -0.043  0.00  0.00    -0.187 NA
ATOM     14  C   UNL     1       6.357   2.798  -0.044  0.00  0.00    +0.142 C 
BRANCH  13  17
ATOM     15  C   UNL     1       3.580   0.569  -0.029  0.00  0.00    +0.267 C 
ATOM     16  O   UNL     1       4.164  -0.498  -0.040  0.00  0.00    -0.268 OA
ATOM     17  N   UNL     1       4.281   1.721  -0.030  0.00  0.00    -0.203 N 
ATOM     18  H   UNL     1       3.815   2.572  -0.021  0.00  0.00    +0.178 HD
BRANCH  15  22
ATOM     19  C   UNL     1      -1.256   2.195   0.020  0.00  0.00    +0.086 C 
ATOM     20  C   UNL     1      -0.016   1.338   0.009  0.00  0.00    +0.103 A 
ATOM     21  C   UNL     1       1.246   1.795  -0.000  0.00  0.00    +0.057 A 
ATOM     22  C   UNL     1       2.107   0.603  -0.015  0.00  0.00    +0.079 A 
ATOM     23  C   UNL     1       1.257  -0.464  -0.012  0.00  0.00    +0.114 A 
ATOM     24  O   UNL     1       0.002  -0.004   0.002  0.00  0.00    -0.464 OA
ATOM     25  C   UNL     1       1.665  -1.915  -0.025  0.00  0.00    +0.087 C 
ENDBRANCH  15  22
ENDBRANCH  13  17
ENDBRANCH   1  14
BRANCH   5  26
ATOM     26  S   UNL     1       8.200   5.558  -0.046  0.00  0.00    -0.042 S 
BRANCH  26  27
ATOM     27  C   UNL     1       8.101   5.862  -1.779  0.00  0.00    +0.142 A 
ATOM     28  N   UNL     1       7.783   6.974  -2.404  0.00  0.00    -0.232 NA
ATOM     29  C   UNL     1       7.747   7.063  -3.751  0.00  0.00    +0.079 A 
ATOM     30  C   UNL     1       7.423   8.189  -4.543  0.00  0.00    +0.029 A 
ATOM     31  C   UNL     1       7.434   8.110  -5.911  0.00  0.00    +0.002 A 
ATOM     32  C   UNL     1       7.762   6.932  -6.566  0.00  0.00    +0.001 A 
ATOM     33  C   UNL     1       8.085   5.811  -5.823  0.00  0.00    +0.017 A 
ATOM     34  C   UNL     1       8.076   5.881  -4.453  0.00  0.00    +0.040 A 
ATOM     35  S   UNL     1       8.416   4.740  -3.134  0.00  0.00    -0.061 S 
ENDBRANCH  26  27
ENDBRANCH   5  26
TORSDOF 6
