REMARK  Name = ZINC00845135
REMARK  14 active torsions:
REMARK  status: ('A' for Active; 'I' for Inactive)
REMARK    1  A    between atoms: C_1  and  C_2
REMARK    2  A    between atoms: C_2  and  O_3
REMARK    3  A    between atoms: O_3  and  C_4
REMARK    4  A    between atoms: C_4  and  C_6
REMARK    5  A    between atoms: C_10  and  N_11
REMARK    6  A    between atoms: C_12  and  C_14
REMARK    7  A    between atoms: C_14  and  N_15
REMARK    8  A    between atoms: C_16  and  C_24
REMARK    9  A    between atoms: C_17  and  N_21
REMARK   10  A    between atoms: C_18  and  C_20
REMARK   11  A    between atoms: C_26  and  C_30
REMARK   12  A    between atoms: C_30  and  C_31
REMARK   13  A    between atoms: C_30  and  C_32
REMARK   14  A    between atoms: C_30  and  C_33
REMARK                            x       y       z     vdW  Elec       q    Type
REMARK                         _______ _______ _______ _____ _____    ______ ____
ROOT
ATOM      1  C   UNL     1       1.358  -0.302  -0.013  0.00  0.00    +0.091 A 
ATOM      2  C   UNL     1       2.290   0.814  -0.016  0.00  0.00    -0.021 A 
ATOM      3  C   UNL     1       1.722   2.038  -0.003  0.00  0.00    -0.004 A 
ATOM      4  S   UNL     1      -0.021   1.728   0.011  0.00  0.00    -0.077 S 
ATOM      5  C   UNL     1       0.002  -0.004   0.002  0.00  0.00    +0.086 A 
ATOM      6  C   UNL     1       2.425   3.361  -0.002  0.00  0.00    +0.046 C 
ATOM      7  C   UNL     1       3.898   3.125   0.360  0.00  0.00    -0.000 C 
ATOM      8  C   UNL     1       4.436   1.969  -0.488  0.00  0.00    +0.009 C 
ATOM      9  C   UNL     1       3.805   0.652  -0.032  0.00  0.00    +0.037 C 
ENDROOT
BRANCH   5  10
ATOM     10  N   UNL     1      -1.072  -0.880   0.008  0.00  0.00    -0.278 N 
ATOM     11  C   UNL     1      -2.332  -0.402   0.022  0.00  0.00    +0.239 C 
ATOM     12  O   UNL     1      -2.526   0.796   0.030  0.00  0.00    -0.273 OA
ATOM     13  H   UNL     1      -0.917  -1.838   0.001  0.00  0.00    +0.155 HD
BRANCH  11  14
ATOM     14  C   UNL     1      -3.500  -1.354   0.028  0.00  0.00    +0.239 C 
BRANCH  14  15
ATOM     15  N   UNL     1      -4.751  -0.592   0.044  0.00  0.00    -0.257 N 
ATOM     16  C   UNL     1      -5.439  -0.174  -1.039  0.00  0.00    +0.067 A 
ATOM     17  C   UNL     1      -6.533   0.492  -0.601  0.00  0.00    +0.169 A 
ATOM     18  C   UNL     1      -6.512   0.480   0.798  0.00  0.00    +0.090 A 
ATOM     19  N   UNL     1      -5.447  -0.175   1.185  0.00  0.00    -0.173 NA
ATOM     20  C   UNL     1      -7.542   1.107   1.702  0.00  0.00    +0.070 C 
ATOM     21  C   UNL     1      -5.059  -0.407  -2.478  0.00  0.00    +0.068 C 
BRANCH  17  22
ATOM     22  N   UNL     1      -7.569   1.121  -1.451  0.00  0.00    +0.060 N 
ATOM     23  O   UNL     1      -8.543   0.478  -1.800  0.00  0.00    -0.126 OA
ATOM     24  O   UNL     1      -7.447   2.281  -1.801  0.00  0.00    -0.126 OA
ENDBRANCH  17  22
ENDBRANCH  14  15
ENDBRANCH  11  14
ENDBRANCH   5  10
BRANCH   7  25
ATOM     25  C   UNL     1       4.706   4.392   0.073  0.00  0.00    -0.035 C 
ATOM     26  C   UNL     1       4.156   5.549   0.909  0.00  0.00    +0.011 C 
ATOM     27  C   UNL     1       6.174   4.154   0.435  0.00  0.00    +0.011 C 
ATOM     28  C   UNL     1       4.598   4.739  -1.413  0.00  0.00    +0.011 C 
ENDBRANCH   7  25
BRANCH   1  29
ATOM     29  C   UNL     1       1.832  -1.688  -0.025  0.00  0.00    +0.342 C 
ATOM     30  O   UNL     1       2.018  -2.257  -1.084  0.00  0.00    -0.245 OA
BRANCH  29  31
ATOM     31  O   UNL     1       2.062  -2.332   1.137  0.00  0.00    -0.461 OA
BRANCH  31  33
ATOM     32  C   UNL     1       2.733  -4.265   2.458  0.00  0.00    +0.048 C 
ATOM     33  C   UNL     1       2.530  -3.704   1.049  0.00  0.00    +0.229 C 
ENDBRANCH  31  33
ENDBRANCH  29  31
ENDBRANCH   1  29
TORSDOF 8
