REMARK  Name = ZINC22069500
REMARK  13 active torsions:
REMARK  status: ('A' for Active; 'I' for Inactive)
REMARK    1  A    between atoms: C_1  and  C_2
REMARK    2  A    between atoms: C_2  and  N_3
REMARK    3  A    between atoms: N_3  and  C_4
REMARK    4  A    between atoms: N_3  and  S_6
REMARK    5  A    between atoms: C_4  and  C_5
REMARK    6  A    between atoms: S_6  and  C_9
REMARK    7  A    between atoms: C_15  and  S_18
REMARK    8  A    between atoms: S_18  and  C_19
REMARK    9  A    between atoms: C_19  and  C_21
REMARK   10  A    between atoms: C_19  and  C_22
REMARK   11  A    between atoms: N_24  and  C_25
REMARK   12  A    between atoms: C_27  and  C_32
REMARK   13  A    between atoms: C_30  and  C_31
REMARK                            x       y       z     vdW  Elec       q    Type
REMARK                         _______ _______ _______ _____ _____    ______ ____
ROOT
ATOM      1  C   UNL     1       2.413  -1.442 -10.596  0.00  0.00    +0.122 A 
ATOM      2  C   UNL     1       2.368  -0.287 -11.399  0.00  0.00    +0.033 A 
ATOM      3  C   UNL     1       1.883   0.875 -10.887  0.00  0.00    +0.050 A 
ATOM      4  C   UNL     1       1.443   0.907  -9.548  0.00  0.00    +0.162 A 
ATOM      5  N   UNL     1       0.948   1.857  -8.777  0.00  0.00    -0.129 NA
ATOM      6  N   UNL     1       0.696   1.379  -7.609  0.00  0.00    -0.122 NA
ATOM      7  C   UNL     1       1.012   0.104  -7.560  0.00  0.00    +0.197 A 
ATOM      8  N   UNL     1       1.503  -0.240  -8.785  0.00  0.00    -0.276 N 
ATOM      9  C   UNL     1       1.985  -1.402  -9.318  0.00  0.00    +0.123 A 
ENDROOT
BRANCH   1  10
ATOM     10  S   UNL     1       3.032  -2.950 -11.265  0.00  0.00    +0.062 S 
ATOM     11  O   UNL     1       3.887  -2.595 -12.343  0.00  0.00    -0.153 OA
ATOM     12  O   UNL     1       3.478  -3.730 -10.165  0.00  0.00    -0.153 OA
BRANCH  10  13
ATOM     13  N   UNL     1       1.745  -3.756 -11.927  0.00  0.00    -0.177 NA
BRANCH  13  15
ATOM     14  C   UNL     1       2.038  -4.610 -14.200  0.00  0.00    +0.022 C 
ATOM     15  C   UNL     1       1.385  -3.535 -13.329  0.00  0.00    +0.106 C 
ENDBRANCH  13  15
BRANCH  13  16
ATOM     16  C   UNL     1       0.968  -4.691 -11.110  0.00  0.00    +0.106 C 
ATOM     17  C   UNL     1      -0.251  -3.970 -10.530  0.00  0.00    +0.022 C 
ENDBRANCH  13  16
ENDBRANCH  10  13
ENDBRANCH   1  10
BRANCH   7  18
ATOM     18  S   UNL     1       0.841  -0.961  -6.167  0.00  0.00    -0.073 S 
BRANCH  18  19
ATOM     19  C   UNL     1       0.146   0.110  -4.878  0.00  0.00    +0.137 C 
ATOM     20  C   UNL     1      -1.254   0.566  -5.294  0.00  0.00    +0.029 C 
BRANCH  19  21
ATOM     21  C   UNL     1       0.061  -0.653  -3.582  0.00  0.00    +0.230 C 
ATOM     22  O   UNL     1       0.078  -1.866  -3.590  0.00  0.00    -0.274 OA
ATOM     23  N   UNL     1      -0.033   0.011  -2.413  0.00  0.00    -0.284 N 
ATOM     24  H   UNL     1      -0.139   1.106  -2.410  0.00  0.00    +0.155 HD
BRANCH  23  25
ATOM     25  C   UNL     1       0.005  -0.692  -1.203  0.00  0.00    +0.037 A 
ATOM     26  C   UNL     1       0.631  -1.930  -1.137  0.00  0.00    +0.027 A 
ATOM     27  C   UNL     1       0.661  -2.624   0.056  0.00  0.00    -0.049 A 
ATOM     28  C   UNL     1       0.074  -2.084   1.187  0.00  0.00    +0.004 A 
ATOM     29  C   UNL     1      -0.545  -0.849   1.125  0.00  0.00    +0.005 A 
ATOM     30  C   UNL     1      -0.579  -0.151  -0.066  0.00  0.00    -0.029 A 
ATOM     31  C   UNL     1      -1.255   1.195  -0.132  0.00  0.00    +0.045 C 
ATOM     32  C   UNL     1       1.335  -3.970   0.128  0.00  0.00    +0.044 C 
ENDBRANCH  23  25
ENDBRANCH  19  21
ENDBRANCH  18  19
ENDBRANCH   7  18
TORSDOF 8
