REMARK  Name = ZINC39920598
REMARK  9 active torsions:
REMARK  status: ('A' for Active; 'I' for Inactive)
REMARK    1  A    between atoms: C_1  and  C_2
REMARK    2  A    between atoms: C_7  and  O_8
REMARK    3  A    between atoms: O_8  and  C_9
REMARK    4  A    between atoms: C_9  and  C_11
REMARK    5  A    between atoms: C_9  and  C_12
REMARK    6  A    between atoms: N_14  and  N_15
REMARK    7  A    between atoms: C_16  and  C_28
REMARK    8  A    between atoms: C_31  and  O_34
REMARK    9  A    between atoms: O_34  and  C_35
REMARK                            x       y       z     vdW  Elec       q    Type
REMARK                         _______ _______ _______ _____ _____    ______ ____
ROOT
ATOM      1  N   UNL     1      -2.159   0.104   6.848  0.00  0.00    -0.191 N 
ATOM      2  C   UNL     1      -1.334   0.633   7.934  0.00  0.00    +0.212 C 
ATOM      3  N   UNL     1      -2.060   0.560   9.207  0.00  0.00    -0.320 N 
ATOM      4  C   UNL     1      -3.393   0.955   9.235  0.00  0.00    +0.041 A 
ATOM      5  C   UNL     1      -3.975   1.493  10.369  0.00  0.00    +0.025 A 
ATOM      6  C   UNL     1      -5.303   1.873  10.342  0.00  0.00    +0.017 A 
ATOM      7  C   UNL     1      -6.057   1.719   9.188  0.00  0.00    +0.019 A 
ATOM      8  C   UNL     1      -5.492   1.183   8.049  0.00  0.00    +0.030 A 
ATOM      9  C   UNL     1      -4.155   0.795   8.063  0.00  0.00    +0.060 A 
ATOM     10  C   UNL     1      -3.504   0.214   6.875  0.00  0.00    +0.267 C 
ATOM     11  O   UNL     1      -4.171  -0.166   5.932  0.00  0.00    -0.268 OA
ATOM     12 BR   UNL     1      -7.873   2.247   9.177  0.00  0.00    -0.050 Br
ATOM     13  H   UNL     1      -1.621   0.243  10.012  0.00  0.00    +0.148 HD
ENDROOT
BRANCH   2  14
ATOM     14  C   UNL     1      -0.986   2.070   7.643  0.00  0.00    -0.008 A 
ATOM     15  C   UNL     1       0.336   2.475   7.647  0.00  0.00    +0.011 A 
ATOM     16  C   UNL     1       0.657   3.792   7.381  0.00  0.00    +0.046 A 
ATOM     17  C   UNL     1      -0.348   4.708   7.108  0.00  0.00    +0.120 A 
ATOM     18  C   UNL     1      -1.674   4.299   7.104  0.00  0.00    +0.046 A 
ATOM     19  C   UNL     1      -1.990   2.980   7.365  0.00  0.00    +0.011 A 
BRANCH  17  20
ATOM     20  O   UNL     1      -0.035   6.004   6.847  0.00  0.00    -0.495 OA
ATOM     21  C   UNL     1      -1.121   6.892   6.575  0.00  0.00    +0.277 C 
ENDBRANCH  17  20
ENDBRANCH   2  14
BRANCH   1  24
ATOM     22  C   UNL     1      -1.440   0.124   4.579  0.00  0.00    +0.270 C 
ATOM     23  O   UNL     1      -1.803   1.278   4.486  0.00  0.00    -0.270 OA
ATOM     24  N   UNL     1      -1.542  -0.522   5.757  0.00  0.00    -0.227 N 
ATOM     25  H   UNL     1      -1.189  -1.421   5.850  0.00  0.00    +0.173 HD
BRANCH  22  26
ATOM     26  C   UNL     1      -0.873  -0.586   3.377  0.00  0.00    +0.257 C 
ATOM     27  C   UNL     1       0.558  -1.036   3.678  0.00  0.00    +0.062 C 
BRANCH  26  28
ATOM     28  O   UNL     1      -0.868   0.302   2.257  0.00  0.00    -0.480 OA
BRANCH  28  35
ATOM     29  C   UNL     1      -1.096   2.034   0.038  0.00  0.00    +0.047 C 
ATOM     30  C   UNL     1      -1.004   0.537  -0.106  0.00  0.00    -0.009 A 
ATOM     31  C   UNL     1      -1.025  -0.039  -1.362  0.00  0.00    +0.007 A 
ATOM     32  C   UNL     1      -0.941  -1.413  -1.494  0.00  0.00    +0.000 A 
ATOM     33  C   UNL     1      -0.837  -2.213  -0.372  0.00  0.00    +0.004 A 
ATOM     34  C   UNL     1      -0.816  -1.642   0.886  0.00  0.00    +0.046 A 
ATOM     35  C   UNL     1      -0.894  -0.263   1.021  0.00  0.00    +0.124 A 
ENDBRANCH  28  35
ENDBRANCH  26  28
ENDBRANCH  22  26
ENDBRANCH   1  24
TORSDOF 6
