REMARK  Name = ZINC21729672
REMARK  7 active torsions:
REMARK  status: ('A' for Active; 'I' for Inactive)
REMARK    1  A    between atoms: C_5  and  C_7
REMARK    2  A    between atoms: C_7  and  N_8
REMARK    3  A    between atoms: C_11  and  C_14
REMARK    4  A    between atoms: C_14  and  N_15
REMARK    5  A    between atoms: C_16  and  C_18
REMARK    6  A    between atoms: C_21  and  C_24
REMARK    7  A    between atoms: C_24  and  N_25
REMARK                            x       y       z     vdW  Elec       q    Type
REMARK                         _______ _______ _______ _____ _____    ______ ____
ROOT
ATOM      1  N   UNL     1      -5.236   0.117   3.277  0.00  0.00    -0.315 N 
ATOM      2  C   UNL     1      -4.819   1.328   2.858  0.00  0.00    +0.216 C 
ATOM      3  O   UNL     1      -5.325   1.839   1.881  0.00  0.00    -0.276 OA
ATOM      4  H   UNL     1      -4.777  -0.347   4.163  0.00  0.00    +0.149 HD
ENDROOT
BRANCH   2   5
ATOM      5  C   UNL     1      -3.723   2.047   3.602  0.00  0.00    +0.075 C 
ATOM      6  C   UNL     1      -3.442   3.389   2.924  0.00  0.00    +0.013 C 
ATOM      7  C   UNL     1      -3.003   3.148   1.478  0.00  0.00    +0.006 C 
ATOM      8  C   UNL     1      -1.734   2.295   1.465  0.00  0.00    +0.009 C 
ATOM      9  C   UNL     1      -2.014   0.953   2.143  0.00  0.00    +0.006 C 
ATOM     10  C   UNL     1      -2.453   1.193   3.589  0.00  0.00    +0.013 C 
BRANCH   8  11
ATOM     11  C   UNL     1      -1.295   2.054   0.019  0.00  0.00    +0.133 C 
BRANCH  11  12
ATOM     12  N   UNL     1      -0.016   1.340   0.009  0.00  0.00    -0.260 N 
ATOM     13  C   UNL     1       1.145   2.033   0.002  0.00  0.00    +0.271 A 
ATOM     14  O   UNL     1       1.137   3.251   0.008  0.00  0.00    -0.266 OA
ATOM     15  C   UNL     1       2.354   1.331  -0.013  0.00  0.00    +0.100 A 
ATOM     16  C   UNL     1       2.389  -0.066  -0.021  0.00  0.00    +0.063 A 
ATOM     17  C   UNL     1       3.666  -0.619  -0.035  0.00  0.00    +0.034 A 
ATOM     18  C   UNL     1       4.752   0.188  -0.041  0.00  0.00    +0.048 A 
ATOM     19  S   UNL     1       4.069   1.782  -0.026  0.00  0.00    -0.090 S 
ATOM     20  N   UNL     1       1.141  -0.712  -0.012  0.00  0.00    -0.307 N 
ATOM     21  H   UNL     1       1.091  -1.810  -0.017  0.00  0.00    +0.170 HD
ATOM     22  C   UNL     1       0.002  -0.004   0.002  0.00  0.00    +0.330 A 
ATOM     23  O   UNL     1      -1.057  -0.602   0.009  0.00  0.00    -0.246 OA
ENDBRANCH  11  12
ENDBRANCH   8  11
ENDBRANCH   2   5
BRANCH   1  24
ATOM     24  C   UNL     1      -6.301  -0.582   2.554  0.00  0.00    +0.107 C 
BRANCH  24  28
ATOM     25  N   UNL     1      -6.812  -4.797   3.046  0.00  0.00    +0.382 N 
ATOM     26  C   UNL     1      -8.015  -3.969   3.196  0.00  0.00    -0.078 C 
ATOM     27  C   UNL     1      -7.777  -2.600   2.554  0.00  0.00    -0.014 C 
ATOM     28  C   UNL     1      -6.582  -1.925   3.232  0.00  0.00    +0.003 C 
ATOM     29  C   UNL     1      -5.354  -2.830   3.104  0.00  0.00    -0.014 C 
ATOM     30  C   UNL     1      -5.662  -4.192   3.730  0.00  0.00    -0.078 C 
ATOM     31  H   UNL     1      -6.574  -4.851   1.974  0.00  0.00    -0.081 HD
BRANCH  25  32
ATOM     32  C   UNL     1      -7.051  -6.164   3.528  0.00  0.00    -0.040 C 
BRANCH  32  37
ATOM     33  C   UNL     1      -4.929  -8.680   1.677  0.00  0.00    +0.000 A 
ATOM     34  C   UNL     1      -3.763  -8.659   2.421  0.00  0.00    +0.003 A 
ATOM     35  C   UNL     1      -3.659  -7.832   3.522  0.00  0.00    +0.038 A 
ATOM     36  C   UNL     1      -4.724  -7.023   3.882  0.00  0.00    +0.125 A 
ATOM     37  C   UNL     1      -5.891  -7.044   3.138  0.00  0.00    -0.029 A 
ATOM     38  C   UNL     1      -5.994  -7.877   2.039  0.00  0.00    +0.004 A 
ATOM     39  F   UNL     1      -4.625  -6.213   4.960  0.00  0.00    -0.205 F 
ENDBRANCH  32  37
ENDBRANCH  25  32
ENDBRANCH  24  28
ENDBRANCH   1  24
TORSDOF 7
