REMARK  Name = ZINC28640956
REMARK  2 active torsions:
REMARK  status: ('A' for Active; 'I' for Inactive)
REMARK    1  A    between atoms: C_14  and  C_23
REMARK    2  A    between atoms: C_17  and  C_19
REMARK                            x       y       z     vdW  Elec       q    Type
REMARK                         _______ _______ _______ _____ _____    ______ ____
ROOT
ATOM      1  C   UNL     1      -0.017   1.379   0.010  0.00  0.00    +0.000 A 
ATOM      2  C   UNL     1       1.168   2.094   0.002  0.00  0.00    +0.001 A 
ATOM      3  C   UNL     1       2.378   1.429  -0.024  0.00  0.00    +0.010 A 
ATOM      4  C   UNL     1       2.401   0.039  -0.048  0.00  0.00    +0.002 A 
ATOM      5  C   UNL     1       1.206  -0.678  -0.017  0.00  0.00    -0.038 A 
ATOM      6  C   UNL     1       0.002  -0.004   0.002  0.00  0.00    +0.004 A 
ATOM      7  C   UNL     1       1.238  -2.183   0.022  0.00  0.00    +0.040 C 
ATOM      8  C   UNL     1       2.410  -2.705  -0.806  0.00  0.00    +0.040 C 
ATOM      9  C   UNL     1       3.682  -2.001  -0.432  0.00  0.00    -0.015 C 
ATOM     10  C   UNL     1       3.688  -0.701  -0.085  0.00  0.00    +0.049 C 
ATOM     11  N   UNL     1       4.844  -0.061   0.226  0.00  0.00    -0.342 N 
ATOM     12  C   UNL     1       6.024  -0.624   0.233  0.00  0.00    +0.118 C 
ATOM     13  C   UNL     1       7.363  -0.103   0.533  0.00  0.00    +0.075 C 
ATOM     14  C   UNL     1       8.242  -1.127   0.388  0.00  0.00    +0.137 C 
ATOM     15  N   UNL     1       7.548  -2.267   0.015  0.00  0.00    -0.256 N 
ATOM     16  N   UNL     1       6.191  -1.961  -0.084  0.00  0.00    -0.222 N 
ATOM     17  C   UNL     1       5.000  -2.747  -0.439  0.00  0.00    +0.227 C 
ATOM     18  H   UNL     1       7.942  -3.138  -0.151  0.00  0.00    +0.170 HD
ATOM     19  H   UNL     1       4.790   0.878   0.460  0.00  0.00    +0.167 HD
ENDROOT
BRANCH  17  20
ATOM     20  C   UNL     1       5.213  -3.325  -1.840  0.00  0.00    +0.413 C 
ATOM     21  F   UNL     1       5.242  -2.285  -2.775  0.00  0.00    -0.168 F 
ATOM     22  F   UNL     1       6.426  -4.021  -1.878  0.00  0.00    -0.168 F 
ATOM     23  F   UNL     1       4.164  -4.199  -2.147  0.00  0.00    -0.168 F 
ENDBRANCH  17  20
BRANCH  14  24
ATOM     24  C   UNL     1       9.698  -1.040   0.594  0.00  0.00    +0.402 C 
ATOM     25  O   UNL     1      10.207   0.022   0.924  0.00  0.00    -0.239 OA
ATOM     26  O   UNL     1      10.399  -2.030   0.434  0.00  0.00    -0.239 OA
ENDBRANCH  14  24
TORSDOF 2
