REMARK  Name = ZINC39663776
REMARK  13 active torsions:
REMARK  status: ('A' for Active; 'I' for Inactive)
REMARK    1  A    between atoms: C_1  and  C_2
REMARK    2  A    between atoms: C_2  and  C_4
REMARK    3  A    between atoms: C_2  and  O_34
REMARK    4  A    between atoms: C_8  and  C_17
REMARK    5  A    between atoms: N_19  and  C_20
REMARK    6  A    between atoms: C_20  and  C_21
REMARK    7  A    between atoms: C_21  and  C_23
REMARK    8  A    between atoms: C_21  and  N_31
REMARK    9  A    between atoms: C_26  and  O_29
REMARK   10  A    between atoms: O_29  and  C_30
REMARK   11  A    between atoms: N_31  and  C_32
REMARK   12  A    between atoms: N_31  and  C_33
REMARK   13  A    between atoms: O_34  and  C_35
REMARK                            x       y       z     vdW  Elec       q    Type
REMARK                         _______ _______ _______ _____ _____    ______ ____
ROOT
ATOM      1  C   UNL     1      -0.783  -4.080  -2.425  0.00  0.00    +0.256 C 
ATOM      2  O   UNL     1      -1.147  -4.884  -1.592  0.00  0.00    -0.272 OA
ATOM      3  N   UNL     1      -1.682  -3.266  -3.013  0.00  0.00    -0.297 N 
ATOM      4  C   UNL     1      -1.433  -2.234  -4.047  0.00  0.00    +0.121 C 
ATOM      5  C   UNL     1      -2.636  -2.348  -5.010  0.00  0.00    +0.100 C 
ATOM      6  C   UNL     1      -3.756  -2.981  -4.166  0.00  0.00    -0.004 C 
ATOM      7  C   UNL     1      -3.144  -3.204  -2.775  0.00  0.00    +0.115 C 
ATOM      8  C   UNL     1      -4.182  -4.316  -4.769  0.00  0.00    -0.010 C 
ATOM      9  C   UNL     1      -5.334  -4.898  -3.945  0.00  0.00    -0.082 C 
ATOM     10  N   UNL     1      -6.461  -3.957  -3.943  0.00  0.00    +0.379 N 
ATOM     11  C   UNL     1      -6.069  -2.708  -3.278  0.00  0.00    -0.082 C 
ATOM     12  C   UNL     1      -4.948  -2.034  -4.074  0.00  0.00    -0.010 C 
ATOM     13  H   UNL     1      -6.733  -3.759  -4.894  0.00  0.00    -0.086 HD
ATOM     14  H   UNL     1      -7.240  -4.368  -3.452  0.00  0.00    -0.086 HD
ENDROOT
BRANCH   5  15
ATOM     15  C   UNL     1      -3.050  -0.984  -5.496  0.00  0.00    +0.218 C 
ATOM     16  O   UNL     1      -2.889  -0.012  -4.788  0.00  0.00    -0.275 OA
ATOM     17  N   UNL     1      -3.600  -0.842  -6.719  0.00  0.00    -0.316 N 
ATOM     18  H   UNL     1      -3.729  -1.619  -7.285  0.00  0.00    +0.149 HD
BRANCH  17  19
ATOM     19  C   UNL     1      -4.002   0.485  -7.192  0.00  0.00    +0.093 C 
BRANCH  19  20
ATOM     20  C   UNL     1      -4.711   0.352  -8.541  0.00  0.00    -0.021 C 
BRANCH  20  21
ATOM     21  C   UNL     1      -5.988  -0.427  -8.363  0.00  0.00    -0.059 A 
ATOM     22  C   UNL     1      -7.119   0.202  -7.876  0.00  0.00    +0.005 A 
ATOM     23  C   UNL     1      -8.291  -0.510  -7.712  0.00  0.00    +0.046 A 
ATOM     24  C   UNL     1      -8.333  -1.858  -8.036  0.00  0.00    +0.120 A 
ATOM     25  C   UNL     1      -7.198  -2.488  -8.525  0.00  0.00    +0.046 A 
ATOM     26  C   UNL     1      -6.029  -1.770  -8.693  0.00  0.00    +0.005 A 
BRANCH  24  27
ATOM     27  O   UNL     1      -9.485  -2.561  -7.875  0.00  0.00    -0.495 OA
ATOM     28  C   UNL     1      -9.455  -3.945  -8.229  0.00  0.00    +0.277 C 
ENDBRANCH  24  27
ENDBRANCH  20  21
BRANCH  20  29
ATOM     29  N   UNL     1      -5.022   1.689  -9.065  0.00  0.00    +0.382 N 
ATOM     30  C   UNL     1      -3.776   2.448  -9.241  0.00  0.00    -0.096 C 
ATOM     31  C   UNL     1      -5.705   1.561 -10.359  0.00  0.00    -0.096 C 
ATOM     32  H   UNL     1      -5.622   2.174  -8.414  0.00  0.00    -0.082 HD
ENDBRANCH  20  29
ENDBRANCH  19  20
ENDBRANCH  17  19
ENDBRANCH   5  15
BRANCH   1  34
ATOM     33  C   UNL     1       1.227  -2.629  -2.386  0.00  0.00    +0.062 C 
ATOM     34  C   UNL     1       0.673  -3.993  -2.803  0.00  0.00    +0.256 C 
BRANCH  34  35
ATOM     35  O   UNL     1       1.401  -5.026  -2.136  0.00  0.00    -0.480 OA
BRANCH  35  36
ATOM     36  C   UNL     1       2.564  -5.430  -2.711  0.00  0.00    +0.122 A 
ATOM     37  C   UNL     1       3.267  -6.502  -2.179  0.00  0.00    +0.045 A 
ATOM     38  C   UNL     1       4.449  -6.910  -2.765  0.00  0.00    +0.004 A 
ATOM     39  C   UNL     1       4.933  -6.253  -3.881  0.00  0.00    +0.000 A 
ATOM     40  C   UNL     1       4.235  -5.184  -4.413  0.00  0.00    +0.004 A 
ATOM     41  C   UNL     1       3.049  -4.776  -3.834  0.00  0.00    +0.045 A 
ENDBRANCH  35  36
ENDBRANCH  34  35
ENDBRANCH   1  34
TORSDOF 9
