REMARK  Name = ZINC35078418
REMARK  12 active torsions:
REMARK  status: ('A' for Active; 'I' for Inactive)
REMARK    1  A    between atoms: C_1  and  C_2
REMARK    2  A    between atoms: C_4  and  C_36
REMARK    3  A    between atoms: C_6  and  N_8
REMARK    4  A    between atoms: N_8  and  S_9
REMARK    5  A    between atoms: S_9  and  C_12
REMARK    6  A    between atoms: C_15  and  N_18
REMARK    7  A    between atoms: C_19  and  C_21
REMARK    8  A    between atoms: C_21  and  O_22
REMARK    9  A    between atoms: O_22  and  C_23
REMARK   10  A    between atoms: C_23  and  C_25
REMARK   11  A    between atoms: C_26  and  C_27
REMARK   12  A    between atoms: C_30  and  N_33
REMARK                            x       y       z     vdW  Elec       q    Type
REMARK                         _______ _______ _______ _____ _____    ______ ____
ROOT
ATOM      1  N   UNL     1       0.119  -5.797   8.176  0.00  0.00    -0.283 N 
ATOM      2  C   UNL     1      -0.924  -6.632   8.349  0.00  0.00    +0.255 C 
ATOM      3  O   UNL     1      -1.837  -6.635   7.550  0.00  0.00    -0.272 OA
ATOM      4  H   UNL     1       0.884  -5.847   8.770  0.00  0.00    +0.155 HD
ENDROOT
BRANCH   1   8
ATOM      5  C   UNL     1       0.060  -2.998   5.090  0.00  0.00    +0.111 A 
ATOM      6  C   UNL     1      -1.117  -3.353   5.722  0.00  0.00    +0.031 A 
ATOM      7  C   UNL     1      -1.101  -4.281   6.746  0.00  0.00    +0.025 A 
ATOM      8  C   UNL     1       0.099  -4.857   7.139  0.00  0.00    +0.034 A 
ATOM      9  C   UNL     1       1.280  -4.499   6.502  0.00  0.00    +0.025 A 
ATOM     10  C   UNL     1       1.256  -3.575   5.476  0.00  0.00    +0.031 A 
BRANCH   5  11
ATOM     11  S   UNL     1       0.035  -1.815   3.785  0.00  0.00    +0.094 S 
ATOM     12  O   UNL     1       1.339  -1.254   3.720  0.00  0.00    -0.148 OA
ATOM     13  O   UNL     1      -1.127  -1.020   3.980  0.00  0.00    -0.148 OA
BRANCH  11  14
ATOM     14  N   UNL     1      -0.193  -2.648   2.373  0.00  0.00    -0.058 NA
BRANCH  14  20
ATOM     15  C   UNL     1      -0.043   1.533   0.038  0.00  0.00    +0.066 C 
ATOM     16  C   UNL     1      -0.186   0.033   0.033  0.00  0.00    +0.044 A 
ATOM     17  C   UNL     1      -0.376  -0.649  -1.158  0.00  0.00    +0.046 A 
ATOM     18  C   UNL     1      -0.502  -2.029  -1.118  0.00  0.00    +0.044 A 
ATOM     19  N   UNL     1      -0.438  -2.650   0.049  0.00  0.00    -0.217 NA
ATOM     20  C   UNL     1      -0.255  -1.967   1.169  0.00  0.00    +0.258 A 
ATOM     21  N   UNL     1      -0.126  -0.649   1.165  0.00  0.00    -0.217 NA
ATOM     22  C   UNL     1      -0.711  -2.813  -2.388  0.00  0.00    +0.066 C 
ENDBRANCH  14  20
ENDBRANCH  11  14
ENDBRANCH   5  11
ENDBRANCH   1   8
BRANCH   2  23
ATOM     23  C   UNL     1      -0.957  -7.562   9.534  0.00  0.00    +0.328 C 
BRANCH  23  24
ATOM     24  O   UNL     1      -2.155  -8.340   9.497  0.00  0.00    -0.452 OA
BRANCH  24  25
ATOM     25  C   UNL     1      -2.340  -9.228  10.495  0.00  0.00    +0.332 C 
ATOM     26  O   UNL     1      -1.506  -9.339  11.373  0.00  0.00    -0.246 OA
BRANCH  25  27
ATOM     27  C   UNL     1      -3.543 -10.059  10.521  0.00  0.00    +0.092 C 
ATOM     28  C   UNL     1      -3.728 -10.947  11.519  0.00  0.00    +0.015 C 
BRANCH  28  29
ATOM     29  C   UNL     1      -4.940 -11.783  11.545  0.00  0.00    -0.025 A 
ATOM     30  C   UNL     1      -5.899 -11.663  10.534  0.00  0.00    +0.010 A 
ATOM     31  C   UNL     1      -7.030 -12.449  10.566  0.00  0.00    +0.033 A 
ATOM     32  C   UNL     1      -7.219 -13.356  11.594  0.00  0.00    +0.126 A 
ATOM     33  C   UNL     1      -6.275 -13.481  12.599  0.00  0.00    +0.033 A 
ATOM     34  C   UNL     1      -5.135 -12.706  12.578  0.00  0.00    +0.010 A 
BRANCH  32  35
ATOM     35  N   UNL     1      -8.437 -14.197  11.620  0.00  0.00    +0.056 N 
ATOM     36  O   UNL     1      -9.264 -14.091  10.745  0.00  0.00    -0.126 OA
ATOM     37  O   UNL     1      -8.605 -14.990  12.517  0.00  0.00    -0.126 OA
ENDBRANCH  32  35
ENDBRANCH  28  29
ENDBRANCH  25  27
ENDBRANCH  24  25
ENDBRANCH  23  24
ENDBRANCH   2  23
TORSDOF 10
