REMARK  Name = ZINC56762085
REMARK  7 active torsions:
REMARK  status: ('A' for Active; 'I' for Inactive)
REMARK    1  A    between atoms: C_1  and  C_2
REMARK    2  A    between atoms: C_2  and  C_4
REMARK    3  A    between atoms: C_2  and  N_12
REMARK    4  A    between atoms: C_4  and  C_5
REMARK    5  A    between atoms: C_8  and  O_11
REMARK    6  A    between atoms: N_15  and  N_16
REMARK    7  A    between atoms: N_16  and  C_17
REMARK                            x       y       z     vdW  Elec       q    Type
REMARK                         _______ _______ _______ _____ _____    ______ ____
ROOT
ATOM      1  N   UNL     1       0.762  -0.103   1.357  0.00  0.00    -0.295 N 
ATOM      2  C   UNL     1       2.091  -0.318   1.296  0.00  0.00    +0.316 C 
ATOM      3  O   UNL     1       2.725   0.063   0.331  0.00  0.00    -0.251 OA
ATOM      4  N   UNL     1       2.717  -0.957   2.304  0.00  0.00    -0.220 N 
ATOM      5  H   UNL     1       0.257  -0.407   2.127  0.00  0.00    +0.151 HD
ATOM      6  H   UNL     1       3.674  -1.112   2.260  0.00  0.00    +0.174 HD
ENDROOT
BRANCH   1   8
ATOM      7  C   UNL     1       0.188   2.103   0.470  0.00  0.00    +0.028 C 
ATOM      8  C   UNL     1       0.081   0.591   0.261  0.00  0.00    +0.076 C 
BRANCH   8   9
ATOM      9  C   UNL     1      -1.393   0.183   0.237  0.00  0.00    +0.057 C 
BRANCH   9  10
ATOM     10  C   UNL     1      -1.502  -1.284  -0.091  0.00  0.00    -0.045 A 
ATOM     11  C   UNL     1      -1.601  -1.692  -1.408  0.00  0.00    +0.007 A 
ATOM     12  C   UNL     1      -1.702  -3.036  -1.711  0.00  0.00    +0.045 A 
ATOM     13  C   UNL     1      -1.704  -3.977  -0.692  0.00  0.00    +0.117 A 
ATOM     14  C   UNL     1      -1.605  -3.566   0.629  0.00  0.00    +0.045 A 
ATOM     15  C   UNL     1      -1.499  -2.221   0.926  0.00  0.00    +0.007 A 
BRANCH  13  16
ATOM     16  O   UNL     1      -1.803  -5.300  -0.987  0.00  0.00    -0.507 OA
ATOM     17  H   UNL     1      -0.952  -5.738  -1.122  0.00  0.00    +0.292 HD
ENDBRANCH  13  16
ENDBRANCH   9  10
ENDBRANCH   8   9
ENDBRANCH   1   8
BRANCH   4  18
ATOM     18  N   UNL     1       1.987  -1.396   3.416  0.00  0.00    -0.258 N 
ATOM     19  H   UNL     1       1.021  -1.310   3.426  0.00  0.00    +0.170 HD
BRANCH  18  20
ATOM     20  C   UNL     1       2.652  -1.958   4.514  0.00  0.00    +0.121 A 
ATOM     21  C   UNL     1       3.898  -1.475   4.895  0.00  0.00    +0.186 A 
ATOM     22  C   UNL     1       4.554  -2.031   5.980  0.00  0.00    +0.198 A 
ATOM     23  C   UNL     1       3.968  -3.070   6.687  0.00  0.00    +0.199 A 
ATOM     24  C   UNL     1       2.725  -3.554   6.309  0.00  0.00    +0.198 A 
ATOM     25  C   UNL     1       2.064  -2.996   5.227  0.00  0.00    +0.186 A 
ATOM     26  F   UNL     1       0.851  -3.464   4.862  0.00  0.00    -0.200 F 
ATOM     27  F   UNL     1       2.156  -4.566   6.999  0.00  0.00    -0.199 F 
ATOM     28  F   UNL     1       4.610  -3.612   7.745  0.00  0.00    -0.199 F 
ATOM     29  F   UNL     1       5.766  -1.562   6.350  0.00  0.00    -0.199 F 
ATOM     30  F   UNL     1       4.470  -0.463   4.206  0.00  0.00    -0.200 F 
ENDBRANCH  18  20
ENDBRANCH   4  18
TORSDOF 6
