REMARK  Name = ZINC03401768
REMARK  7 active torsions:
REMARK  status: ('A' for Active; 'I' for Inactive)
REMARK    1  A    between atoms: C_1  and  C_2
REMARK    2  A    between atoms: C_9  and  C_19
REMARK    3  A    between atoms: C_12  and  C_13
REMARK    4  A    between atoms: N_21  and  C_22
REMARK    5  A    between atoms: C_23  and  C_35
REMARK    6  A    between atoms: N_24  and  C_34
REMARK    7  A    between atoms: N_25  and  C_28
REMARK                            x       y       z     vdW  Elec       q    Type
REMARK                         _______ _______ _______ _____ _____    ______ ____
ROOT
ATOM      1  C   UNL     1      -1.264   0.280  -1.411  0.00  0.00    +0.051 C 
ATOM      2  C   UNL     1      -0.116   1.218  -1.140  0.00  0.00    +0.040 A 
ATOM      3  C   UNL     1       1.214   0.735  -1.138  0.00  0.00    +0.196 A 
ATOM      4  O   UNL     1       1.463  -0.440  -1.354  0.00  0.00    -0.287 OA
ATOM      5  C   UNL     1       2.290   1.712  -0.871  0.00  0.00    +0.065 A 
ATOM      6  C   UNL     1       3.630   1.327  -0.855  0.00  0.00    +0.015 A 
ATOM      7  C   UNL     1       4.611   2.264  -0.603  0.00  0.00    +0.002 A 
ATOM      8  C   UNL     1       4.276   3.584  -0.365  0.00  0.00    +0.017 A 
ATOM      9  C   UNL     1       2.942   3.989  -0.377  0.00  0.00    +0.080 A 
ATOM     10  C   UNL     1       1.934   3.047  -0.632  0.00  0.00    +0.151 A 
ATOM     11  O   UNL     1       0.637   3.410  -0.650  0.00  0.00    -0.454 OA
ATOM     12  C   UNL     1      -0.350   2.534  -0.892  0.00  0.00    +0.142 A 
ENDROOT
BRANCH  12  13
ATOM     13  C   UNL     1      -1.745   3.019  -0.893  0.00  0.00    +0.018 A 
ATOM     14  C   UNL     1      -2.111   4.102  -1.696  0.00  0.00    +0.011 A 
ATOM     15  C   UNL     1      -3.417   4.546  -1.697  0.00  0.00    +0.001 A 
ATOM     16  C   UNL     1      -4.361   3.929  -0.894  0.00  0.00    +0.000 A 
ATOM     17  C   UNL     1      -4.004   2.860  -0.092  0.00  0.00    +0.001 A 
ATOM     18  C   UNL     1      -2.703   2.402  -0.086  0.00  0.00    +0.011 A 
ENDBRANCH  12  13
BRANCH   9  19
ATOM     19  C   UNL     1       2.592   5.400  -0.122  0.00  0.00    +0.252 C 
ATOM     20  O   UNL     1       1.427   5.749  -0.133  0.00  0.00    -0.270 OA
ATOM     21  N   UNL     1       3.564   6.301   0.123  0.00  0.00    -0.276 N 
ATOM     22  H   UNL     1       4.486   6.011   0.205  0.00  0.00    +0.155 HD
BRANCH  21  23
ATOM     23  C   UNL     1       3.240   7.665   0.260  0.00  0.00    +0.121 A 
ATOM     24  C   UNL     1       3.493   8.445   1.335  0.00  0.00    +0.059 A 
ATOM     25  N   UNL     1       3.026   9.707   1.079  0.00  0.00    -0.282 N 
ATOM     26  N   UNL     1       2.457   9.736  -0.200  0.00  0.00    -0.216 N 
ATOM     27  C   UNL     1       2.574   8.504  -0.737  0.00  0.00    +0.293 A 
ATOM     28  O   UNL     1       2.196   8.155  -1.841  0.00  0.00    -0.264 OA
ATOM     29  C   UNL     1       3.109  10.846   1.997  0.00  0.00    +0.171 C 
ATOM     30  C   UNL     1       4.174   8.001   2.604  0.00  0.00    +0.067 C 
BRANCH  26  31
ATOM     31  C   UNL     1       1.875  10.848  -0.815  0.00  0.00    +0.067 A 
ATOM     32  C   UNL     1       0.959  11.628  -0.120  0.00  0.00    +0.028 A 
ATOM     33  C   UNL     1       0.390  12.729  -0.729  0.00  0.00    +0.002 A 
ATOM     34  C   UNL     1       0.722  13.049  -2.033  0.00  0.00    +0.000 A 
ATOM     35  C   UNL     1       1.629  12.272  -2.729  0.00  0.00    +0.002 A 
ATOM     36  C   UNL     1       2.207  11.172  -2.124  0.00  0.00    +0.028 A 
ENDBRANCH  26  31
ENDBRANCH  21  23
ENDBRANCH   9  19
TORSDOF 4
