REMARK  Name = ZINC06263211
REMARK  10 active torsions:
REMARK  status: ('A' for Active; 'I' for Inactive)
REMARK    1  A    between atoms: C_1  and  C_2
REMARK    2  A    between atoms: C_2  and  C_3
REMARK    3  A    between atoms: C_2  and  C_4
REMARK    4  A    between atoms: C_7  and  O_10
REMARK    5  A    between atoms: O_10  and  C_11
REMARK    6  A    between atoms: C_11  and  C_12
REMARK    7  A    between atoms: N_14  and  C_15
REMARK    8  A    between atoms: C_15  and  N_17
REMARK    9  A    between atoms: N_17  and  C_18
REMARK   10  A    between atoms: C_19  and  C_26
REMARK                            x       y       z     vdW  Elec       q    Type
REMARK                         _______ _______ _______ _____ _____    ______ ____
ROOT
ATOM      1  C   UNL     1       3.078   7.767   0.013  0.00  0.00    +0.141 C 
ATOM      2  S   UNL     1       1.489   8.403   0.031  0.00  0.00    -0.018 S 
ENDROOT
BRANCH   1   5
ATOM      3  C   UNL     1       2.211   5.600   0.010  0.00  0.00    +0.256 C 
ATOM      4  O   UNL     1       1.085   6.050   0.023  0.00  0.00    -0.272 OA
ATOM      5  N   UNL     1       3.270   6.433   0.004  0.00  0.00    -0.265 N 
ATOM      6  H   UNL     1       4.171   6.073  -0.006  0.00  0.00    +0.157 HD
BRANCH   3   7
ATOM      7  C   UNL     1       2.426   4.108   0.001  0.00  0.00    +0.324 C 
BRANCH   7   8
ATOM      8  O   UNL     1       1.160   3.445   0.009  0.00  0.00    -0.483 OA
BRANCH   8  12
ATOM      9  C   UNL     1       1.208  -0.680  -0.013  0.00  0.00    -0.045 A 
ATOM     10  C   UNL     1       0.002  -0.004   0.002  0.00  0.00    +0.007 A 
ATOM     11  C   UNL     1      -0.017   1.377   0.010  0.00  0.00    +0.046 A 
ATOM     12  C   UNL     1       1.176   2.086   0.002  0.00  0.00    +0.121 A 
ATOM     13  C   UNL     1       2.385   1.405  -0.013  0.00  0.00    +0.046 A 
ATOM     14  C   UNL     1       2.398   0.024  -0.021  0.00  0.00    +0.007 A 
BRANCH   9  16
ATOM     15  C   UNL     1       1.940  -2.682  -1.280  0.00  0.00    +0.012 C 
ATOM     16  C   UNL     1       1.226  -2.187  -0.021  0.00  0.00    +0.013 C 
ATOM     17  C   UNL     1       1.965  -2.695   1.219  0.00  0.00    +0.012 C 
ENDBRANCH   9  16
ENDBRANCH   8  12
ENDBRANCH   7   8
ENDBRANCH   3   7
ENDBRANCH   1   5
BRANCH   1  18
ATOM     18  N   UNL     1       4.137   8.601   0.007  0.00  0.00    -0.291 N 
ATOM     19  H   UNL     1       5.038   8.241  -0.003  0.00  0.00    +0.154 HD
BRANCH  18  20
ATOM     20  C   UNL     1       3.940   9.972   0.016  0.00  0.00    +0.084 A 
ATOM     21  C   UNL     1       4.891  10.979   0.018  0.00  0.00    +0.068 A 
ATOM     22  C   UNL     1       4.413  12.361   0.025  0.00  0.00    -0.023 A 
ATOM     23  C   UNL     1       3.076  12.504   0.037  0.00  0.00    -0.004 A 
ATOM     24  S   UNL     1       2.444  10.844   0.035  0.00  0.00    -0.077 S 
ATOM     25  C   UNL     1       2.663  13.950   0.046  0.00  0.00    +0.043 C 
ATOM     26  C   UNL     1       3.926  14.719  -0.400  0.00  0.00    +0.010 C 
ATOM     27  C   UNL     1       5.049  13.752   0.028  0.00  0.00    +0.037 C 
BRANCH  21  28
ATOM     28  C   UNL     1       6.324  10.670   0.009  0.00  0.00    +0.244 C 
ATOM     29  O   UNL     1       6.914  10.548  -1.048  0.00  0.00    -0.270 OA
ATOM     30  N   UNL     1       6.987  10.520   1.173  0.00  0.00    -0.325 N 
ATOM     31  H   UNL     1       6.517  10.617   2.016  0.00  0.00    +0.145 HD
ATOM     32  H   UNL     1       7.936  10.316   1.167  0.00  0.00    +0.145 HD
ENDBRANCH  21  28
ENDBRANCH  18  20
ENDBRANCH   1  18
TORSDOF 8
