REMARK  Name = ZINC13066802
REMARK  10 active torsions:
REMARK  status: ('A' for Active; 'I' for Inactive)
REMARK    1  A    between atoms: C_1  and  N_2
REMARK    2  A    between atoms: N_2  and  C_3
REMARK    3  A    between atoms: N_2  and  S_8
REMARK    4  A    between atoms: C_3  and  C_4
REMARK    5  A    between atoms: C_4  and  C_5
REMARK    6  A    between atoms: C_5  and  C_6
REMARK    7  A    between atoms: S_8  and  C_11
REMARK    8  A    between atoms: C_14  and  C_17
REMARK    9  A    between atoms: C_17  and  C_19
REMARK   10  A    between atoms: C_20  and  C_21
REMARK                            x       y       z     vdW  Elec       q    Type
REMARK                         _______ _______ _______ _____ _____    ______ ____
ROOT
ATOM      1  C   UNL     1      -0.927   1.900   1.439  0.00  0.00    +0.106 A 
ATOM      2  C   UNL     1      -0.715   3.147   2.002  0.00  0.00    +0.029 A 
ATOM      3  C   UNL     1      -1.427   3.533   3.118  0.00  0.00    +0.013 A 
ATOM      4  C   UNL     1      -2.355   2.659   3.687  0.00  0.00    +0.022 A 
ATOM      5  C   UNL     1      -2.561   1.401   3.118  0.00  0.00    +0.013 A 
ATOM      6  C   UNL     1      -1.846   1.030   1.998  0.00  0.00    +0.029 A 
ENDROOT
BRANCH   1   7
ATOM      7  S   UNL     1      -0.017   1.417   0.010  0.00  0.00    +0.061 S 
ATOM      8  O   UNL     1       0.002  -0.004   0.002  0.00  0.00    -0.153 OA
ATOM      9  O   UNL     1       1.172   2.195   0.003  0.00  0.00    -0.153 OA
BRANCH   7  11
ATOM     10  C   UNL     1      -0.691   3.213  -1.897  0.00  0.00    +0.131 C 
ATOM     11  N   UNL     1      -0.897   1.885  -1.312  0.00  0.00    -0.180 NA
BRANCH  11  12
ATOM     12  C   UNL     1      -1.883   0.973  -1.897  0.00  0.00    +0.109 C 
BRANCH  12  13
ATOM     13  C   UNL     1      -3.267   1.280  -1.323  0.00  0.00    +0.028 C 
BRANCH  13  14
ATOM     14  C   UNL     1      -4.296   0.327  -1.934  0.00  0.00    +0.126 C 
BRANCH  14  15
ATOM     15  C   UNL     1      -5.659   0.629  -1.367  0.00  0.00    +0.356 C 
ATOM     16  O   UNL     1      -5.794   1.516  -0.558  0.00  0.00    -0.246 OA
ATOM     17  O   UNL     1      -6.724  -0.087  -1.762  0.00  0.00    -0.246 OA
ENDBRANCH  14  15
ENDBRANCH  13  14
ENDBRANCH  12  13
ENDBRANCH  11  12
ENDBRANCH   7  11
ENDBRANCH   1   7
BRANCH   4  18
ATOM     18  C   UNL     1      -3.118   3.065   4.888  0.00  0.00    +0.186 C 
ATOM     19  O   UNL     1      -3.927   2.301   5.382  0.00  0.00    -0.287 OA
BRANCH  18  20
ATOM     20  C   UNL     1      -2.900   4.382   5.481  0.00  0.00    +0.052 C 
ATOM     21  C   UNL     1      -3.597   4.753   6.579  0.00  0.00    +0.012 C 
BRANCH  21  22
ATOM     22  C   UNL     1      -3.378   6.078   7.176  0.00  0.00    -0.024 A 
ATOM     23  C   UNL     1      -4.098   6.465   8.312  0.00  0.00    +0.011 A 
ATOM     24  C   UNL     1      -3.889   7.708   8.867  0.00  0.00    +0.040 A 
ATOM     25  C   UNL     1      -2.966   8.577   8.302  0.00  0.00    +0.137 A 
ATOM     26  C   UNL     1      -2.249   8.200   7.175  0.00  0.00    +0.054 A 
ATOM     27  C   UNL     1      -2.445   6.957   6.614  0.00  0.00    +0.026 A 
ATOM     28 BR   UNL     1      -0.995   9.393   6.413  0.00  0.00    -0.047 Br
ATOM     29  F   UNL     1      -2.766   9.795   8.851  0.00  0.00    -0.204 F 
ENDBRANCH  21  22
ENDBRANCH  18  20
ENDBRANCH   4  18
TORSDOF 9
