REMARK  Name = ZINC39454849
REMARK  8 active torsions:
REMARK  status: ('A' for Active; 'I' for Inactive)
REMARK    1  A    between atoms: C_1  and  C_2
REMARK    2  A    between atoms: C_2  and  C_3
REMARK    3  A    between atoms: C_2  and  C_4
REMARK    4  A    between atoms: C_4  and  N_5
REMARK    5  A    between atoms: C_6  and  C_8
REMARK    6  A    between atoms: N_10  and  C_13
REMARK    7  A    between atoms: N_18  and  C_20
REMARK    8  A    between atoms: C_20  and  C_21
REMARK                            x       y       z     vdW  Elec       q    Type
REMARK                         _______ _______ _______ _____ _____    ______ ____
ROOT
ATOM      1  C   UNL     1      -4.589   0.147  -2.444  0.00  0.00    +0.120 C 
ATOM      2  C   UNL     1      -5.799  -0.275  -2.869  0.00  0.00    +0.119 C 
ATOM      3  N   UNL     1      -6.034   0.258  -4.112  0.00  0.00    -0.255 N 
ATOM      4  N   UNL     1      -4.961   1.022  -4.471  0.00  0.00    -0.161 NA
ATOM      5  N   UNL     1      -4.050   0.977  -3.453  0.00  0.00    -0.259 N 
ATOM      6  H   UNL     1      -5.241   1.973  -4.660  0.00  0.00    +0.168 HD
ATOM      7  H   UNL     1      -3.192   1.428  -3.428  0.00  0.00    +0.168 HD
ENDROOT
BRANCH   3   8
ATOM      8  C   UNL     1      -7.237   0.043  -4.920  0.00  0.00    +0.075 C 
ATOM      9  C   UNL     1      -7.917   1.387  -5.194  0.00  0.00    +0.020 C 
ATOM     10  C   UNL     1      -9.128   1.160  -6.103  0.00  0.00    -0.017 C 
ATOM     11  C   UNL     1      -8.670   0.469  -7.390  0.00  0.00    -0.079 C 
ATOM     12  N   UNL     1      -8.052  -0.822  -7.063  0.00  0.00    +0.382 N 
ATOM     13  C   UNL     1      -6.849  -0.608  -6.250  0.00  0.00    -0.055 C 
ATOM     14  H   UNL     1      -8.710  -1.387  -6.546  0.00  0.00    -0.082 HD
BRANCH  12  15
ATOM     15  C   UNL     1      -7.685  -1.516  -8.304  0.00  0.00    -0.047 C 
BRANCH  15  16
ATOM     16  C   UNL     1      -7.180  -2.921  -7.973  0.00  0.00    +0.111 C 
ATOM     17  C   UNL     1      -6.990  -3.723  -9.242  0.00  0.00    -0.001 C 
ATOM     18  C   UNL     1      -7.811  -4.767  -9.142  0.00  0.00    +0.017 C 
ATOM     19  C   UNL     1      -8.535  -4.698  -7.872  0.00  0.00    +0.105 C 
ATOM     20  N   UNL     1      -8.186  -3.653  -7.193  0.00  0.00    -0.286 NA
ENDBRANCH  15  16
ENDBRANCH  12  15
ENDBRANCH   3   8
BRANCH   1  22
ATOM     21  N   UNL     1      -2.739   0.311  -0.872  0.00  0.00    -0.310 N 
ATOM     22  C   UNL     1      -3.955  -0.187  -1.171  0.00  0.00    +0.260 C 
ATOM     23  O   UNL     1      -4.525  -0.917  -0.380  0.00  0.00    -0.269 OA
ATOM     24  H   UNL     1      -2.285   0.893  -1.502  0.00  0.00    +0.149 HD
BRANCH  21  25
ATOM     25  C   UNL     1      -2.103  -0.024   0.405  0.00  0.00    +0.107 C 
BRANCH  25  27
ATOM     26  C   UNL     1      -0.939   2.183   0.526  0.00  0.00    +0.009 C 
ATOM     27  C   UNL     1      -0.741   0.666   0.493  0.00  0.00    -0.000 C 
ATOM     28  C   UNL     1      -0.024   0.218   1.768  0.00  0.00    +0.009 C 
ENDBRANCH  25  27
ENDBRANCH  21  25
ENDBRANCH   1  22
TORSDOF 6
