REMARK  Name = ZINC22668182
REMARK  12 active torsions:
REMARK  status: ('A' for Active; 'I' for Inactive)
REMARK    1  A    between atoms: C_1  and  C_2
REMARK    2  A    between atoms: C_2  and  C_3
REMARK    3  A    between atoms: C_3  and  C_4
REMARK    4  A    between atoms: C_4  and  C_5
REMARK    5  A    between atoms: C_5  and  N_6
REMARK    6  A    between atoms: N_6  and  C_7
REMARK    7  A    between atoms: N_6  and  C_8
REMARK    8  A    between atoms: C_8  and  C_9
REMARK    9  A    between atoms: C_12  and  C_15
REMARK   10  A    between atoms: C_25  and  O_27
REMARK   11  A    between atoms: O_27  and  C_28
REMARK   12  A    between atoms: C_32  and  C_34
REMARK                            x       y       z     vdW  Elec       q    Type
REMARK                         _______ _______ _______ _____ _____    ______ ____
ROOT
ATOM      1  C   UNL     1      -4.100 -10.311  -0.608  0.00  0.00    +0.247 C 
ATOM      2  O   UNL     1      -4.146 -10.831  -1.706  0.00  0.00    -0.270 OA
ATOM      3  N   UNL     1      -4.045 -11.078   0.498  0.00  0.00    -0.291 N 
ATOM      4  C   UNL     1      -3.905 -12.552   0.587  0.00  0.00    +0.080 C 
ATOM      5  C   UNL     1      -4.885 -12.960   1.711  0.00  0.00    +0.024 C 
ATOM      6  C   UNL     1      -5.020 -11.700   2.591  0.00  0.00    +0.024 C 
ATOM      7  C   UNL     1      -4.103 -10.648   1.916  0.00  0.00    +0.080 C 
ATOM      8  C   UNL     1      -2.690 -10.808   2.500  0.00  0.00    +0.067 C 
ATOM      9  C   UNL     1      -2.312 -12.292   2.485  0.00  0.00    +0.177 C 
ATOM     10  C   UNL     1      -2.473 -12.848   1.061  0.00  0.00    +0.067 C 
ENDROOT
BRANCH   1  14
ATOM     11  C   UNL     1      -4.113  -6.078  -0.259  0.00  0.00    -0.064 A 
ATOM     12  C   UNL     1      -4.663  -6.678  -1.377  0.00  0.00    +0.002 A 
ATOM     13  C   UNL     1      -4.662  -8.053  -1.497  0.00  0.00    +0.013 A 
ATOM     14  C   UNL     1      -4.104  -8.838  -0.487  0.00  0.00    +0.037 A 
ATOM     15  C   UNL     1      -3.550  -8.226   0.639  0.00  0.00    +0.013 A 
ATOM     16  C   UNL     1      -3.553  -6.850   0.744  0.00  0.00    +0.002 A 
BRANCH  11  17
ATOM     17  C   UNL     1      -4.117  -4.576  -0.135  0.00  0.00    -0.043 C 
BRANCH  17  18
ATOM     18  N   UNL     1      -2.893  -4.031  -0.736  0.00  0.00    +0.381 N 
ATOM     19  C   UNL     1      -1.727  -4.481   0.036  0.00  0.00    -0.096 C 
ATOM     20  H   UNL     1      -2.812  -4.356  -1.687  0.00  0.00    -0.082 HD
BRANCH  18  21
ATOM     21  C   UNL     1      -2.952  -2.563  -0.722  0.00  0.00    -0.079 C 
BRANCH  21  22
ATOM     22  C   UNL     1      -1.736  -1.997  -1.458  0.00  0.00    -0.019 C 
BRANCH  22  23
ATOM     23  C   UNL     1      -1.798  -0.469  -1.445  0.00  0.00    -0.002 C 
BRANCH  23  25
ATOM     24  C   UNL     1      -0.643   1.626  -2.167  0.00  0.00    +0.004 C 
ATOM     25  C   UNL     1      -0.582   0.098  -2.181  0.00  0.00    -0.003 C 
ENDBRANCH  23  25
ENDBRANCH  22  23
ENDBRANCH  21  22
ENDBRANCH  18  21
ENDBRANCH  17  18
ENDBRANCH  11  17
ENDBRANCH   1  14
BRANCH   9  26
ATOM     26  O   UNL     1      -0.951 -12.440   2.893  0.00  0.00    -0.489 OA
BRANCH  26  27
ATOM     27  C   UNL     1      -0.594 -13.637   3.429  0.00  0.00    +0.121 A 
ATOM     28  C   UNL     1       0.731 -13.884   3.759  0.00  0.00    +0.045 A 
ATOM     29  C   UNL     1       1.091 -15.101   4.304  0.00  0.00    +0.004 A 
ATOM     30  C   UNL     1       0.132 -16.073   4.522  0.00  0.00    +0.012 A 
ATOM     31  C   UNL     1      -1.189 -15.829   4.194  0.00  0.00    +0.058 A 
ATOM     32  C   UNL     1      -1.555 -14.612   3.654  0.00  0.00    +0.058 A 
BRANCH  31  33
ATOM     33  C   UNL     1      -2.232 -16.891   4.433  0.00  0.00    +0.418 C 
ATOM     34  F   UNL     1      -1.626 -18.023   4.988  0.00  0.00    -0.166 F 
ATOM     35  F   UNL     1      -3.203 -16.402   5.314  0.00  0.00    -0.166 F 
ATOM     36  F   UNL     1      -2.835 -17.233   3.218  0.00  0.00    -0.166 F 
ENDBRANCH  31  33
ENDBRANCH  26  27
ENDBRANCH   9  26
TORSDOF 10
