REMARK  Name = ZINC23038692
REMARK  9 active torsions:
REMARK  status: ('A' for Active; 'I' for Inactive)
REMARK    1  A    between atoms: C_1  and  N_2
REMARK    2  A    between atoms: N_2  and  C_3
REMARK    3  A    between atoms: N_2  and  C_14
REMARK    4  A    between atoms: C_3  and  C_4
REMARK    5  A    between atoms: N_6  and  C_7
REMARK    6  A    between atoms: C_14  and  C_15
REMARK    7  A    between atoms: N_17  and  C_18
REMARK    8  A    between atoms: N_17  and  C_25
REMARK    9  A    between atoms: C_18  and  C_19
REMARK                            x       y       z     vdW  Elec       q    Type
REMARK                         _______ _______ _______ _____ _____    ______ ____
ROOT
ATOM      1  C   UNL     1       5.967  -0.565  -2.344  0.00  0.00    +0.019 C 
ENDROOT
BRANCH   1   3
ATOM      2  C   UNL     1       6.391   1.811  -2.532  0.00  0.00    -0.095 C 
ATOM      3  N   UNL     1       6.996   0.484  -2.362  0.00  0.00    +0.389 N 
ATOM      4  H   UNL     1       7.510   0.469  -1.389  0.00  0.00    -0.081 HD
BRANCH   3   5
ATOM      5  C   UNL     1       7.996   0.223  -3.405  0.00  0.00    +0.019 C 
BRANCH   5   6
ATOM      6  C   UNL     1       9.156   1.170  -3.237  0.00  0.00    +0.201 C 
ATOM      7  O   UNL     1       9.150   1.982  -2.336  0.00  0.00    -0.278 OA
ATOM      8  N   UNL     1      10.200   1.115  -4.087  0.00  0.00    -0.286 N 
ATOM      9  H   UNL     1      10.245   0.327  -4.854  0.00  0.00    +0.155 HD
BRANCH   8  10
ATOM     10  C   UNL     1      11.229   2.060  -3.995  0.00  0.00    +0.047 A 
ATOM     11  C   UNL     1      11.520   2.655  -2.775  0.00  0.00    +0.024 A 
ATOM     12  C   UNL     1      12.537   3.585  -2.687  0.00  0.00    +0.002 A 
ATOM     13  C   UNL     1      13.261   3.930  -3.814  0.00  0.00    +0.001 A 
ATOM     14  C   UNL     1      12.971   3.342  -5.032  0.00  0.00    +0.017 A 
ATOM     15  C   UNL     1      11.957   2.409  -5.126  0.00  0.00    +0.039 A 
ATOM     16 BR   UNL     1      11.560   1.607  -6.792  0.00  0.00    -0.048 Br
ENDBRANCH   8  10
ENDBRANCH   5   6
ENDBRANCH   3   5
ENDBRANCH   1   3
BRANCH   1  17
ATOM     17  C   UNL     1       5.106  -0.404  -1.119  0.00  0.00    +0.203 C 
ATOM     18  O   UNL     1       5.391   0.427  -0.282  0.00  0.00    -0.277 OA
ATOM     19  N   UNL     1       4.019  -1.183  -0.952  0.00  0.00    -0.269 N 
BRANCH  19  20
ATOM     20  C   UNL     1       3.638  -2.077  -1.958  0.00  0.00    +0.037 A 
ATOM     21  C   UNL     1       3.070  -1.602  -3.133  0.00  0.00    +0.023 A 
ATOM     22  C   UNL     1       2.701  -2.486  -4.128  0.00  0.00    +0.002 A 
ATOM     23  C   UNL     1       2.885  -3.845  -3.949  0.00  0.00    +0.000 A 
ATOM     24  C   UNL     1       3.444  -4.322  -2.778  0.00  0.00    +0.002 A 
ATOM     25  C   UNL     1       3.821  -3.442  -1.782  0.00  0.00    +0.023 A 
ENDBRANCH  19  20
BRANCH  19  26
ATOM     26  C   UNL     1       3.236  -1.093   0.283  0.00  0.00    +0.148 C 
BRANCH  26  27
ATOM     27  C   UNL     1       2.155  -0.055   0.119  0.00  0.00    -0.030 A 
ATOM     28  C   UNL     1       0.914  -0.420  -0.368  0.00  0.00    +0.005 A 
ATOM     29  C   UNL     1      -0.076   0.532  -0.520  0.00  0.00    +0.000 A 
ATOM     30  C   UNL     1       0.174   1.850  -0.184  0.00  0.00    +0.000 A 
ATOM     31  C   UNL     1       1.415   2.215   0.304  0.00  0.00    +0.000 A 
ATOM     32  C   UNL     1       2.406   1.262   0.455  0.00  0.00    +0.005 A 
ENDBRANCH  26  27
ENDBRANCH  19  26
ENDBRANCH   1  17
TORSDOF 8
