REMARK  Name = ZINC18206468
REMARK  11 active torsions:
REMARK  status: ('A' for Active; 'I' for Inactive)
REMARK    1  A    between atoms: C_1  and  C_2
REMARK    2  A    between atoms: C_5  and  N_9
REMARK    3  A    between atoms: C_7  and  C_8
REMARK    4  A    between atoms: C_11  and  C_15
REMARK    5  A    between atoms: C_12  and  C_14
REMARK    6  A    between atoms: C_15  and  C_17
REMARK    7  A    between atoms: C_15  and  C_24
REMARK    8  A    between atoms: C_26  and  C_39
REMARK    9  A    between atoms: N_28  and  C_31
REMARK   10  A    between atoms: C_34  and  C_38
REMARK   11  A    between atoms: C_35  and  C_37
REMARK                            x       y       z     vdW  Elec       q    Type
REMARK                         _______ _______ _______ _____ _____    ______ ____
ROOT
ATOM      1  C   UNL     1       0.093  -7.524  -1.554  0.00  0.00    +0.075 C 
ENDROOT
BRANCH   1   4
ATOM      2  N   UNL     1       0.357  -4.484   0.519  0.00  0.00    -0.219 N 
ATOM      3  C   UNL     1       0.160  -5.074  -0.678  0.00  0.00    +0.276 A 
ATOM      4  C   UNL     1       0.249  -6.473  -0.486  0.00  0.00    +0.048 A 
ATOM      5  C   UNL     1       0.498  -6.701   0.820  0.00  0.00    +0.039 A 
ATOM      6  N   UNL     1       0.575  -5.497   1.462  0.00  0.00    -0.294 N 
ATOM      7  C   UNL     1       0.667  -8.054   1.461  0.00  0.00    +0.065 C 
ATOM      8  O   UNL     1      -0.056  -4.505  -1.733  0.00  0.00    -0.266 OA
ATOM      9  H   UNL     1       0.747  -5.367   2.408  0.00  0.00    +0.187 HD
BRANCH   2  14
ATOM     10  C   UNL     1       0.331   1.095   1.546  0.00  0.00    +0.044 C 
ATOM     11  C   UNL     1       0.338  -0.388   1.273  0.00  0.00    -0.047 A 
ATOM     12  C   UNL     1       0.121  -0.854  -0.011  0.00  0.00    +0.006 A 
ATOM     13  C   UNL     1       0.127  -2.211  -0.264  0.00  0.00    +0.028 A 
ATOM     14  C   UNL     1       0.351  -3.109   0.772  0.00  0.00    +0.067 A 
ATOM     15  C   UNL     1       0.569  -2.637   2.060  0.00  0.00    +0.031 A 
ATOM     16  C   UNL     1       0.567  -1.278   2.306  0.00  0.00    -0.046 A 
ATOM     17  C   UNL     1       0.809  -0.765   3.702  0.00  0.00    +0.044 C 
ENDBRANCH   2  14
ENDBRANCH   1   4
BRANCH   1  18
ATOM     18  C   UNL     1       1.251  -7.439  -2.515  0.00  0.00    -0.020 A 
ATOM     19  C   UNL     1       1.394  -6.331  -3.329  0.00  0.00    +0.006 A 
ATOM     20  C   UNL     1       2.456  -6.253  -4.210  0.00  0.00    +0.000 A 
ATOM     21  C   UNL     1       3.375  -7.284  -4.279  0.00  0.00    +0.001 A 
ATOM     22  C   UNL     1       3.233  -8.392  -3.466  0.00  0.00    +0.020 A 
ATOM     23  C   UNL     1       2.174  -8.468  -2.579  0.00  0.00    +0.045 A 
ATOM     24 CL   UNL     1       1.998  -9.857  -1.553  0.00  0.00    -0.083 Cl
ENDBRANCH   1  18
BRANCH   1  25
ATOM     25  C   UNL     1      -1.216  -7.292  -2.311  0.00  0.00    +0.135 C 
ATOM     26  C   UNL     1      -2.401  -7.424  -1.377  0.00  0.00    +0.047 C 
ATOM     27  N   UNL     1      -3.115  -8.390  -1.809  0.00  0.00    -0.181 NA
ATOM     28  N   UNL     1      -2.593  -8.987  -2.953  0.00  0.00    -0.160 N 
ATOM     29  C   UNL     1      -1.442  -8.388  -3.335  0.00  0.00    +0.249 C 
ATOM     30  O   UNL     1      -0.742  -8.665  -4.286  0.00  0.00    -0.273 OA
ATOM     31  C   UNL     1      -2.685  -6.574  -0.166  0.00  0.00    +0.063 C 
BRANCH  28  32
ATOM     32  C   UNL     1      -3.183 -10.065  -3.622  0.00  0.00    +0.060 A 
ATOM     33  C   UNL     1      -2.580 -10.596  -4.755  0.00  0.00    +0.026 A 
ATOM     34  C   UNL     1      -3.165 -11.660  -5.413  0.00  0.00    +0.005 A 
ATOM     35  C   UNL     1      -4.351 -12.197  -4.945  0.00  0.00    -0.047 A 
ATOM     36  C   UNL     1      -4.954 -11.671  -3.818  0.00  0.00    -0.046 A 
ATOM     37  C   UNL     1      -4.371 -10.611  -3.151  0.00  0.00    +0.029 A 
ATOM     38  C   UNL     1      -6.246 -12.259  -3.312  0.00  0.00    +0.044 C 
ATOM     39  C   UNL     1      -4.987 -13.357  -5.666  0.00  0.00    +0.044 C 
ENDBRANCH  28  32
ENDBRANCH   1  25
TORSDOF 5
