REMARK  Name = ZINC13577113
REMARK  8 active torsions:
REMARK  status: ('A' for Active; 'I' for Inactive)
REMARK    1  A    between atoms: C_1  and  O_2
REMARK    2  A    between atoms: O_2  and  C_3
REMARK    3  A    between atoms: C_5  and  C_13
REMARK    4  A    between atoms: C_7  and  O_11
REMARK    5  A    between atoms: C_8  and  O_9
REMARK    6  A    between atoms: O_9  and  C_10
REMARK    7  A    between atoms: O_11  and  C_12
REMARK    8  A    between atoms: N_22  and  C_25
REMARK                            x       y       z     vdW  Elec       q    Type
REMARK                         _______ _______ _______ _____ _____    ______ ____
ROOT
ATOM      1  C   UNL     1       2.280   2.677  -4.494  0.00  0.00    +0.108 C 
ATOM      2  C   UNL     1       1.521   1.830  -5.544  0.00  0.00    +0.077 C 
ATOM      3  C   UNL     1       2.530   1.743  -6.676  0.00  0.00    +0.038 C 
ATOM      4  C   UNL     1       2.264   1.343  -7.973  0.00  0.00    +0.119 C 
ATOM      5  C   UNL     1       0.905   0.952  -8.397  0.00  0.00    +0.278 C 
ATOM      6  N   UNL     1       0.718   0.574  -9.673  0.00  0.00    -0.123 NA
ATOM      7  C   UNL     1       1.700   0.546 -10.539  0.00  0.00    +0.340 C 
ATOM      8  O   UNL     1       1.426   0.155 -11.799  0.00  0.00    -0.250 OA
ATOM      9  N   UNL     1       2.981   0.890 -10.237  0.00  0.00    -0.188 N 
ATOM     10  C   UNL     1       3.322   1.295  -8.995  0.00  0.00    +0.265 C 
ATOM     11  O   UNL     1       4.468   1.607  -8.729  0.00  0.00    -0.269 OA
ATOM     12  O   UNL     1      -0.025   0.969  -7.609  0.00  0.00    -0.268 OA
ATOM     13  N   UNL     1       3.727   2.123  -6.194  0.00  0.00    -0.283 N 
ATOM     14  N   UNL     1       3.693   2.431  -4.865  0.00  0.00    -0.235 NA
ATOM     15  H   UNL     1       4.531   2.172  -6.734  0.00  0.00    +0.166 HD
ATOM     16  H   UNL     1       4.088   1.687  -4.311  0.00  0.00    +0.145 HD
ENDROOT
BRANCH   9  17
ATOM     17  C   UNL     1       3.963   0.827 -11.235  0.00  0.00    +0.046 A 
ATOM     18  C   UNL     1       4.216   1.935 -12.032  0.00  0.00    +0.025 A 
ATOM     19  C   UNL     1       5.185   1.871 -13.014  0.00  0.00    +0.022 A 
ATOM     20  C   UNL     1       5.903   0.704 -13.204  0.00  0.00    +0.041 A 
ATOM     21  C   UNL     1       5.653  -0.402 -12.411  0.00  0.00    +0.022 A 
ATOM     22  C   UNL     1       4.689  -0.341 -11.424  0.00  0.00    +0.025 A 
ATOM     23 CL   UNL     1       7.120   0.626 -14.440  0.00  0.00    -0.084 Cl
ENDBRANCH   9  17
BRANCH   1  26
ATOM     24  C   UNL     1       0.855   2.428  -1.002  0.00  0.00    +0.165 A 
ATOM     25  C   UNL     1       1.118   2.878  -2.287  0.00  0.00    +0.055 A 
ATOM     26  C   UNL     1       1.997   2.184  -3.098  0.00  0.00    -0.021 A 
ATOM     27  C   UNL     1       2.616   1.040  -2.632  0.00  0.00    +0.055 A 
ATOM     28  C   UNL     1       2.358   0.583  -1.349  0.00  0.00    +0.165 A 
ATOM     29  C   UNL     1       1.480   1.280  -0.528  0.00  0.00    +0.204 A 
BRANCH  24  31
ATOM     30  C   UNL     1      -0.616   4.281  -0.759  0.00  0.00    +0.277 C 
ATOM     31  O   UNL     1      -0.010   3.111  -0.205  0.00  0.00    -0.491 OA
ENDBRANCH  24  31
BRANCH  29  32
ATOM     32  O   UNL     1       1.228   0.838   0.734  0.00  0.00    -0.488 OA
ATOM     33  C   UNL     1       0.144  -0.079   0.896  0.00  0.00    +0.277 C 
ENDBRANCH  29  32
BRANCH  28  34
ATOM     34  O   UNL     1       2.967  -0.544  -0.891  0.00  0.00    -0.491 OA
ATOM     35  C   UNL     1       3.862  -1.207  -1.787  0.00  0.00    +0.277 C 
ENDBRANCH  28  34
ENDBRANCH   1  26
TORSDOF 5
