REMARK  Name = ZINC35641017
REMARK  12 active torsions:
REMARK  status: ('A' for Active; 'I' for Inactive)
REMARK    1  A    between atoms: C_1  and  C_2
REMARK    2  A    between atoms: C_2  and  N_3
REMARK    3  A    between atoms: C_4  and  C_23
REMARK    4  A    between atoms: C_5  and  C_18
REMARK    5  A    between atoms: C_6  and  C_11
REMARK    6  A    between atoms: C_18  and  O_20
REMARK    7  A    between atoms: O_20  and  C_21
REMARK    8  A    between atoms: C_21  and  C_22
REMARK    9  A    between atoms: C_23  and  N_24
REMARK   10  A    between atoms: N_24  and  C_25
REMARK   11  A    between atoms: N_24  and  C_26
REMARK   12  A    between atoms: N_29  and  C_32
REMARK                            x       y       z     vdW  Elec       q    Type
REMARK                         _______ _______ _______ _____ _____    ______ ____
ROOT
ATOM      1  N   UNL     1       0.768  -0.412  -1.193  0.00  0.00    -0.258 N 
ATOM      2  C   UNL     1      -0.024  -0.546  -2.297  0.00  0.00    +0.041 C 
ATOM      3  C   UNL     1       0.468  -1.046  -3.451  0.00  0.00    +0.080 C 
ATOM      4  C   UNL     1       1.927  -1.454  -3.478  0.00  0.00    +0.144 C 
ATOM      5  N   UNL     1       2.694  -1.269  -2.235  0.00  0.00    -0.288 N 
ATOM      6  C   UNL     1       2.063  -0.751  -1.163  0.00  0.00    +0.307 C 
ATOM      7  O   UNL     1       2.689  -0.591  -0.133  0.00  0.00    -0.252 OA
ATOM      8  H   UNL     1       3.632  -1.511  -2.190  0.00  0.00    +0.151 HD
ENDROOT
BRANCH   4   9
ATOM      9  C   UNL     1       2.609  -0.665  -4.566  0.00  0.00    -0.021 A 
ATOM     10  C   UNL     1       2.999   0.640  -4.333  0.00  0.00    +0.006 A 
ATOM     11  C   UNL     1       3.625   1.364  -5.330  0.00  0.00    +0.002 A 
ATOM     12  C   UNL     1       3.861   0.783  -6.562  0.00  0.00    +0.020 A 
ATOM     13  C   UNL     1       3.471  -0.523  -6.796  0.00  0.00    +0.041 A 
ATOM     14  C   UNL     1       2.850  -1.249  -5.795  0.00  0.00    +0.025 A 
ATOM     15 CL   UNL     1       3.767  -1.254  -8.343  0.00  0.00    -0.084 Cl
ENDBRANCH   4   9
BRANCH   1  17
ATOM     16  C   UNL     1       0.319   1.661   0.024  0.00  0.00    +0.025 C 
ATOM     17  C   UNL     1       0.169   0.138   0.025  0.00  0.00    +0.111 C 
ENDBRANCH   1  17
BRANCH   3  18
ATOM     18  C   UNL     1      -0.352  -1.186  -4.596  0.00  0.00    +0.339 C 
ATOM     19  O   UNL     1      -0.803  -2.277  -4.891  0.00  0.00    -0.245 OA
BRANCH  18  20
ATOM     20  O   UNL     1      -0.633  -0.110  -5.360  0.00  0.00    -0.462 OA
BRANCH  20  21
ATOM     21  C   UNL     1      -1.467  -0.324  -6.500  0.00  0.00    +0.229 C 
ATOM     22  C   UNL     1      -1.673   1.000  -7.237  0.00  0.00    +0.048 C 
ENDBRANCH  20  21
ENDBRANCH  18  20
ENDBRANCH   3  18
BRANCH   2  23
ATOM     23  C   UNL     1      -1.470  -0.128  -2.227  0.00  0.00    +0.136 C 
BRANCH  23  24
ATOM     24  N   UNL     1      -2.194  -1.022  -1.313  0.00  0.00    -0.297 NA
ATOM     25  C   UNL     1      -2.251  -2.389  -1.848  0.00  0.00    +0.105 C 
BRANCH  24  26
ATOM     26  C   UNL     1      -3.542  -0.509  -1.034  0.00  0.00    +0.053 C 
ATOM     27  C   UNL     1      -3.440   0.871  -0.379  0.00  0.00    +0.000 C 
ATOM     28  C   UNL     1      -4.843   1.364  -0.018  0.00  0.00    -0.078 C 
ATOM     29  N   UNL     1      -5.471   0.422   0.916  0.00  0.00    +0.378 N 
ATOM     30  C   UNL     1      -5.638  -0.885   0.270  0.00  0.00    -0.078 C 
ATOM     31  C   UNL     1      -4.265  -1.464  -0.080  0.00  0.00    +0.000 C 
ATOM     32  C   UNL     1      -6.786   0.939   1.319  0.00  0.00    -0.096 C 
ATOM     33  H   UNL     1      -4.887   0.320   1.733  0.00  0.00    -0.082 HD
ENDBRANCH  24  26
ENDBRANCH  23  24
ENDBRANCH   2  23
TORSDOF 8
