REMARK  Name = ZINC59170537
REMARK  6 active torsions:
REMARK  status: ('A' for Active; 'I' for Inactive)
REMARK    1  A    between atoms: C_1  and  C_2
REMARK    2  A    between atoms: C_5  and  S_8
REMARK    3  A    between atoms: S_8  and  N_11
REMARK    4  A    between atoms: N_11  and  N_12
REMARK    5  A    between atoms: C_14  and  C_24
REMARK    6  A    between atoms: N_26  and  C_27
REMARK                            x       y       z     vdW  Elec       q    Type
REMARK                         _______ _______ _______ _____ _____    ______ ____
ROOT
ATOM      1  N   UNL     1       2.973  -5.279   1.251  0.00  0.00    -0.260 N 
ATOM      2  C   UNL     1       4.238  -5.482   1.014  0.00  0.00    +0.225 A 
ATOM      3  C   UNL     1       4.695  -6.021  -0.288  0.00  0.00    +0.099 A 
ATOM      4  C   UNL     1       5.970  -5.700  -0.688  0.00  0.00    +0.030 A 
ATOM      5  C   UNL     1       6.771  -4.854   0.204  0.00  0.00    +0.020 A 
ATOM      6  C   UNL     1       7.959  -4.269  -0.244  0.00  0.00    +0.031 A 
ATOM      7  C   UNL     1       8.693  -3.475   0.613  0.00  0.00    +0.042 A 
ATOM      8  C   UNL     1       8.258  -3.256   1.911  0.00  0.00    +0.023 A 
ATOM      9  C   UNL     1       7.086  -3.829   2.366  0.00  0.00    +0.048 A 
ATOM     10  C   UNL     1       6.335  -4.630   1.522  0.00  0.00    +0.138 A 
ATOM     11  O   UNL     1       5.185  -5.200   1.956  0.00  0.00    -0.437 OA
ATOM     12 CL   UNL     1      10.170  -2.747   0.062  0.00  0.00    -0.084 Cl
ATOM     13  H   UNL     1       2.674  -5.084   2.153  0.00  0.00    +0.189 HD
ENDROOT
BRANCH   3  14
ATOM     14  C   UNL     1       3.819  -6.864  -1.118  0.00  0.00    +0.253 C 
ATOM     15  O   UNL     1       3.646  -8.032  -0.827  0.00  0.00    -0.270 OA
ATOM     16  N   UNL     1       3.210  -6.342  -2.201  0.00  0.00    -0.281 N 
ATOM     17  H   UNL     1       3.287  -5.394  -2.391  0.00  0.00    +0.155 HD
BRANCH  16  18
ATOM     18  C   UNL     1       2.466  -7.167  -3.051  0.00  0.00    +0.034 A 
ATOM     19  C   UNL     1       1.834  -8.296  -2.547  0.00  0.00    +0.025 A 
ATOM     20  C   UNL     1       1.100  -9.109  -3.388  0.00  0.00    +0.022 A 
ATOM     21  C   UNL     1       0.995  -8.800  -4.733  0.00  0.00    +0.041 A 
ATOM     22  C   UNL     1       1.623  -7.675  -5.238  0.00  0.00    +0.022 A 
ATOM     23  C   UNL     1       2.354  -6.855  -4.400  0.00  0.00    +0.025 A 
ATOM     24 CL   UNL     1       0.072  -9.824  -5.788  0.00  0.00    -0.084 Cl
ENDBRANCH  16  18
ENDBRANCH   3  14
BRANCH   1  25
ATOM     25  N   UNL     1       2.045  -5.341   0.203  0.00  0.00    -0.157 N 
ATOM     26  H   UNL     1       2.352  -5.330  -0.717  0.00  0.00    +0.194 HD
BRANCH  25  27
ATOM     27  S   UNL     1       0.426  -5.433   0.535  0.00  0.00    +0.085 S 
ATOM     28  O   UNL     1       0.253  -6.538   1.412  0.00  0.00    -0.149 OA
ATOM     29  O   UNL     1      -0.251  -5.336  -0.710  0.00  0.00    -0.149 OA
BRANCH  27  34
ATOM     30  C   UNL     1      -1.037  -0.495   3.679  0.00  0.00    +0.044 C 
ATOM     31  C   UNL     1      -0.672  -1.728   2.894  0.00  0.00    -0.050 A 
ATOM     32  C   UNL     1      -0.746  -1.716   1.513  0.00  0.00    +0.005 A 
ATOM     33  C   UNL     1      -0.410  -2.847   0.793  0.00  0.00    +0.029 A 
ATOM     34  C   UNL     1      -0.001  -3.990   1.453  0.00  0.00    +0.110 A 
ATOM     35  C   UNL     1       0.074  -4.002   2.834  0.00  0.00    +0.029 A 
ATOM     36  C   UNL     1      -0.257  -2.870   3.554  0.00  0.00    +0.005 A 
ENDBRANCH  27  34
ENDBRANCH  25  27
ENDBRANCH   1  25
TORSDOF 5
