REMARK  Name = ZINC01382168
REMARK  12 active torsions:
REMARK  status: ('A' for Active; 'I' for Inactive)
REMARK    1  A    between atoms: C_1  and  O_2
REMARK    2  A    between atoms: O_2  and  C_3
REMARK    3  A    between atoms: C_10  and  C_15
REMARK    4  A    between atoms: C_15  and  C_17
REMARK    5  A    between atoms: C_15  and  N_30
REMARK    6  A    between atoms: N_21  and  C_22
REMARK    7  A    between atoms: C_22  and  C_23
REMARK    8  A    between atoms: C_23  and  C_24
REMARK    9  A    between atoms: N_30  and  C_31
REMARK   10  A    between atoms: N_30  and  C_39
REMARK   11  A    between atoms: C_31  and  C_32
REMARK   12  A    between atoms: C_39  and  C_40
REMARK                            x       y       z     vdW  Elec       q    Type
REMARK                         _______ _______ _______ _____ _____    ______ ____
ROOT
ATOM      1  C   UNL     1       2.042  -6.141  -3.515  0.00  0.00    +0.163 C 
ENDROOT
BRANCH   1   9
ATOM      2  C   UNL     1       0.753  -1.950   0.866  0.00  0.00    +0.121 A 
ATOM      3  C   UNL     1       1.309  -0.860   0.199  0.00  0.00    +0.047 A 
ATOM      4  C   UNL     1       1.887  -1.017  -1.041  0.00  0.00    +0.030 A 
ATOM      5  C   UNL     1       1.920  -2.273  -1.639  0.00  0.00    +0.049 A 
ATOM      6  C   UNL     1       1.360  -3.377  -0.968  0.00  0.00    +0.002 A 
ATOM      7  C   UNL     1       0.781  -3.205   0.294  0.00  0.00    +0.055 A 
ATOM      8  C   UNL     1       1.402  -4.692  -1.608  0.00  0.00    +0.021 A 
ATOM      9  C   UNL     1       1.982  -4.801  -2.829  0.00  0.00    +0.042 A 
ATOM     10  C   UNL     1       2.529  -3.663  -3.460  0.00  0.00    +0.254 A 
ATOM     11  O   UNL     1       3.045  -3.783  -4.558  0.00  0.00    -0.268 OA
ATOM     12  N   UNL     1       2.495  -2.451  -2.881  0.00  0.00    -0.322 N 
ATOM     13  H   UNL     1       2.881  -1.690  -3.342  0.00  0.00    +0.169 HD
BRANCH   2  15
ATOM     14  C   UNL     1       0.192  -0.452   2.625  0.00  0.00    +0.277 C 
ATOM     15  O   UNL     1       0.187  -1.777   2.090  0.00  0.00    -0.495 OA
ENDBRANCH   2  15
ENDBRANCH   1   9
BRANCH   1  16
ATOM     16  C   UNL     1       1.228  -6.094  -4.783  0.00  0.00    +0.173 A 
ATOM     17  N   UNL     1       1.565  -5.514  -5.908  0.00  0.00    -0.111 NA
ATOM     18  N   UNL     1       0.608  -5.694  -6.752  0.00  0.00    -0.023 NA
ATOM     19  N   UNL     1      -0.331  -6.375  -6.193  0.00  0.00    -0.044 NA
ATOM     20  N   UNL     1       0.016  -6.645  -4.980  0.00  0.00    -0.227 N 
BRANCH  20  21
ATOM     21  C   UNL     1      -0.764  -7.406  -4.001  0.00  0.00    +0.152 C 
BRANCH  21  22
ATOM     22  C   UNL     1      -1.663  -6.451  -3.212  0.00  0.00    +0.058 C 
BRANCH  22  23
ATOM     23  C   UNL     1      -2.465  -7.234  -2.205  0.00  0.00    -0.046 A 
ATOM     24  C   UNL     1      -3.700  -7.747  -2.554  0.00  0.00    +0.004 A 
ATOM     25  C   UNL     1      -4.437  -8.465  -1.630  0.00  0.00    +0.000 A 
ATOM     26  C   UNL     1      -3.938  -8.670  -0.357  0.00  0.00    +0.000 A 
ATOM     27  C   UNL     1      -2.702  -8.157  -0.009  0.00  0.00    +0.000 A 
ATOM     28  C   UNL     1      -1.964  -7.443  -0.934  0.00  0.00    +0.004 A 
ENDBRANCH  22  23
ENDBRANCH  21  22
ENDBRANCH  20  21
ENDBRANCH   1  16
BRANCH   1  29
ATOM     29  N   UNL     1       3.438  -6.462  -3.842  0.00  0.00    -0.277 NA
BRANCH  29  30
ATOM     30  C   UNL     1       3.588  -7.886  -4.169  0.00  0.00    +0.122 C 
BRANCH  30  31
ATOM     31  C   UNL     1       2.843  -8.190  -5.443  0.00  0.00    -0.015 A 
ATOM     32  C   UNL     1       1.589  -8.769  -5.390  0.00  0.00    +0.006 A 
ATOM     33  C   UNL     1       0.906  -9.048  -6.558  0.00  0.00    +0.000 A 
ATOM     34  C   UNL     1       1.476  -8.748  -7.782  0.00  0.00    +0.001 A 
ATOM     35  C   UNL     1       2.730  -8.169  -7.837  0.00  0.00    +0.020 A 
ATOM     36  C   UNL     1       3.412  -7.885  -6.667  0.00  0.00    +0.045 A 
ATOM     37 CL   UNL     1       4.984  -7.151  -6.735  0.00  0.00    -0.083 Cl
ENDBRANCH  30  31
ENDBRANCH  29  30
BRANCH  29  38
ATOM     38  C   UNL     1       4.337  -6.076  -2.746  0.00  0.00    +0.160 C 
BRANCH  38  39
ATOM     39  C   UNL     1       5.766  -6.142  -3.221  0.00  0.00    +0.119 A 
ATOM     40  C   UNL     1       6.420  -5.170  -3.882  0.00  0.00    +0.046 A 
ATOM     41  C   UNL     1       7.726  -5.652  -4.130  0.00  0.00    +0.041 A 
ATOM     42  C   UNL     1       7.791  -6.889  -3.606  0.00  0.00    +0.195 A 
ATOM     43  O   UNL     1       6.603  -7.179  -3.052  0.00  0.00    -0.467 OA
ENDBRANCH  38  39
ENDBRANCH  29  38
ENDBRANCH   1  29
TORSDOF 11
