REMARK  Name = ZINC13065158
REMARK  16 active torsions:
REMARK  status: ('A' for Active; 'I' for Inactive)
REMARK    1  A    between atoms: C_1  and  C_2
REMARK    2  A    between atoms: C_2  and  C_3
REMARK    3  A    between atoms: C_3  and  C_5
REMARK    4  A    between atoms: C_3  and  N_72
REMARK    5  A    between atoms: N_9  and  C_10
REMARK    6  A    between atoms: C_10  and  C_11
REMARK    7  A    between atoms: C_10  and  C_12
REMARK    8  A    between atoms: C_10  and  C_13
REMARK    9  A    between atoms: C_14  and  C_15
REMARK   10  A    between atoms: C_14  and  N_72
REMARK   11  A    between atoms: C_18  and  O_21
REMARK   12  A    between atoms: O_21  and  C_22
REMARK   13  A    between atoms: C_23  and  C_24
REMARK   14  A    between atoms: C_23  and  N_72
REMARK   15  A    between atoms: C_27  and  C_37
REMARK   16  A    between atoms: C_30  and  C_36
REMARK                            x       y       z     vdW  Elec       q    Type
REMARK                         _______ _______ _______ _____ _____    ______ ____
ROOT
ATOM      1  N   UNL     1      -0.024   0.046  -0.021  0.00  0.00    +0.392 N 
ATOM      2  H   UNL     1       0.612   0.485  -0.697  0.00  0.00    -0.080 HD
ENDROOT
BRANCH   1   3
ATOM      3  C   UNL     1       0.661  -1.103   0.607  0.00  0.00    +0.003 C 
BRANCH   3   4
ATOM      4  C   UNL     1       2.143  -0.828   0.622  0.00  0.00    +0.139 A 
ATOM      5  N   UNL     1       2.723   0.323   0.860  0.00  0.00    -0.115 NA
ATOM      6  N   UNL     1       3.997   0.150   0.782  0.00  0.00    -0.023 NA
ATOM      7  N   UNL     1       4.245  -1.081   0.501  0.00  0.00    -0.043 NA
ATOM      8  N   UNL     1       3.128  -1.718   0.400  0.00  0.00    -0.226 N 
BRANCH   8   9
ATOM      9  C   UNL     1       2.962  -3.142   0.096  0.00  0.00    +0.059 C 
ATOM     10  C   UNL     1       2.296  -3.297  -1.273  0.00  0.00    +0.036 C 
ATOM     11  C   UNL     1       4.332  -3.822   0.076  0.00  0.00    +0.036 C 
ATOM     12  C   UNL     1       2.084  -3.793   1.167  0.00  0.00    +0.036 C 
ENDBRANCH   8   9
ENDBRANCH   3   4
BRANCH   3  14
ATOM     13  C   UNL     1      -1.335  -1.599   2.024  0.00  0.00    +0.002 C 
ATOM     14  C   UNL     1       0.165  -1.301   2.041  0.00  0.00    -0.011 C 
ENDBRANCH   3  14
ENDBRANCH   1   3
BRANCH   1  15
ATOM     15  C   UNL     1      -0.389   1.041   1.010  0.00  0.00    -0.042 C 
BRANCH  15  16
ATOM     16  C   UNL     1       0.851   1.798   1.412  0.00  0.00    -0.064 A 
ATOM     17  C   UNL     1       1.403   1.601   2.664  0.00  0.00    +0.005 A 
ATOM     18  C   UNL     1       2.543   2.289   3.033  0.00  0.00    +0.046 A 
ATOM     19  C   UNL     1       3.127   3.187   2.150  0.00  0.00    +0.120 A 
ATOM     20  C   UNL     1       2.567   3.386   0.897  0.00  0.00    +0.046 A 
ATOM     21  C   UNL     1       1.430   2.691   0.530  0.00  0.00    +0.005 A 
BRANCH  19  22
ATOM     22  O   UNL     1       4.245   3.869   2.513  0.00  0.00    -0.495 OA
ATOM     23  C   UNL     1       4.766   3.613   3.819  0.00  0.00    +0.277 C 
ENDBRANCH  19  22
ENDBRANCH  15  16
ENDBRANCH   1  15
BRANCH   1  24
ATOM     24  C   UNL     1      -1.236  -0.414  -0.731  0.00  0.00    -0.036 C 
BRANCH  24  25
ATOM     25  C   UNL     1      -0.818  -1.112  -1.999  0.00  0.00    +0.001 A 
ATOM     26  C   UNL     1      -0.763  -2.466  -2.038  0.00  0.00    +0.017 A 
ATOM     27  C   UNL     1      -0.358  -3.114  -3.287  0.00  0.00    +0.002 A 
ATOM     28  C   UNL     1      -0.289  -4.508  -3.390  0.00  0.00    -0.041 A 
ATOM     29  C   UNL     1       0.097  -5.081  -4.569  0.00  0.00    +0.004 A 
ATOM     30  C   UNL     1       0.421  -4.293  -5.665  0.00  0.00    +0.005 A 
ATOM     31  C   UNL     1       0.360  -2.919  -5.586  0.00  0.00    -0.026 A 
ATOM     32  C   UNL     1      -0.031  -2.312  -4.396  0.00  0.00    +0.052 A 
ATOM     33  N   UNL     1      -0.101  -0.940  -4.290  0.00  0.00    -0.322 N 
ATOM     34  H   UNL     1       0.125  -0.389  -5.055  0.00  0.00    +0.169 HD
ATOM     35  C   UNL     1      -0.479  -0.354  -3.140  0.00  0.00    +0.251 A 
ATOM     36  O   UNL     1      -0.529   0.863  -3.082  0.00  0.00    -0.268 OA
ATOM     37  C   UNL     1       0.714  -2.076  -6.784  0.00  0.00    +0.046 C 
ATOM     38  C   UNL     1      -0.639  -5.372  -2.207  0.00  0.00    +0.044 C 
ENDBRANCH  24  25
ENDBRANCH   1  24
TORSDOF 9
