REMARK  Name = ZINC39596947
REMARK  8 active torsions:
REMARK  status: ('A' for Active; 'I' for Inactive)
REMARK    1  A    between atoms: C_1  and  C_2
REMARK    2  A    between atoms: C_4  and  C_7
REMARK    3  A    between atoms: C_8  and  C_13
REMARK    4  A    between atoms: C_9  and  C_12
REMARK    5  A    between atoms: C_17  and  C_26
REMARK    6  A    between atoms: N_28  and  C_29
REMARK    7  A    between atoms: C_29  and  C_31
REMARK    8  A    between atoms: C_29  and  C_32
REMARK                            x       y       z     vdW  Elec       q    Type
REMARK                         _______ _______ _______ _____ _____    ______ ____
ROOT
ATOM      1  C   UNL     1       0.445  -5.120   0.015  0.00  0.00    +0.252 C 
ATOM      2  O   UNL     1       1.052  -5.309   1.052  0.00  0.00    -0.270 OA
ATOM      3  N   UNL     1       1.053  -5.328  -1.169  0.00  0.00    -0.296 N 
ATOM      4  C   UNL     1       0.485  -5.148  -2.526  0.00  0.00    +0.121 C 
ATOM      5  C   UNL     1       1.638  -4.536  -3.354  0.00  0.00    +0.100 C 
ATOM      6  C   UNL     1       2.919  -4.962  -2.617  0.00  0.00    -0.004 C 
ATOM      7  C   UNL     1       2.444  -5.782  -1.409  0.00  0.00    +0.115 C 
ATOM      8  C   UNL     1       3.688  -3.732  -2.142  0.00  0.00    -0.010 C 
ATOM      9  C   UNL     1       4.986  -4.179  -1.463  0.00  0.00    -0.082 C 
ATOM     10  N   UNL     1       5.796  -4.952  -2.412  0.00  0.00    +0.379 N 
ATOM     11  C   UNL     1       5.087  -6.179  -2.792  0.00  0.00    -0.082 C 
ATOM     12  C   UNL     1       3.793  -5.817  -3.528  0.00  0.00    -0.010 C 
ATOM     13  H   UNL     1       5.968  -4.395  -3.236  0.00  0.00    -0.086 HD
ATOM     14  H   UNL     1       6.676  -5.193  -1.982  0.00  0.00    -0.086 HD
ENDROOT
BRANCH   1  16
ATOM     15  C   UNL     1      -1.392  -3.348   0.067  0.00  0.00    +0.201 A 
ATOM     16  C   UNL     1      -0.955  -4.665   0.054  0.00  0.00    +0.108 A 
ATOM     17  C   UNL     1      -2.107  -5.490   0.085  0.00  0.00    +0.093 A 
ATOM     18  N   UNL     1      -3.155  -4.723   0.114  0.00  0.00    -0.082 NA
ATOM     19  O   UNL     1      -2.733  -3.372   0.109  0.00  0.00    -0.352 OA
ATOM     20  C   UNL     1      -2.114  -6.997   0.084  0.00  0.00    +0.070 C 
BRANCH  15  24
ATOM     21  C   UNL     1       0.071   1.510   0.040  0.00  0.00    +0.089 C 
ATOM     22  C   UNL     1       0.091   0.004   0.034  0.00  0.00    +0.135 A 
ATOM     23  C   UNL     1      -0.988  -0.798   0.064  0.00  0.00    +0.079 A 
ATOM     24  C   UNL     1      -0.537  -2.142   0.045  0.00  0.00    +0.152 A 
ATOM     25  N   UNL     1       0.775  -2.123   0.005  0.00  0.00    -0.075 NA
ATOM     26  O   UNL     1       1.188  -0.768  -0.008  0.00  0.00    -0.359 OA
ENDBRANCH  15  24
ENDBRANCH   1  16
BRANCH   5  27
ATOM     27  C   UNL     1       1.521  -3.034  -3.385  0.00  0.00    +0.219 C 
ATOM     28  O   UNL     1       0.916  -2.455  -2.508  0.00  0.00    -0.275 OA
ATOM     29  N   UNL     1       2.090  -2.335  -4.387  0.00  0.00    -0.308 N 
ATOM     30  H   UNL     1       2.574  -2.798  -5.088  0.00  0.00    +0.149 HD
BRANCH  29  31
ATOM     31  C   UNL     1       1.977  -0.875  -4.417  0.00  0.00    +0.100 C 
ATOM     32  C   UNL     1       3.082  -0.260  -3.556  0.00  0.00    +0.033 C 
BRANCH  31  33
ATOM     33  C   UNL     1       2.116  -0.389  -5.837  0.00  0.00    -0.027 A 
ATOM     34  C   UNL     1       3.043  -0.974  -6.679  0.00  0.00    +0.005 A 
ATOM     35  C   UNL     1       3.171  -0.529  -7.981  0.00  0.00    +0.000 A 
ATOM     36  C   UNL     1       2.372   0.501  -8.441  0.00  0.00    +0.000 A 
ATOM     37  C   UNL     1       1.445   1.086  -7.599  0.00  0.00    +0.000 A 
ATOM     38  C   UNL     1       1.314   0.638  -6.298  0.00  0.00    +0.005 A 
ENDBRANCH  31  33
ENDBRANCH  29  31
ENDBRANCH   5  27
TORSDOF 5
