REMARK  Name = ZINC33711186
REMARK  13 active torsions:
REMARK  status: ('A' for Active; 'I' for Inactive)
REMARK    1  A    between atoms: C_1  and  C_2
REMARK    2  A    between atoms: C_10  and  C_13
REMARK    3  A    between atoms: C_13  and  N_14
REMARK    4  A    between atoms: N_14  and  C_15
REMARK    5  A    between atoms: C_15  and  C_16
REMARK    6  A    between atoms: C_22  and  C_24
REMARK    7  A    between atoms: C_24  and  N_25
REMARK    8  A    between atoms: N_25  and  C_26
REMARK    9  A    between atoms: C_26  and  C_27
REMARK   10  A    between atoms: C_27  and  C_28
REMARK   11  A    between atoms: C_28  and  C_29
REMARK   12  A    between atoms: C_28  and  C_30
REMARK   13  A    between atoms: C_31  and  C_33
REMARK                            x       y       z     vdW  Elec       q    Type
REMARK                         _______ _______ _______ _____ _____    ______ ____
ROOT
ATOM      1  N   UNL     1       0.030  -0.175   0.005  0.00  0.00    -0.291 N 
ATOM      2  C   UNL     1      -0.161   1.155   0.107  0.00  0.00    +0.234 C 
ATOM      3  O   UNL     1      -1.274   1.619  -0.022  0.00  0.00    -0.274 OA
ENDROOT
BRANCH   1   4
ATOM      4  C   UNL     1      -1.119  -1.072  -0.141  0.00  0.00    +0.150 C 
BRANCH   4  14
ATOM      5  C   UNL     1       0.028  -4.192  -6.904  0.00  0.00    +0.044 C 
ATOM      6  C   UNL     1      -0.711  -3.257  -5.981  0.00  0.00    -0.050 A 
ATOM      7  C   UNL     1      -1.760  -2.491  -6.469  0.00  0.00    +0.007 A 
ATOM      8  C   UNL     1      -2.447  -1.630  -5.640  0.00  0.00    +0.047 A 
ATOM      9  C   UNL     1      -2.090  -1.524  -4.301  0.00  0.00    +0.138 A 
ATOM     10  C   UNL     1      -1.028  -2.300  -3.810  0.00  0.00    +0.065 A 
ATOM     11  C   UNL     1      -0.340  -3.166  -4.658  0.00  0.00    +0.018 A 
ATOM     12  C   UNL     1      -0.667  -2.169  -2.384  0.00  0.00    +0.197 A 
ATOM     13  O   UNL     1       0.244  -2.815  -1.897  0.00  0.00    -0.287 OA
ATOM     14  C   UNL     1      -1.429  -1.258  -1.604  0.00  0.00    +0.052 A 
ATOM     15  C   UNL     1      -2.431  -0.568  -2.178  0.00  0.00    +0.204 A 
ATOM     16  O   UNL     1      -2.747  -0.689  -3.471  0.00  0.00    -0.462 OA
ENDBRANCH   4  14
ENDBRANCH   1   4
BRANCH   1  17
ATOM     17  C   UNL     1       1.388  -0.725   0.040  0.00  0.00    +0.143 C 
BRANCH  17  18
ATOM     18  C   UNL     1       1.713  -1.171   1.442  0.00  0.00    -0.030 A 
ATOM     19  C   UNL     1       2.420  -0.336   2.287  0.00  0.00    +0.005 A 
ATOM     20  C   UNL     1       2.714  -0.743   3.575  0.00  0.00    +0.000 A 
ATOM     21  C   UNL     1       2.310  -1.990   4.014  0.00  0.00    +0.000 A 
ATOM     22  C   UNL     1       1.608  -2.828   3.168  0.00  0.00    +0.000 A 
ATOM     23  C   UNL     1       1.310  -2.418   1.882  0.00  0.00    +0.005 A 
ENDBRANCH  17  18
ENDBRANCH   1  17
BRANCH   2  24
ATOM     24  C   UNL     1       1.010   2.066   0.374  0.00  0.00    +0.204 C 
BRANCH  24  25
ATOM     25  N   UNL     1       0.533   3.444   0.513  0.00  0.00    -0.286 N 
ATOM     26  C   UNL     1       0.179   3.916   1.725  0.00  0.00    +0.282 C 
ATOM     27  O   UNL     1       0.338   3.227   2.716  0.00  0.00    -0.267 OA
BRANCH  26  28
ATOM     28  C   UNL     1      -0.399   5.258   1.850  0.00  0.00    +0.189 A 
ATOM     29  C   UNL     1      -0.699   5.897   3.018  0.00  0.00    +0.054 A 
ATOM     30  C   UNL     1      -1.227   7.149   2.669  0.00  0.00    +0.042 A 
ATOM     31  C   UNL     1      -1.226   7.220   1.320  0.00  0.00    +0.196 A 
ATOM     32  O   UNL     1      -0.721   6.080   0.830  0.00  0.00    -0.458 OA
ENDBRANCH  26  28
BRANCH  25  33
ATOM     33  C   UNL     1       0.442   4.310  -0.665  0.00  0.00    +0.109 C 
BRANCH  33  34
ATOM     34  C   UNL     1      -0.977   4.253  -1.232  0.00  0.00    +0.022 C 
BRANCH  34  35
ATOM     35  C   UNL     1      -1.072   5.157  -2.462  0.00  0.00    -0.016 C 
ATOM     36  C   UNL     1      -0.171   4.608  -3.570  0.00  0.00    +0.007 C 
ATOM     37  C   UNL     1      -2.520   5.197  -2.955  0.00  0.00    +0.007 C 
ENDBRANCH  34  35
ENDBRANCH  33  34
ENDBRANCH  25  33
ENDBRANCH  24  25
ENDBRANCH   2  24
TORSDOF 10
