REMARK  Name = ZINC20617082
REMARK  11 active torsions:
REMARK  status: ('A' for Active; 'I' for Inactive)
REMARK    1  A    between atoms: C_1  and  C_2
REMARK    2  A    between atoms: C_2  and  C_3
REMARK    3  A    between atoms: C_7  and  N_9
REMARK    4  A    between atoms: C_11  and  C_26
REMARK    5  A    between atoms: C_14  and  C_21
REMARK    6  A    between atoms: C_17  and  C_20
REMARK    7  A    between atoms: C_21  and  O_22
REMARK    8  A    between atoms: O_22  and  C_23
REMARK    9  A    between atoms: C_23  and  C_25
REMARK   10  A    between atoms: N_28  and  C_29
REMARK   11  A    between atoms: C_32  and  C_35
REMARK                            x       y       z     vdW  Elec       q    Type
REMARK                         _______ _______ _______ _____ _____    ______ ____
ROOT
ATOM      1  N   UNL     1      -0.032   5.255  -0.023  0.00  0.00    -0.325 N 
ATOM      2  C   UNL     1      -1.187   5.880  -0.092  0.00  0.00    +0.212 A 
ATOM      3  C   UNL     1      -1.248   7.354  -0.169  0.00  0.00    +0.098 A 
ATOM      4  C   UNL     1      -2.351   7.908  -0.780  0.00  0.00    +0.030 A 
ATOM      5  C   UNL     1      -3.365   6.987  -1.298  0.00  0.00    +0.028 A 
ATOM      6  C   UNL     1      -4.383   7.419  -2.157  0.00  0.00    +0.018 A 
ATOM      7  C   UNL     1      -5.302   6.493  -2.606  0.00  0.00    +0.118 A 
ATOM      8  N   UNL     1      -5.231   5.226  -2.240  0.00  0.00    -0.256 NA
ATOM      9  C   UNL     1      -4.293   4.772  -1.433  0.00  0.00    +0.081 A 
ATOM     10  C   UNL     1      -3.325   5.629  -0.929  0.00  0.00    +0.159 A 
ATOM     11  O   UNL     1      -2.355   5.188  -0.101  0.00  0.00    -0.437 OA
ATOM     12  C   UNL     1      -4.271   3.313  -1.057  0.00  0.00    +0.069 C 
ATOM     13  H   UNL     1       0.901   5.831   0.061  0.00  0.00    +0.169 HD
ENDROOT
BRANCH   1  18
ATOM     14  C   UNL     1       0.087   1.780   1.093  0.00  0.00    -0.046 A 
ATOM     15  C   UNL     1       0.093   1.121  -0.124  0.00  0.00    +0.004 A 
ATOM     16  C   UNL     1       0.062   1.838  -1.307  0.00  0.00    +0.002 A 
ATOM     17  C   UNL     1       0.015   3.216  -1.281  0.00  0.00    +0.026 A 
ATOM     18  C   UNL     1       0.009   3.889  -0.057  0.00  0.00    +0.042 A 
ATOM     19  C   UNL     1       0.046   3.158   1.134  0.00  0.00    +0.029 A 
BRANCH  14  21
ATOM     20  C   UNL     1       1.581   0.767   2.793  0.00  0.00    +0.009 C 
ATOM     21  C   UNL     1       0.127   0.991   2.376  0.00  0.00    +0.032 C 
ENDBRANCH  14  21
ENDBRANCH   1  18
BRANCH   3  22
ATOM     22  C   UNL     1      -0.174   8.196   0.387  0.00  0.00    +0.253 C 
ATOM     23  O   UNL     1      -0.250   9.408   0.310  0.00  0.00    -0.270 OA
ATOM     24  N   UNL     1       0.893   7.625   0.980  0.00  0.00    -0.281 N 
ATOM     25  H   UNL     1       0.918   6.536   1.135  0.00  0.00    +0.155 HD
BRANCH  24  26
ATOM     26  C   UNL     1       1.968   8.415   1.398  0.00  0.00    +0.034 A 
ATOM     27  C   UNL     1       2.225   9.628   0.772  0.00  0.00    +0.023 A 
ATOM     28  C   UNL     1       3.285  10.408   1.190  0.00  0.00    +0.005 A 
ATOM     29  C   UNL     1       4.095   9.979   2.225  0.00  0.00    -0.050 A 
ATOM     30  C   UNL     1       3.845   8.770   2.848  0.00  0.00    +0.005 A 
ATOM     31  C   UNL     1       2.784   7.987   2.437  0.00  0.00    +0.023 A 
ATOM     32  C   UNL     1       5.254  10.831   2.675  0.00  0.00    +0.044 C 
ENDBRANCH  24  26
ENDBRANCH   3  22
BRANCH   6  33
ATOM     33  C   UNL     1      -4.473   8.863  -2.581  0.00  0.00    +0.269 C 
BRANCH  33  34
ATOM     34  O   UNL     1      -5.612   9.037  -3.465  0.00  0.00    -0.460 OA
BRANCH  34  35
ATOM     35  C   UNL     1      -5.834  10.274  -3.936  0.00  0.00    +0.304 C 
ATOM     36  O   UNL     1      -5.101  11.181  -3.620  0.00  0.00    -0.251 OA
ATOM     37  C   UNL     1      -6.997  10.532  -4.859  0.00  0.00    +0.136 C 
ENDBRANCH  34  35
ENDBRANCH  33  34
ENDBRANCH   6  33
TORSDOF 7
