REMARK  Name = ZINC54709747
REMARK  8 active torsions:
REMARK  status: ('A' for Active; 'I' for Inactive)
REMARK    1  A    between atoms: C_1  and  C_2
REMARK    2  A    between atoms: C_4  and  N_26
REMARK    3  A    between atoms: C_6  and  S_8
REMARK    4  A    between atoms: S_8  and  C_9
REMARK    5  A    between atoms: C_9  and  C_10
REMARK    6  A    between atoms: C_10  and  C_11
REMARK    7  A    between atoms: N_13  and  C_14
REMARK    8  A    between atoms: C_15  and  C_24
REMARK                            x       y       z     vdW  Elec       q    Type
REMARK                         _______ _______ _______ _____ _____    ______ ____
ROOT
ATOM      1  C   UNL     1       0.110  -6.930   3.097  0.00  0.00    +0.218 C 
ATOM      2  O   UNL     1       0.109  -7.245   1.926  0.00  0.00    -0.275 OA
ATOM      3  N   UNL     1       0.128  -7.881   4.051  0.00  0.00    -0.279 N 
ATOM      4  H   UNL     1       0.129  -7.629   4.988  0.00  0.00    +0.155 HD
ENDROOT
BRANCH   3   5
ATOM      5  C   UNL     1       0.144  -9.223   3.694  0.00  0.00    +0.090 A 
ATOM      6  C   UNL     1       0.157 -10.326   4.528  0.00  0.00    +0.084 A 
ATOM      7  C   UNL     1       0.174 -11.640   3.903  0.00  0.00    -0.018 A 
ATOM      8  C   UNL     1       0.180 -11.603   2.553  0.00  0.00    -0.004 A 
ATOM      9  S   UNL     1       0.145  -9.879   2.149  0.00  0.00    -0.077 S 
ATOM     10  C   UNL     1       0.216 -12.762   1.607  0.00  0.00    +0.043 C 
ATOM     11  C   UNL     1      -0.850 -13.785   2.023  0.00  0.00    +0.005 C 
ATOM     12  C   UNL     1      -0.227 -14.761   3.017  0.00  0.00    +0.001 C 
ATOM     13  C   UNL     1       0.819 -14.048   3.871  0.00  0.00    +0.005 C 
ATOM     14  C   UNL     1       0.171 -12.939   4.695  0.00  0.00    +0.037 C 
BRANCH   6  15
ATOM     15  C   UNL     1       0.155 -10.180   5.953  0.00  0.00    +0.102 C 
ATOM     16  N   UNL     1       0.153 -10.065   7.083  0.00  0.00    -0.191 NA
ENDBRANCH   6  15
ENDBRANCH   3   5
BRANCH   1  17
ATOM     17  C   UNL     1       0.092  -5.474   3.485  0.00  0.00    +0.107 C 
BRANCH  17  18
ATOM     18  C   UNL     1       0.075  -4.610   2.222  0.00  0.00    +0.086 C 
BRANCH  18  19
ATOM     19  S   UNL     1       0.053  -2.857   2.690  0.00  0.00    -0.086 S 
BRANCH  19  25
ATOM     20  C   UNL     1      -0.018   1.503   0.010  0.00  0.00    +0.066 C 
ATOM     21  C   UNL     1       0.002  -0.004   0.002  0.00  0.00    +0.044 A 
ATOM     22  C   UNL     1       0.006  -0.696  -1.194  0.00  0.00    +0.066 A 
ATOM     23  C   UNL     1       0.025  -2.091  -1.157  0.00  0.00    +0.121 A 
ATOM     24  N   UNL     1       0.039  -2.705   0.022  0.00  0.00    -0.207 NA
ATOM     25  C   UNL     1       0.035  -2.005   1.147  0.00  0.00    +0.190 A 
ATOM     26  N   UNL     1       0.022  -0.679   1.141  0.00  0.00    -0.227 NA
BRANCH  23  27
ATOM     27  N   UNL     1       0.029  -2.826  -2.331  0.00  0.00    -0.343 N 
ATOM     28  H   UNL     1       0.018  -2.371  -3.188  0.00  0.00    +0.144 HD
ATOM     29  H   UNL     1       0.042  -3.795  -2.297  0.00  0.00    +0.144 HD
ENDBRANCH  23  27
ENDBRANCH  19  25
ENDBRANCH  18  19
ENDBRANCH  17  18
ENDBRANCH   1  17
TORSDOF 7
