REMARK  Name = ZINC11839227
REMARK  10 active torsions:
REMARK  status: ('A' for Active; 'I' for Inactive)
REMARK    1  A    between atoms: C_1  and  C_2
REMARK    2  A    between atoms: C_2  and  C_3
REMARK    3  A    between atoms: C_3  and  C_4
REMARK    4  A    between atoms: C_4  and  C_19
REMARK    5  A    between atoms: N_7  and  C_11
REMARK    6  A    between atoms: C_11  and  C_12
REMARK    7  A    between atoms: C_12  and  C_13
REMARK    8  A    between atoms: C_18  and  N_75
REMARK    9  A    between atoms: C_25  and  C_27
REMARK   10  A    between atoms: C_27  and  C_30
REMARK                            x       y       z     vdW  Elec       q    Type
REMARK                         _______ _______ _______ _____ _____    ______ ____
ROOT
ATOM      1  C   UNL     1      -2.776  -3.553  -1.913  0.00  0.00    +0.115 C 
ATOM      2  C   UNL     1      -3.561  -2.302  -2.256  0.00  0.00    +0.247 C 
ATOM      3  O   UNL     1      -4.444  -2.195  -3.080  0.00  0.00    -0.273 OA
ATOM      4  N   UNL     1      -3.074  -1.335  -1.454  0.00  0.00    -0.224 N 
ATOM      5  C   UNL     1      -2.097  -1.795  -0.664  0.00  0.00    +0.309 C 
ATOM      6  O   UNL     1      -1.501  -1.108   0.142  0.00  0.00    -0.252 OA
ATOM      7  N   UNL     1      -1.851  -3.103  -0.859  0.00  0.00    -0.285 N 
ATOM      8  H   UNL     1      -1.190  -3.643  -0.398  0.00  0.00    +0.151 HD
ENDROOT
BRANCH   1   9
ATOM      9  C   UNL     1      -2.000  -4.053  -3.133  0.00  0.00    +0.024 C 
ATOM     10  C   UNL     1      -1.205  -5.304  -2.754  0.00  0.00    +0.025 C 
ATOM     11  C   UNL     1      -0.456  -5.822  -3.986  0.00  0.00    +0.108 C 
ATOM     12  N   UNL     1       0.361  -4.732  -4.535  0.00  0.00    -0.301 N 
ATOM     13  C   UNL     1      -0.288  -3.452  -4.850  0.00  0.00    +0.108 C 
ATOM     14  C   UNL     1      -1.038  -2.961  -3.608  0.00  0.00    +0.025 C 
ATOM     15  C   UNL     1       1.681  -4.903  -4.747  0.00  0.00    +0.226 C 
ATOM     16  O   UNL     1       2.362  -3.969  -5.114  0.00  0.00    -0.275 OA
BRANCH  15  17
ATOM     17  C   UNL     1       2.311  -6.254  -4.527  0.00  0.00    +0.072 C 
ATOM     18  C   UNL     1       3.431  -6.675  -5.480  0.00  0.00    +0.022 C 
ATOM     19  C   UNL     1       2.053  -7.333  -5.580  0.00  0.00    +0.022 C 
BRANCH  17  20
ATOM     20  C   UNL     1       2.417  -6.696  -3.090  0.00  0.00    -0.032 A 
ATOM     21  C   UNL     1       1.847  -7.891  -2.690  0.00  0.00    +0.004 A 
ATOM     22  C   UNL     1       1.949  -8.298  -1.373  0.00  0.00    +0.000 A 
ATOM     23  C   UNL     1       2.611  -7.506  -0.454  0.00  0.00    +0.000 A 
ATOM     24  C   UNL     1       3.176  -6.309  -0.852  0.00  0.00    +0.000 A 
ATOM     25  C   UNL     1       3.079  -5.904  -2.170  0.00  0.00    +0.004 A 
ENDBRANCH  17  20
ENDBRANCH  15  17
ENDBRANCH   1   9
BRANCH   1  26
ATOM     26  C   UNL     1      -3.708  -4.646  -1.385  0.00  0.00    +0.035 C 
BRANCH  26  28
ATOM     27  C   UNL     1      -5.364  -5.232   0.391  0.00  0.00    +0.004 C 
ATOM     28  C   UNL     1      -4.432  -4.139  -0.136  0.00  0.00    -0.001 C 
ENDBRANCH  26  28
ENDBRANCH   1  26
BRANCH   4  29
ATOM     29  C   UNL     1      -3.550   0.050  -1.453  0.00  0.00    +0.116 C 
BRANCH  29  30
ATOM     30  C   UNL     1      -4.696   0.194  -0.449  0.00  0.00    +0.004 C 
BRANCH  30  31
ATOM     31  C   UNL     1      -5.119   1.662  -0.364  0.00  0.00    -0.068 C 
ATOM     32  C   UNL     1      -3.980   2.516   0.234  0.00  0.00    -0.017 C 
ATOM     33  C   UNL     1      -4.687   3.564   1.119  0.00  0.00    -0.020 C 
ATOM     34  C   UNL     1      -6.194   3.254   0.981  0.00  0.00    -0.079 C 
ATOM     35  C   UNL     1      -7.529   1.500  -0.059  0.00  0.00    -0.096 C 
ATOM     36  N   UNL     1      -6.222   1.847   0.585  0.00  0.00    +0.380 N 
ATOM     37  H   UNL     1      -6.082   1.249   1.408  0.00  0.00    -0.082 HD
ENDBRANCH  30  31
ENDBRANCH  29  30
ENDBRANCH   4  29
TORSDOF 8
