REMARK  Name = ZINC14198830
REMARK  7 active torsions:
REMARK  status: ('A' for Active; 'I' for Inactive)
REMARK    1  A    between atoms: C_4  and  C_7
REMARK    2  A    between atoms: C_7  and  C_30
REMARK    3  A    between atoms: N_10  and  C_14
REMARK    4  A    between atoms: C_14  and  C_15
REMARK    5  A    between atoms: N_17  and  C_18
REMARK    6  A    between atoms: C_18  and  C_19
REMARK    7  A    between atoms: N_21  and  C_22
REMARK                            x       y       z     vdW  Elec       q    Type
REMARK                         _______ _______ _______ _____ _____    ______ ____
ROOT
ATOM      1  C   UNL     1       9.195   0.950   1.030  0.00  0.00    +0.164 C 
ATOM      2  C   UNL     1       7.864   1.579   1.393  0.00  0.00    +0.256 C 
ATOM      3  O   UNL     1       7.461   1.851   2.503  0.00  0.00    -0.272 OA
ATOM      4  N   UNL     1       7.222   1.773   0.224  0.00  0.00    -0.215 N 
ATOM      5  C   UNL     1       7.957   1.364  -0.817  0.00  0.00    +0.310 C 
ATOM      6  O   UNL     1       7.592   1.440  -1.973  0.00  0.00    -0.252 OA
ATOM      7  N   UNL     1       9.146   0.860  -0.440  0.00  0.00    -0.278 N 
ATOM      8  H   UNL     1       9.837   0.506  -1.022  0.00  0.00    +0.152 HD
ENDROOT
BRANCH   1  12
ATOM      9  C   UNL     1       9.553  -2.939   2.762  0.00  0.00    +0.000 A 
ATOM     10  C   UNL     1       8.839  -1.953   3.418  0.00  0.00    +0.000 A 
ATOM     11  C   UNL     1       8.723  -0.695   2.857  0.00  0.00    +0.006 A 
ATOM     12  C   UNL     1       9.321  -0.422   1.641  0.00  0.00    -0.011 A 
ATOM     13  C   UNL     1      10.030  -1.409   0.983  0.00  0.00    +0.006 A 
ATOM     14  C   UNL     1      10.150  -2.666   1.546  0.00  0.00    +0.000 A 
ENDBRANCH   1  12
BRANCH   1  15
ATOM     15  C   UNL     1      10.335   1.831   1.470  0.00  0.00    -0.011 A 
ATOM     16  C   UNL     1      10.871   1.688   2.736  0.00  0.00    +0.006 A 
ATOM     17  C   UNL     1      11.920   2.494   3.138  0.00  0.00    +0.000 A 
ATOM     18  C   UNL     1      12.427   3.449   2.276  0.00  0.00    +0.000 A 
ATOM     19  C   UNL     1      11.887   3.596   1.012  0.00  0.00    +0.000 A 
ATOM     20  C   UNL     1      10.841   2.787   0.609  0.00  0.00    +0.006 A 
ENDBRANCH   1  15
BRANCH   4  21
ATOM     21  C   UNL     1       5.887   2.363   0.107  0.00  0.00    +0.213 C 
BRANCH  21  22
ATOM     22  C   UNL     1       4.848   1.273   0.165  0.00  0.00    +0.231 C 
ATOM     23  O   UNL     1       5.190   0.116   0.292  0.00  0.00    -0.274 OA
ATOM     24  N   UNL     1       3.539   1.583   0.076  0.00  0.00    -0.305 N 
ATOM     25  H   UNL     1       3.266   2.508  -0.026  0.00  0.00    +0.149 HD
BRANCH  24  26
ATOM     26  C   UNL     1       2.530   0.523   0.132  0.00  0.00    +0.200 C 
BRANCH  26  27
ATOM     27  C   UNL     1       1.156   1.130   0.012  0.00  0.00    +0.234 C 
ATOM     28  O   UNL     1       1.032   2.331  -0.110  0.00  0.00    -0.274 OA
ATOM     29  N   UNL     1       0.065   0.340   0.039  0.00  0.00    -0.284 N 
ATOM     30  H   UNL     1       0.165  -0.624   0.078  0.00  0.00    +0.155 HD
BRANCH  29  31
ATOM     31  C   UNL     1      -1.214   0.910   0.003  0.00  0.00    +0.036 A 
ATOM     32  C   UNL     1      -2.255   0.324   0.711  0.00  0.00    +0.026 A 
ATOM     33  C   UNL     1      -3.515   0.891   0.681  0.00  0.00    +0.043 A 
ATOM     34  C   UNL     1      -3.743   2.035  -0.064  0.00  0.00    +0.159 A 
ATOM     35  C   UNL     1      -2.706   2.619  -0.776  0.00  0.00    +0.160 A 
ATOM     36  C   UNL     1      -1.442   2.058  -0.743  0.00  0.00    +0.064 A 
ATOM     37  F   UNL     1      -2.930   3.736  -1.503  0.00  0.00    -0.202 F 
ATOM     38  F   UNL     1      -4.977   2.584  -0.096  0.00  0.00    -0.202 F 
ENDBRANCH  29  31
ENDBRANCH  26  27
ENDBRANCH  24  26
ENDBRANCH  21  22
ENDBRANCH   4  21
TORSDOF 7
