REMARK  Name = ZINC64166281
REMARK  9 active torsions:
REMARK  status: ('A' for Active; 'I' for Inactive)
REMARK    1  A    between atoms: C_1  and  C_2
REMARK    2  A    between atoms: C_2  and  C_4
REMARK    3  A    between atoms: C_8  and  O_10
REMARK    4  A    between atoms: O_10  and  C_11
REMARK    5  A    between atoms: C_11  and  C_12
REMARK    6  A    between atoms: C_14  and  C_18
REMARK    7  A    between atoms: N_20  and  C_21
REMARK    8  A    between atoms: N_20  and  C_22
REMARK    9  A    between atoms: C_22  and  C_23
REMARK                            x       y       z     vdW  Elec       q    Type
REMARK                         _______ _______ _______ _____ _____    ______ ____
ROOT
ATOM      1  C   UNL     1      -3.490  -6.365   0.020  0.00  0.00    +0.161 C 
ATOM      2  C   UNL     1      -3.844  -7.156   1.010  0.00  0.00    +0.051 C 
ATOM      3  C   UNL     1      -3.478  -8.577   0.625  0.00  0.00    +0.204 C 
ATOM      4  N   UNL     1      -3.258  -8.470  -0.841  0.00  0.00    -0.140 NA
ATOM      5  O   UNL     1      -2.923  -7.046  -1.005  0.00  0.00    -0.407 OA
ATOM      6  H   UNL     1      -4.097  -8.702  -1.351  0.00  0.00    +0.168 HD
ENDROOT
BRANCH   3   7
ATOM      7  C   UNL     1      -2.219  -9.014   1.328  0.00  0.00    +0.240 C 
ATOM      8  O   UNL     1      -1.158  -8.994   0.741  0.00  0.00    -0.273 OA
ATOM      9  N   UNL     1      -2.272  -9.428   2.610  0.00  0.00    -0.301 N 
ATOM     10  C   UNL     1      -3.554  -9.453   3.319  0.00  0.00    +0.132 C 
BRANCH   9  11
ATOM     11  C   UNL     1      -1.048  -9.853   3.294  0.00  0.00    +0.136 C 
BRANCH  11  12
ATOM     12  C   UNL     1      -0.402  -8.647   3.978  0.00  0.00    +0.120 C 
ATOM     13  C   UNL     1       0.759  -9.096   4.838  0.00  0.00    +0.009 C 
ATOM     14  C   UNL     1       0.451  -8.732   6.103  0.00  0.00    -0.001 A 
ATOM     15  C   UNL     1       1.158  -8.882   7.380  0.00  0.00    +0.048 A 
ATOM     16  C   UNL     1       0.583  -8.405   8.509  0.00  0.00    +0.124 A 
ATOM     17  C   UNL     1      -0.670  -7.772   8.488  0.00  0.00    +0.040 A 
ATOM     18  C   UNL     1      -1.378  -7.598   7.353  0.00  0.00    +0.029 A 
ATOM     19  C   UNL     1      -0.869  -8.061   6.108  0.00  0.00    +0.043 A 
ATOM     20  N   UNL     1      -1.358  -8.011   4.891  0.00  0.00    -0.376 N 
ATOM     21  F   UNL     1       1.231  -8.542   9.687  0.00  0.00    -0.205 F 
ATOM     22  H   UNL     1      -2.208  -7.619   4.637  0.00  0.00    +0.160 HD
ENDBRANCH  11  12
ENDBRANCH   9  11
ENDBRANCH   3   7
BRANCH   1  23
ATOM     23  C   UNL     1      -3.699  -4.873   0.023  0.00  0.00    +0.304 C 
BRANCH  23  24
ATOM     24  O   UNL     1      -2.431  -4.214   0.014  0.00  0.00    -0.484 OA
BRANCH  24  29
ATOM     25  C   UNL     1      -1.262  -0.757   0.010  0.00  0.00    +0.021 A 
ATOM     26  C   UNL     1      -2.485  -0.077   0.019  0.00  0.00    +0.011 A 
ATOM     27  C   UNL     1      -3.667  -0.787   0.026  0.00  0.00    +0.004 A 
ATOM     28  C   UNL     1      -3.649  -2.171   0.025  0.00  0.00    +0.046 A 
ATOM     29  C   UNL     1      -2.441  -2.855   0.015  0.00  0.00    +0.122 A 
ATOM     30  C   UNL     1      -1.247  -2.155   0.002  0.00  0.00    +0.057 A 
BRANCH  25  32
ATOM     31  C   UNL     1      -0.018   1.503   0.010  0.00  0.00    +0.091 C 
ATOM     32  C   UNL     1       0.002  -0.004   0.002  0.00  0.00    +0.160 C 
ATOM     33  O   UNL     1       1.060  -0.596  -0.011  0.00  0.00    -0.292 OA
ENDBRANCH  25  32
ENDBRANCH  24  29
ENDBRANCH  23  24
ENDBRANCH   1  23
TORSDOF 7
