REMARK  Name = ZINC39914256
REMARK  7 active torsions:
REMARK  status: ('A' for Active; 'I' for Inactive)
REMARK    1  A    between atoms: C_1  and  C_2
REMARK    2  A    between atoms: C_2  and  C_3
REMARK    3  A    between atoms: C_3  and  N_4
REMARK    4  A    between atoms: C_5  and  C_24
REMARK    5  A    between atoms: C_8  and  C_15
REMARK    6  A    between atoms: C_18  and  C_22
REMARK    7  A    between atoms: C_20  and  O_21
REMARK                            x       y       z     vdW  Elec       q    Type
REMARK                         _______ _______ _______ _____ _____    ______ ____
ROOT
ATOM      1  N   UNL     1       0.664  -1.983   1.202  0.00  0.00    -0.285 N 
ATOM      2  C   UNL     1      -0.317  -2.922   1.762  0.00  0.00    +0.144 C 
ATOM      3  C   UNL     1       0.247  -4.298   1.533  0.00  0.00    +0.035 A 
ATOM      4  C   UNL     1       0.085  -5.679   1.685  0.00  0.00    +0.102 A 
ATOM      5  N   UNL     1       1.144  -6.261   1.158  0.00  0.00    -0.173 NA
ATOM      6  N   UNL     1       1.959  -5.385   0.689  0.00  0.00    -0.272 N 
ATOM      7  H   UNL     1       2.803  -5.584   0.255  0.00  0.00    +0.189 HD
ATOM      8  C   UNL     1       1.458  -4.130   0.890  0.00  0.00    +0.126 A 
ATOM      9  C   UNL     1       1.687  -2.694   0.694  0.00  0.00    +0.265 C 
ATOM     10  O   UNL     1       2.664  -2.214   0.151  0.00  0.00    -0.268 OA
ENDROOT
BRANCH   4  11
ATOM     11  C   UNL     1      -1.067  -6.364   2.323  0.00  0.00    +0.045 A 
ATOM     12  C   UNL     1      -2.369  -6.017   1.970  0.00  0.00    +0.034 A 
ATOM     13  C   UNL     1      -3.438  -6.657   2.567  0.00  0.00    +0.045 A 
ATOM     14  C   UNL     1      -3.219  -7.643   3.514  0.00  0.00    -0.029 A 
ATOM     15  C   UNL     1      -1.931  -7.994   3.870  0.00  0.00    +0.050 A 
ATOM     16  C   UNL     1      -0.850  -7.363   3.275  0.00  0.00    +0.126 A 
ATOM     17  C   UNL     1      -4.391  -8.336   4.160  0.00  0.00    +0.045 C 
ATOM     18 CL   UNL     1      -5.061  -6.224   2.127  0.00  0.00    -0.083 Cl
BRANCH  16  19
ATOM     19  O   UNL     1       0.417  -7.712   3.621  0.00  0.00    -0.506 OA
ATOM     20  H   UNL     1       0.776  -7.204   4.361  0.00  0.00    +0.292 HD
ENDBRANCH  16  19
ENDBRANCH   4  11
BRANCH   2  21
ATOM     21  C   UNL     1      -0.492  -2.671   3.237  0.00  0.00    +0.013 A 
ATOM     22  C   UNL     1       0.544  -2.130   3.974  0.00  0.00    +0.008 A 
ATOM     23  C   UNL     1       0.383  -1.899   5.328  0.00  0.00    +0.001 A 
ATOM     24  C   UNL     1      -0.815  -2.209   5.946  0.00  0.00    +0.003 A 
ATOM     25  C   UNL     1      -1.852  -2.751   5.210  0.00  0.00    +0.039 A 
ATOM     26  C   UNL     1      -1.694  -2.977   3.853  0.00  0.00    +0.129 A 
ATOM     27  F   UNL     1      -2.709  -3.502   3.133  0.00  0.00    -0.205 F 
ENDBRANCH   2  21
BRANCH   1  28
ATOM     28  C   UNL     1       0.545  -0.523   1.193  0.00  0.00    +0.109 C 
BRANCH  28  30
ATOM     29  C   UNL     1      -0.295   1.448  -0.092  0.00  0.00    +0.005 C 
ATOM     30  C   UNL     1      -0.172  -0.077  -0.083  0.00  0.00    +0.016 C 
ENDBRANCH  28  30
ENDBRANCH   1  28
TORSDOF 5
