REMARK  Name = ZINC09487078
REMARK  9 active torsions:
REMARK  status: ('A' for Active; 'I' for Inactive)
REMARK    1  A    between atoms: C_1  and  C_2
REMARK    2  A    between atoms: C_5  and  N_11
REMARK    3  A    between atoms: C_6  and  N_8
REMARK    4  A    between atoms: C_12  and  C_14
REMARK    5  A    between atoms: C_14  and  O_15
REMARK    6  A    between atoms: O_15  and  C_16
REMARK    7  A    between atoms: C_16  and  C_18
REMARK    8  A    between atoms: C_25  and  C_30
REMARK    9  A    between atoms: C_26  and  C_29
REMARK                            x       y       z     vdW  Elec       q    Type
REMARK                         _______ _______ _______ _____ _____    ______ ____
ROOT
ATOM      1  C   UNL     1       2.639   5.875   0.777  0.00  0.00    +0.343 C 
ATOM      2  O   UNL     1       1.600   6.503   0.814  0.00  0.00    -0.245 OA
ENDROOT
BRANCH   1   3
ATOM      3  C   UNL     1       2.616   4.427   0.503  0.00  0.00    +0.102 A 
ATOM      4  C   UNL     1       3.808   3.702   0.458  0.00  0.00    +0.019 A 
ATOM      5  C   UNL     1       3.793   2.344   0.201  0.00  0.00    +0.002 A 
ATOM      6  C   UNL     1       2.599   1.684  -0.015  0.00  0.00    +0.015 A 
ATOM      7  C   UNL     1       1.398   2.390   0.025  0.00  0.00    +0.065 A 
ATOM      8  C   UNL     1       1.396   3.769   0.285  0.00  0.00    +0.153 A 
ATOM      9  O   UNL     1       0.231   4.443   0.322  0.00  0.00    -0.454 OA
ATOM     10  C   UNL     1      -0.952   3.844   0.119  0.00  0.00    +0.142 A 
ATOM     11  C   UNL     1      -1.063   2.515  -0.147  0.00  0.00    +0.040 A 
ATOM     12  C   UNL     1       0.104   1.716  -0.202  0.00  0.00    +0.196 A 
ATOM     13  O   UNL     1       0.044   0.520  -0.432  0.00  0.00    -0.287 OA
ATOM     14  C   UNL     1      -2.418   1.896  -0.374  0.00  0.00    +0.051 C 
BRANCH  10  15
ATOM     15  C   UNL     1      -2.181   4.661   0.177  0.00  0.00    +0.018 A 
ATOM     16  C   UNL     1      -2.276   5.841  -0.564  0.00  0.00    +0.011 A 
ATOM     17  C   UNL     1      -3.429   6.596  -0.509  0.00  0.00    +0.001 A 
ATOM     18  C   UNL     1      -4.486   6.193   0.288  0.00  0.00    +0.000 A 
ATOM     19  C   UNL     1      -4.397   5.028   1.030  0.00  0.00    +0.001 A 
ATOM     20  C   UNL     1      -3.252   4.261   0.980  0.00  0.00    +0.011 A 
ENDBRANCH  10  15
ENDBRANCH   1   3
BRANCH   1  21
ATOM     21  O   UNL     1       3.813   6.503   0.985  0.00  0.00    -0.452 OA
BRANCH  21  22
ATOM     22  C   UNL     1       3.760   7.930   1.250  0.00  0.00    +0.328 C 
BRANCH  22  24
ATOM     23  N   UNL     1       5.355   9.762   1.717  0.00  0.00    -0.281 N 
ATOM     24  C   UNL     1       5.158   8.455   1.456  0.00  0.00    +0.255 C 
ATOM     25  O   UNL     1       6.105   7.700   1.388  0.00  0.00    -0.272 OA
ATOM     26  H   UNL     1       4.595  10.352   1.841  0.00  0.00    +0.155 HD
BRANCH  23  31
ATOM     27  C   UNL     1      10.630  11.816   2.090  0.00  0.00    +0.044 C 
ATOM     28  C   UNL     1       9.229  11.271   1.991  0.00  0.00    -0.048 A 
ATOM     29  C   UNL     1       8.947  10.003   2.466  0.00  0.00    +0.005 A 
ATOM     30  C   UNL     1       7.664   9.500   2.377  0.00  0.00    +0.026 A 
ATOM     31  C   UNL     1       6.656  10.269   1.809  0.00  0.00    +0.064 A 
ATOM     32  C   UNL     1       6.944  11.539   1.328  0.00  0.00    +0.148 A 
ATOM     33  C   UNL     1       8.228  12.039   1.426  0.00  0.00    +0.038 A 
BRANCH  32  34
ATOM     34  N   UNL     1       5.874  12.360   0.717  0.00  0.00    +0.058 N 
ATOM     35  O   UNL     1       6.142  13.440   0.222  0.00  0.00    -0.126 OA
ATOM     36  O   UNL     1       4.725  11.955   0.709  0.00  0.00    -0.126 OA
ENDBRANCH  32  34
ENDBRANCH  23  31
ENDBRANCH  22  24
ENDBRANCH  21  22
ENDBRANCH   1  21
TORSDOF 7
