REMARK  Name = ZINC41585400
REMARK  6 active torsions:
REMARK  status: ('A' for Active; 'I' for Inactive)
REMARK    1  A    between atoms: C_1  and  C_2
REMARK    2  A    between atoms: C_4  and  O_33
REMARK    3  A    between atoms: C_5  and  C_19
REMARK    4  A    between atoms: C_11  and  C_12
REMARK    5  A    between atoms: C_19  and  N_20
REMARK    6  A    between atoms: N_23  and  C_26
REMARK                            x       y       z     vdW  Elec       q    Type
REMARK                         _______ _______ _______ _____ _____    ______ ____
ROOT
ATOM      1  C   UNL     1      -0.072   1.508   0.015  0.00  0.00    +0.045 C 
ATOM      2  C   UNL     1      -0.061   0.002   0.005  0.00  0.00    -0.033 A 
ATOM      3  C   UNL     1      -0.080  -0.675  -1.182  0.00  0.00    +0.050 A 
ATOM      4  C   UNL     1      -0.071  -2.067  -1.193  0.00  0.00    +0.122 A 
ATOM      5  C   UNL     1      -0.042  -2.782  -0.006  0.00  0.00    +0.020 A 
ATOM      6  C   UNL     1      -0.022  -2.110   1.209  0.00  0.00    +0.145 A 
ATOM      7  C   UNL     1      -0.026  -0.705   1.208  0.00  0.00    +0.071 A 
ATOM      8  C   UNL     1       0.007  -0.288   2.621  0.00  0.00    +0.232 C 
ATOM      9  O   UNL     1       0.009   0.847   3.064  0.00  0.00    -0.283 OA
ATOM     10  C   UNL     1       0.035  -1.553   3.378  0.00  0.00    +0.176 C 
ATOM     11  C   UNL     1       0.069  -1.679   4.727  0.00  0.00    +0.058 C 
ATOM     12  O   UNL     1       0.005  -2.566   2.481  0.00  0.00    -0.451 OA
ENDROOT
BRANCH  11  13
ATOM     13  C   UNL     1      -0.018  -3.012   5.343  0.00  0.00    -0.019 A 
ATOM     14  C   UNL     1      -0.116  -3.158   6.735  0.00  0.00    +0.028 A 
ATOM     15  C   UNL     1      -0.195  -4.428   7.269  0.00  0.00    +0.111 A 
ATOM     16  N   UNL     1      -0.180  -5.493   6.491  0.00  0.00    -0.263 NA
ATOM     17  C   UNL     1      -0.090  -5.402   5.178  0.00  0.00    +0.111 A 
ATOM     18  C   UNL     1      -0.011  -4.173   4.556  0.00  0.00    +0.028 A 
ENDBRANCH  11  13
BRANCH   4  19
ATOM     19  O   UNL     1      -0.090  -2.730  -2.377  0.00  0.00    -0.506 OA
ATOM     20  H   UNL     1       0.787  -2.916  -2.738  0.00  0.00    +0.292 HD
ENDBRANCH   4  19
BRANCH   5  21
ATOM     21  C   UNL     1      -0.032  -4.288  -0.034  0.00  0.00    -0.035 C 
BRANCH  21  22
ATOM     22  N   UNL     1       1.355  -4.769  -0.071  0.00  0.00    +0.385 N 
ATOM     23  C   UNL     1       1.985  -4.343  -1.327  0.00  0.00    -0.059 C 
ATOM     24  C   UNL     1       3.464  -4.744  -1.317  0.00  0.00    +0.086 C 
ATOM     25  N   UNL     1       3.554  -6.188  -1.051  0.00  0.00    -0.331 N 
ATOM     26  C   UNL     1       2.815  -6.729   0.100  0.00  0.00    +0.086 C 
ATOM     27  C   UNL     1       1.367  -6.234   0.023  0.00  0.00    -0.059 C 
ATOM     28  H   UNL     1       1.866  -4.379   0.708  0.00  0.00    -0.081 HD
BRANCH  25  29
ATOM     29  C   UNL     1       4.320  -7.024  -1.871  0.00  0.00    +0.065 A 
ATOM     30  C   UNL     1       5.656  -7.255  -1.573  0.00  0.00    +0.026 A 
ATOM     31  C   UNL     1       6.410  -8.081  -2.384  0.00  0.00    +0.002 A 
ATOM     32  C   UNL     1       5.837  -8.678  -3.492  0.00  0.00    +0.003 A 
ATOM     33  C   UNL     1       4.506  -8.450  -3.793  0.00  0.00    +0.040 A 
ATOM     34  C   UNL     1       3.744  -7.629  -2.982  0.00  0.00    +0.144 A 
ATOM     35  F   UNL     1       2.442  -7.411  -3.273  0.00  0.00    -0.204 F 
ENDBRANCH  25  29
ENDBRANCH  21  22
ENDBRANCH   5  21
TORSDOF 5
