REMARK  Name = ZINC61871925
REMARK  11 active torsions:
REMARK  status: ('A' for Active; 'I' for Inactive)
REMARK    1  A    between atoms: C_1  and  C_2
REMARK    2  A    between atoms: C_2  and  C_3
REMARK    3  A    between atoms: C_6  and  C_9
REMARK    4  A    between atoms: C_9  and  C_10
REMARK    5  A    between atoms: C_9  and  N_27
REMARK    6  A    between atoms: C_10  and  N_11
REMARK    7  A    between atoms: C_12  and  C_14
REMARK    8  A    between atoms: N_16  and  C_17
REMARK    9  A    between atoms: C_24  and  C_26
REMARK   10  A    between atoms: N_27  and  C_28
REMARK   11  A    between atoms: N_27  and  C_29
REMARK                            x       y       z     vdW  Elec       q    Type
REMARK                         _______ _______ _______ _____ _____    ______ ____
ROOT
ATOM      1  N   UNL     1      -4.487  -4.069   0.960  0.00  0.00    -0.309 N 
ATOM      2  C   UNL     1      -4.184  -5.383   0.946  0.00  0.00    +0.299 C 
ATOM      3  O   UNL     1      -4.598  -6.092   0.053  0.00  0.00    -0.265 OA
ATOM      4  H   UNL     1      -4.156  -3.503   1.674  0.00  0.00    +0.149 HD
ENDROOT
BRANCH   2   5
ATOM      5  C   UNL     1      -3.338  -5.965   2.030  0.00  0.00    +0.303 C 
ATOM      6  O   UNL     1      -2.923  -5.256   2.924  0.00  0.00    -0.265 OA
ATOM      7  N   UNL     1      -3.035  -7.278   2.017  0.00  0.00    -0.278 N 
ATOM      8  H   UNL     1      -3.412  -7.856   1.335  0.00  0.00    +0.155 HD
BRANCH   7   9
ATOM      9  C   UNL     1      -2.177  -7.808   2.984  0.00  0.00    +0.037 A 
ATOM     10  C   UNL     1      -2.210  -7.311   4.286  0.00  0.00    +0.025 A 
ATOM     11  C   UNL     1      -1.377  -7.819   5.242  0.00  0.00    +0.033 A 
ATOM     12  C   UNL     1      -0.485  -8.843   4.918  0.00  0.00    +0.110 A 
ATOM     13  C   UNL     1      -0.448  -9.346   3.608  0.00  0.00    +0.157 A 
ATOM     14  C   UNL     1      -1.301  -8.828   2.647  0.00  0.00    +0.071 A 
ATOM     15  O   UNL     1       0.497 -10.311   3.600  0.00  0.00    -0.440 OA
ATOM     16  C   UNL     1       1.015 -10.399   4.836  0.00  0.00    +0.194 A 
ATOM     17  N   UNL     1       0.446  -9.539   5.625  0.00  0.00    -0.214 NA
ATOM     18  C   UNL     1       2.101 -11.359   5.248  0.00  0.00    +0.109 C 
ENDBRANCH   7   9
ENDBRANCH   2   5
BRANCH   1  19
ATOM     19  C   UNL     1      -5.317  -3.498  -0.103  0.00  0.00    +0.094 C 
BRANCH  19  20
ATOM     20  C   UNL     1      -5.404  -1.981   0.077  0.00  0.00    -0.021 C 
BRANCH  20  24
ATOM     21  C   UNL     1      -1.502  -0.280  -0.281  0.00  0.00    -0.048 A 
ATOM     22  C   UNL     1      -2.050  -0.494   0.970  0.00  0.00    +0.004 A 
ATOM     23  C   UNL     1      -3.313  -1.044   1.085  0.00  0.00    +0.002 A 
ATOM     24  C   UNL     1      -4.028  -1.380  -0.049  0.00  0.00    -0.059 A 
ATOM     25  C   UNL     1      -3.479  -1.166  -1.300  0.00  0.00    +0.002 A 
ATOM     26  C   UNL     1      -2.218  -0.612  -1.416  0.00  0.00    +0.004 A 
BRANCH  21  28
ATOM     27  C   UNL     1      -0.237   1.844  -0.471  0.00  0.00    +0.009 C 
ATOM     28  C   UNL     1      -0.125   0.320  -0.407  0.00  0.00    +0.032 C 
ENDBRANCH  21  28
ENDBRANCH  20  24
BRANCH  20  29
ATOM     29  N   UNL     1      -6.282  -1.415  -0.955  0.00  0.00    +0.382 N 
ATOM     30  C   UNL     1      -7.648  -1.922  -0.768  0.00  0.00    -0.096 C 
ATOM     31  C   UNL     1      -6.284   0.050  -0.847  0.00  0.00    -0.096 C 
ATOM     32  H   UNL     1      -5.946  -1.684  -1.868  0.00  0.00    -0.082 HD
ENDBRANCH  20  29
ENDBRANCH  19  20
ENDBRANCH   1  19
TORSDOF 7
