REMARK  Name = ZINC03011837
REMARK  6 active torsions:
REMARK  status: ('A' for Active; 'I' for Inactive)
REMARK    1  A    between atoms: C_1  and  C_2
REMARK    2  A    between atoms: C_5  and  C_8
REMARK    3  A    between atoms: C_11  and  C_33
REMARK    4  A    between atoms: C_16  and  C_18
REMARK    5  A    between atoms: N_20  and  C_21
REMARK    6  A    between atoms: C_26  and  C_27
REMARK                            x       y       z     vdW  Elec       q    Type
REMARK                         _______ _______ _______ _____ _____    ______ ____
ROOT
ATOM      1  C   UNL     1       0.068  -4.324  -0.025  0.00  0.00    +0.104 C 
ATOM      2  C   UNL     1       1.495  -4.822   0.230  0.00  0.00    +0.063 C 
ATOM      3  C   UNL     1       2.022  -4.242   1.548  0.00  0.00    +0.215 C 
ATOM      4  N   UNL     1       1.027  -4.472   2.599  0.00  0.00    -0.238 N 
ATOM      5  C   UNL     1      -0.288  -4.747   2.350  0.00  0.00    +0.119 A 
ATOM      6  C   UNL     1      -0.915  -4.904   3.533  0.00  0.00    +0.078 A 
ATOM      7  C   UNL     1       0.046  -4.718   4.553  0.00  0.00    +0.149 A 
ATOM      8  N   UNL     1       1.209  -4.458   3.981  0.00  0.00    -0.164 NA
ATOM      9  N   UNL     1      -0.808  -4.828   1.051  0.00  0.00    -0.322 N 
ATOM     10  H   UNL     1      -1.688  -5.195   0.868  0.00  0.00    +0.148 HD
ENDROOT
BRANCH   1  15
ATOM     11  C   UNL     1      -0.004   1.454  -0.034  0.00  0.00    +0.044 C 
ATOM     12  C   UNL     1       0.015  -0.053  -0.032  0.00  0.00    -0.050 A 
ATOM     13  C   UNL     1       0.019  -0.746  -1.228  0.00  0.00    +0.004 A 
ATOM     14  C   UNL     1       0.037  -2.128  -1.225  0.00  0.00    +0.006 A 
ATOM     15  C   UNL     1       0.050  -2.817  -0.027  0.00  0.00    -0.027 A 
ATOM     16  C   UNL     1       0.047  -2.124   1.169  0.00  0.00    +0.006 A 
ATOM     17  C   UNL     1       0.034  -0.742   1.167  0.00  0.00    +0.004 A 
ENDBRANCH   1  15
BRANCH   7  18
ATOM     18  C   UNL     1      -0.206  -4.799   6.006  0.00  0.00    +0.268 C 
ATOM     19  O   UNL     1      -1.324  -5.046   6.416  0.00  0.00    -0.268 OA
ATOM     20  N   UNL     1       0.802  -4.600   6.877  0.00  0.00    -0.280 N 
ATOM     21  H   UNL     1       1.706  -4.468   6.551  0.00  0.00    +0.155 HD
BRANCH  20  22
ATOM     22  C   UNL     1       0.546  -4.583   8.253  0.00  0.00    +0.045 A 
ATOM     23  C   UNL     1      -0.431  -5.413   8.788  0.00  0.00    +0.025 A 
ATOM     24  C   UNL     1      -0.682  -5.395  10.146  0.00  0.00    +0.022 A 
ATOM     25  C   UNL     1       0.038  -4.550  10.973  0.00  0.00    +0.042 A 
ATOM     26  C   UNL     1       1.012  -3.723  10.442  0.00  0.00    +0.034 A 
ATOM     27  C   UNL     1       1.271  -3.742   9.085  0.00  0.00    +0.077 A 
ATOM     28 CL   UNL     1      -0.281  -4.529  12.679  0.00  0.00    -0.084 Cl
BRANCH  27  29
ATOM     29  C   UNL     1       2.337  -2.845   8.509  0.00  0.00    +0.419 C 
ATOM     30  F   UNL     1       2.923  -2.098   9.536  0.00  0.00    -0.166 F 
ATOM     31  F   UNL     1       3.314  -3.626   7.883  0.00  0.00    -0.166 F 
ATOM     32  F   UNL     1       1.761  -1.980   7.572  0.00  0.00    -0.166 F 
ENDBRANCH  27  29
ENDBRANCH  20  22
ENDBRANCH   7  18
BRANCH   3  33
ATOM     33  C   UNL     1       3.335  -4.933   1.922  0.00  0.00    +0.412 C 
ATOM     34  F   UNL     1       4.278  -4.722   0.911  0.00  0.00    -0.168 F 
ATOM     35  F   UNL     1       3.815  -4.404   3.125  0.00  0.00    -0.168 F 
ATOM     36  F   UNL     1       3.113  -6.306   2.073  0.00  0.00    -0.168 F 
ENDBRANCH   3  33
TORSDOF 5
