REMARK  Name = ZINC21486924
REMARK  8 active torsions:
REMARK  status: ('A' for Active; 'I' for Inactive)
REMARK    1  A    between atoms: C_1  and  C_2
REMARK    2  A    between atoms: C_3  and  C_12
REMARK    3  A    between atoms: C_12  and  C_14
REMARK    4  A    between atoms: C_12  and  N_20
REMARK    5  A    between atoms: N_23  and  C_26
REMARK    6  A    between atoms: C_26  and  C_28
REMARK    7  A    between atoms: C_26  and  C_34
REMARK    8  A    between atoms: C_35  and  C_44
REMARK                            x       y       z     vdW  Elec       q    Type
REMARK                         _______ _______ _______ _____ _____    ______ ____
ROOT
ATOM      1  N   UNL     1      -1.551   8.123   1.242  0.00  0.00    +0.389 N 
ATOM      2  C   UNL     1      -1.240   7.412   2.490  0.00  0.00    -0.062 C 
ATOM      3  C   UNL     1      -0.345   8.293   3.366  0.00  0.00    +0.067 C 
ATOM      4  N   UNL     1      -1.032   9.562   3.643  0.00  0.00    -0.295 NA
ATOM      5  C   UNL     1      -1.343  10.273   2.395  0.00  0.00    +0.067 C 
ATOM      6  C   UNL     1      -2.237   9.392   1.519  0.00  0.00    -0.062 C 
ATOM      7  H   UNL     1      -0.601   8.354   0.737  0.00  0.00    -0.080 HD
ENDROOT
BRANCH   1   8
ATOM      8  C   UNL     1      -2.347   7.280   0.341  0.00  0.00    -0.004 C 
BRANCH   8  11
ATOM      9  C   UNL     1       0.671   6.997  -0.329  0.00  0.00    +0.063 C 
ATOM     10  C   UNL     1      -0.309   5.858  -0.210  0.00  0.00    +0.016 A 
ATOM     11  C   UNL     1      -1.613   5.990   0.080  0.00  0.00    -0.029 A 
ATOM     12  C   UNL     1      -2.187   4.642   0.096  0.00  0.00    +0.002 A 
ATOM     13  C   UNL     1      -3.466   4.135   0.330  0.00  0.00    +0.010 A 
ATOM     14  C   UNL     1      -3.684   2.788   0.263  0.00  0.00    +0.001 A 
ATOM     15  C   UNL     1      -2.641   1.918  -0.024  0.00  0.00    +0.002 A 
ATOM     16  C   UNL     1      -1.371   2.397  -0.259  0.00  0.00    +0.026 A 
ATOM     17  C   UNL     1      -1.127   3.765  -0.202  0.00  0.00    +0.047 A 
ATOM     18  N   UNL     1      -0.001   4.536  -0.382  0.00  0.00    -0.358 N 
ATOM     19  H   UNL     1       1.030   4.238  -0.626  0.00  0.00    +0.166 HD
ENDBRANCH   8  11
BRANCH   8  20
ATOM     20  C   UNL     1      -2.566   8.005  -0.962  0.00  0.00    -0.057 A 
ATOM     21  C   UNL     1      -1.543   8.747  -1.521  0.00  0.00    +0.002 A 
ATOM     22  C   UNL     1      -1.742   9.408  -2.719  0.00  0.00    +0.000 A 
ATOM     23  C   UNL     1      -2.969   9.336  -3.352  0.00  0.00    +0.000 A 
ATOM     24  C   UNL     1      -3.994   8.598  -2.791  0.00  0.00    +0.000 A 
ATOM     25  C   UNL     1      -3.793   7.933  -1.595  0.00  0.00    +0.002 A 
ENDBRANCH   8  20
ENDBRANCH   1   8
BRANCH   4  26
ATOM     26  C   UNL     1      -0.236  10.405   4.545  0.00  0.00    +0.119 C 
BRANCH  26  27
ATOM     27  C   UNL     1       0.063   9.645   5.811  0.00  0.00    +0.002 A 
ATOM     28  C   UNL     1       1.243   9.587   6.449  0.00  0.00    +0.019 A 
ATOM     29  N   UNL     1       1.133   8.801   7.563  0.00  0.00    -0.358 N 
ATOM     30  H   UNL     1       2.007   8.640   8.211  0.00  0.00    +0.166 HD
ATOM     31  C   UNL     1      -0.153   8.321   7.673  0.00  0.00    +0.047 A 
ATOM     32  C   UNL     1      -0.881   8.832   6.583  0.00  0.00    +0.005 A 
ATOM     33  C   UNL     1      -2.229   8.503   6.430  0.00  0.00    +0.010 A 
ATOM     34  C   UNL     1      -2.838   7.692   7.346  0.00  0.00    +0.001 A 
ATOM     35  C   UNL     1      -2.125   7.189   8.425  0.00  0.00    +0.002 A 
ATOM     36  C   UNL     1      -0.793   7.497   8.593  0.00  0.00    +0.026 A 
ATOM     37  C   UNL     1       2.502  10.285   6.003  0.00  0.00    +0.063 C 
ENDBRANCH  26  27
BRANCH  26  38
ATOM     38  C   UNL     1      -1.010  11.654   4.880  0.00  0.00    -0.026 A 
ATOM     39  C   UNL     1      -2.375  11.585   5.092  0.00  0.00    +0.005 A 
ATOM     40  C   UNL     1      -3.084  12.729   5.403  0.00  0.00    +0.000 A 
ATOM     41  C   UNL     1      -2.432  13.944   5.493  0.00  0.00    +0.000 A 
ATOM     42  C   UNL     1      -1.068  14.014   5.277  0.00  0.00    +0.000 A 
ATOM     43  C   UNL     1      -0.357  12.869   4.969  0.00  0.00    +0.005 A 
ENDBRANCH  26  38
ENDBRANCH   4  26
TORSDOF 6
