REMARK  Name = ZINC35781153
REMARK  16 active torsions:
REMARK  status: ('A' for Active; 'I' for Inactive)
REMARK    1  A    between atoms: C_1  and  C_2
REMARK    2  A    between atoms: C_2  and  C_3
REMARK    3  A    between atoms: C_2  and  C_4
REMARK    4  A    between atoms: C_4  and  C_5
REMARK    5  A    between atoms: C_5  and  N_6
REMARK    6  A    between atoms: N_6  and  C_7
REMARK    7  A    between atoms: N_6  and  C_26
REMARK    8  A    between atoms: C_7  and  C_8
REMARK    9  A    between atoms: C_9  and  C_19
REMARK   10  A    between atoms: C_12  and  N_13
REMARK   11  A    between atoms: C_26  and  C_27
REMARK   12  A    between atoms: C_27  and  C_29
REMARK   13  A    between atoms: C_27  and  O_38
REMARK   14  A    between atoms: C_29  and  O_30
REMARK   15  A    between atoms: O_30  and  C_31
REMARK   16  A    between atoms: C_31  and  C_32
REMARK                            x       y       z     vdW  Elec       q    Type
REMARK                         _______ _______ _______ _____ _____    ______ ____
ROOT
ATOM      1  N   UNL     1      -2.898  -4.928  -0.019  0.00  0.00    +0.384 N 
ATOM      2  H   UNL     1      -3.763  -4.720   0.456  0.00  0.00    -0.081 HD
ENDROOT
BRANCH   1   3
ATOM      3  C   UNL     1      -2.187  -3.676  -0.314  0.00  0.00    -0.078 C 
BRANCH   3   4
ATOM      4  C   UNL     1      -3.152  -2.684  -0.967  0.00  0.00    -0.016 C 
BRANCH   4   6
ATOM      5  C   UNL     1      -3.368  -0.387  -1.924  0.00  0.00    +0.007 C 
ATOM      6  C   UNL     1      -2.447  -1.340  -1.159  0.00  0.00    -0.019 C 
ATOM      7  C   UNL     1      -2.113  -0.739   0.207  0.00  0.00    +0.007 C 
ENDBRANCH   4   6
ENDBRANCH   3   4
ENDBRANCH   1   3
BRANCH   1   8
ATOM      8  C   UNL     1      -2.060  -5.776   0.839  0.00  0.00    -0.035 C 
BRANCH   8   9
ATOM      9  C   UNL     1      -1.923  -5.138   2.197  0.00  0.00    +0.025 A 
ATOM     10  C   UNL     1      -0.720  -4.706   2.794  0.00  0.00    +0.119 A 
ATOM     11  N   UNL     1      -1.009  -4.206   3.973  0.00  0.00    -0.076 NA
ATOM     12  O   UNL     1      -2.409  -4.305   4.158  0.00  0.00    -0.339 OA
ATOM     13  C   UNL     1      -2.936  -4.871   3.059  0.00  0.00    +0.222 A 
BRANCH  10  14
ATOM     14  C   UNL     1       0.635  -4.802   2.195  0.00  0.00    +0.039 A 
ATOM     15  C   UNL     1       0.815  -4.572   0.832  0.00  0.00    +0.013 A 
ATOM     16  C   UNL     1       2.077  -4.662   0.281  0.00  0.00    +0.001 A 
ATOM     17  C   UNL     1       3.163  -4.980   1.077  0.00  0.00    +0.003 A 
ATOM     18  C   UNL     1       2.993  -5.210   2.429  0.00  0.00    +0.039 A 
ATOM     19  C   UNL     1       1.734  -5.117   2.995  0.00  0.00    +0.133 A 
ATOM     20  F   UNL     1       1.568  -5.336   4.317  0.00  0.00    -0.205 F 
ENDBRANCH  10  14
BRANCH  13  21
ATOM     21  N   UNL     1      -4.277  -5.137   2.845  0.00  0.00    -0.295 N 
ATOM     22  C   UNL     1      -4.869  -6.419   3.257  0.00  0.00    +0.136 C 
ATOM     23  C   UNL     1      -6.132  -6.127   4.075  0.00  0.00    +0.179 C 
ATOM     24  O   UNL     1      -6.979  -5.245   3.335  0.00  0.00    -0.377 OA
ATOM     25  C   UNL     1      -6.401  -3.965   3.068  0.00  0.00    +0.179 C 
ATOM     26  C   UNL     1      -5.153  -4.144   2.204  0.00  0.00    +0.136 C 
ENDBRANCH  13  21
ENDBRANCH   8   9
ENDBRANCH   1   8
BRANCH   1  27
ATOM     27  C   UNL     1      -3.186  -5.634  -1.274  0.00  0.00    -0.044 C 
BRANCH  27  28
ATOM     28  C   UNL     1      -4.052  -6.861  -0.982  0.00  0.00    +0.124 C 
BRANCH  28  29
ATOM     29  O   UNL     1      -5.327  -6.438  -0.495  0.00  0.00    -0.391 OA
ATOM     30  H   UNL     1      -5.851  -5.945  -1.141  0.00  0.00    +0.210 HD
ENDBRANCH  28  29
BRANCH  28  31
ATOM     31  C   UNL     1      -4.240  -7.671  -2.267  0.00  0.00    +0.189 C 
BRANCH  31  32
ATOM     32  O   UNL     1      -4.950  -8.875  -1.971  0.00  0.00    -0.373 OA
BRANCH  32  33
ATOM     33  C   UNL     1      -5.179  -9.709  -3.109  0.00  0.00    +0.195 C 
BRANCH  33  34
ATOM     34  C   UNL     1      -5.931 -10.944  -2.683  0.00  0.00    -0.022 A 
ATOM     35  C   UNL     1      -5.238 -12.070  -2.280  0.00  0.00    +0.006 A 
ATOM     36  C   UNL     1      -5.928 -13.203  -1.890  0.00  0.00    +0.000 A 
ATOM     37  C   UNL     1      -7.310 -13.209  -1.903  0.00  0.00    +0.000 A 
ATOM     38  C   UNL     1      -8.002 -12.082  -2.305  0.00  0.00    +0.000 A 
ATOM     39  C   UNL     1      -7.313 -10.948  -2.691  0.00  0.00    +0.006 A 
ENDBRANCH  33  34
ENDBRANCH  32  33
ENDBRANCH  31  32
ENDBRANCH  28  31
ENDBRANCH  27  28
ENDBRANCH   1  27
TORSDOF 14
