REMARK  Name = ZINC39770920
REMARK  5 active torsions:
REMARK  status: ('A' for Active; 'I' for Inactive)
REMARK    1  A    between atoms: C_3  and  C_6
REMARK    2  A    between atoms: C_8  and  S_19
REMARK    3  A    between atoms: C_9  and  N_11
REMARK    4  A    between atoms: N_11  and  C_12
REMARK    5  A    between atoms: S_19  and  C_22
REMARK                            x       y       z     vdW  Elec       q    Type
REMARK                         _______ _______ _______ _____ _____    ______ ____
ROOT
ATOM      1  C   UNL     1       3.738   1.824   0.237  0.00  0.00    +0.238 A 
ATOM      2  N   UNL     1       4.813   1.085   0.391  0.00  0.00    -0.188 NA
ATOM      3  C   UNL     1       5.894   1.876   0.316  0.00  0.00    +0.243 A 
ATOM      4  C   UNL     1       5.465   3.143   0.108  0.00  0.00    +0.237 A 
ATOM      5  O   UNL     1       4.118   3.104   0.054  0.00  0.00    -0.419 OA
ENDROOT
BRANCH   1   8
ATOM      6  C   UNL     1      -0.016   1.358   0.151  0.00  0.00    +0.008 A 
ATOM      7  C   UNL     1       1.175   2.046   0.095  0.00  0.00    +0.021 A 
ATOM      8  C   UNL     1       2.351   1.336   0.254  0.00  0.00    +0.074 A 
ATOM      9  S   UNL     1       1.747  -0.328   0.486  0.00  0.00    -0.092 S 
ATOM     10  C   UNL     1       0.000   0.016   0.359  0.00  0.00    +0.046 A 
ENDBRANCH   1   8
BRANCH   3  11
ATOM     11  S   UNL     1       7.572   1.358   0.462  0.00  0.00    +0.047 S 
ATOM     12  O   UNL     1       8.314   2.496   0.878  0.00  0.00    -0.163 OA
ATOM     13  O   UNL     1       7.560   0.144   1.200  0.00  0.00    -0.163 OA
BRANCH  11  14
ATOM     14  C   UNL     1       8.136   0.955  -1.159  0.00  0.00    +0.096 A 
ATOM     15  C   UNL     1       7.989  -0.332  -1.641  0.00  0.00    +0.029 A 
ATOM     16  C   UNL     1       8.431  -0.648  -2.912  0.00  0.00    +0.022 A 
ATOM     17  C   UNL     1       9.020   0.324  -3.701  0.00  0.00    +0.041 A 
ATOM     18  C   UNL     1       9.167   1.612  -3.218  0.00  0.00    +0.022 A 
ATOM     19  C   UNL     1       8.719   1.928  -1.949  0.00  0.00    +0.029 A 
ATOM     20 CL   UNL     1       9.576  -0.073  -5.297  0.00  0.00    -0.084 Cl
ENDBRANCH  11  14
ENDBRANCH   3  11
BRANCH   4  21
ATOM     21  N   UNL     1       6.266   4.274  -0.028  0.00  0.00    -0.283 N 
ATOM     22  H   UNL     1       7.231   4.184  -0.064  0.00  0.00    +0.155 HD
BRANCH  21  23
ATOM     23  C   UNL     1       5.678   5.539  -0.115  0.00  0.00    +0.034 A 
ATOM     24  C   UNL     1       4.455   5.782   0.497  0.00  0.00    +0.025 A 
ATOM     25  C   UNL     1       3.877   7.033   0.410  0.00  0.00    +0.022 A 
ATOM     26  C   UNL     1       4.515   8.045  -0.287  0.00  0.00    +0.041 A 
ATOM     27  C   UNL     1       5.734   7.806  -0.898  0.00  0.00    +0.022 A 
ATOM     28  C   UNL     1       6.319   6.558  -0.809  0.00  0.00    +0.025 A 
ATOM     29 CL   UNL     1       3.785   9.616  -0.396  0.00  0.00    -0.084 Cl
ENDBRANCH  21  23
ENDBRANCH   4  21
TORSDOF 5
