REMARK  Name = ZINC07588539
REMARK  5 active torsions:
REMARK  status: ('A' for Active; 'I' for Inactive)
REMARK    1  A    between atoms: C_1  and  C_2
REMARK    2  A    between atoms: C_2  and  C_4
REMARK    3  A    between atoms: C_2  and  N_56
REMARK    4  A    between atoms: C_4  and  C_6
REMARK    5  A    between atoms: C_21  and  C_23
REMARK                            x       y       z     vdW  Elec       q    Type
REMARK                         _______ _______ _______ _____ _____    ______ ____
ROOT
ATOM      1  C   UNL     1       3.871   2.470  -2.421  0.00  0.00    -0.059 C 
ATOM      2  C   UNL     1       3.633   1.814  -1.056  0.00  0.00    +0.089 C 
ATOM      3  N   UNL     1       2.248   1.321  -1.010  0.00  0.00    -0.302 N 
ATOM      4  C   UNL     1       1.775   0.471  -2.113  0.00  0.00    +0.089 C 
ATOM      5  C   UNL     1       2.084   1.185  -3.439  0.00  0.00    -0.059 C 
ATOM      6  C   UNL     1       1.436   1.635   0.018  0.00  0.00    +0.260 C 
ATOM      7  O   UNL     1       0.324   1.157   0.081  0.00  0.00    -0.271 OA
ATOM      8  N   UNL     1       3.529   1.497  -3.481  0.00  0.00    +0.388 N 
ATOM      9  H   UNL     1       4.061   0.633  -3.325  0.00  0.00    -0.081 HD
ENDROOT
BRANCH   6  10
ATOM     10  C   UNL     1       1.911   2.581   1.091  0.00  0.00    +0.296 C 
ATOM     11  C   UNL     1       2.982   1.894   1.950  0.00  0.00    +0.283 C 
ATOM     12  O   UNL     1       3.401   2.813   2.965  0.00  0.00    -0.484 OA
ATOM     13  C   UNL     1       2.418   3.477   3.633  0.00  0.00    +0.162 A 
ATOM     14  C   UNL     1       2.714   4.096   4.838  0.00  0.00    +0.049 A 
ATOM     15  C   UNL     1       1.727   4.777   5.527  0.00  0.00    +0.004 A 
ATOM     16  C   UNL     1       0.444   4.843   5.016  0.00  0.00    +0.004 A 
ATOM     17  C   UNL     1       0.143   4.227   3.816  0.00  0.00    +0.049 A 
ATOM     18  C   UNL     1       1.128   3.542   3.121  0.00  0.00    +0.163 A 
ATOM     19  O   UNL     1       0.815   2.937   1.941  0.00  0.00    -0.473 OA
ENDBRANCH   6  10
BRANCH   8  21
ATOM     20  C   UNL     1       3.396   1.091  -5.893  0.00  0.00    -0.005 C 
ATOM     21  C   UNL     1       3.887   2.048  -4.805  0.00  0.00    +0.001 C 
BRANCH  21  22
ATOM     22  C   UNL     1       3.255   3.401  -5.004  0.00  0.00    +0.152 C 
ATOM     23  O   UNL     1       2.293   3.727  -4.339  0.00  0.00    -0.294 OA
BRANCH  22  24
ATOM     24  C   UNL     1       3.784   4.295  -5.969  0.00  0.00    +0.041 A 
ATOM     25  C   UNL     1       4.864   4.075  -6.798  0.00  0.00    +0.095 A 
ATOM     26  N   UNL     1       5.064   5.155  -7.577  0.00  0.00    -0.360 N 
ATOM     27  H   UNL     1       5.767   5.234  -8.240  0.00  0.00    +0.165 HD
ATOM     28  C   UNL     1       4.131   6.135  -7.302  0.00  0.00    +0.047 A 
ATOM     29  C   UNL     1       3.286   5.646  -6.293  0.00  0.00    +0.010 A 
ATOM     30  C   UNL     1       2.247   6.435  -5.809  0.00  0.00    +0.011 A 
ATOM     31  C   UNL     1       2.045   7.694  -6.333  0.00  0.00    +0.001 A 
ATOM     32  C   UNL     1       2.875   8.176  -7.333  0.00  0.00    +0.002 A 
ATOM     33  C   UNL     1       3.911   7.408  -7.818  0.00  0.00    +0.026 A 
ENDBRANCH  22  24
ENDBRANCH  21  22
ENDBRANCH   8  21
TORSDOF 4
