REMARK  Name = ZINC36146575
REMARK  11 active torsions:
REMARK  status: ('A' for Active; 'I' for Inactive)
REMARK    1  A    between atoms: C_4  and  O_7
REMARK    2  A    between atoms: O_7  and  C_8
REMARK    3  A    between atoms: C_8  and  C_9
REMARK    4  A    between atoms: C_9  and  C_11
REMARK    5  A    between atoms: C_9  and  O_35
REMARK    6  A    between atoms: C_11  and  N_12
REMARK    7  A    between atoms: N_12  and  C_13
REMARK    8  A    between atoms: N_12  and  C_21
REMARK    9  A    between atoms: C_13  and  C_14
REMARK   10  A    between atoms: C_21  and  C_22
REMARK   11  A    between atoms: C_25  and  C_28
REMARK                            x       y       z     vdW  Elec       q    Type
REMARK                         _______ _______ _______ _____ _____    ______ ____
ROOT
ATOM      1  N   UNL     1       6.331  -4.795  -0.358  0.00  0.00    +0.387 N 
ATOM      2  H   UNL     1       6.905  -4.605   0.450  0.00  0.00    -0.081 HD
ENDROOT
BRANCH   1   3
ATOM      3  C   UNL     1       4.965  -4.313  -0.112  0.00  0.00    -0.043 C 
BRANCH   3   4
ATOM      4  C   UNL     1       5.009  -2.838   0.290  0.00  0.00    +0.135 C 
BRANCH   4   5
ATOM      5  O   UNL     1       5.745  -2.697   1.506  0.00  0.00    -0.390 OA
ATOM      6  H   UNL     1       5.369  -3.185   2.252  0.00  0.00    +0.210 HD
ENDBRANCH   4   5
BRANCH   4   7
ATOM      7  C   UNL     1       3.583  -2.322   0.494  0.00  0.00    +0.258 C 
BRANCH   7   8
ATOM      8  O   UNL     1       3.617  -0.918   0.755  0.00  0.00    -0.489 OA
BRANCH   8  12
ATOM      9  C   UNL     1      -0.003   0.960   1.379  0.00  0.00    +0.000 A 
ATOM     10  C   UNL     1       1.171   1.690   1.428  0.00  0.00    +0.004 A 
ATOM     11  C   UNL     1       2.384   1.063   1.220  0.00  0.00    +0.045 A 
ATOM     12  C   UNL     1       2.425  -0.299   0.961  0.00  0.00    +0.121 A 
ATOM     13  C   UNL     1       1.246  -1.029   0.912  0.00  0.00    +0.045 A 
ATOM     14  C   UNL     1       0.035  -0.398   1.121  0.00  0.00    +0.004 A 
ENDBRANCH   8  12
ENDBRANCH   7   8
ENDBRANCH   4   7
ENDBRANCH   3   4
ENDBRANCH   1   3
BRANCH   1  15
ATOM     15  C   UNL     1       6.890  -4.105  -1.529  0.00  0.00    -0.043 C 
BRANCH  15  16
ATOM     16  C   UNL     1       6.019  -4.368  -2.730  0.00  0.00    -0.063 A 
ATOM     17  C   UNL     1       6.258  -5.471  -3.529  0.00  0.00    +0.002 A 
ATOM     18  C   UNL     1       5.459  -5.712  -4.631  0.00  0.00    +0.002 A 
ATOM     19  C   UNL     1       4.421  -4.851  -4.935  0.00  0.00    +0.020 A 
ATOM     20  C   UNL     1       4.182  -3.748  -4.136  0.00  0.00    +0.041 A 
ATOM     21  C   UNL     1       4.978  -3.510  -3.030  0.00  0.00    +0.021 A 
ATOM     22 CL   UNL     1       2.879  -2.666  -4.517  0.00  0.00    -0.084 Cl
ENDBRANCH  15  16
ENDBRANCH   1  15
BRANCH   1  23
ATOM     23  C   UNL     1       6.302  -6.242  -0.610  0.00  0.00    -0.030 C 
BRANCH  23  24
ATOM     24  C   UNL     1       7.734  -6.765  -0.743  0.00  0.00    +0.194 C 
ATOM     25  C   UNL     1       7.743  -8.280  -1.056  0.00  0.00    +0.104 C 
ATOM     26  C   UNL     1       8.932  -8.775  -0.255  0.00  0.00    +0.092 C 
ATOM     27  N   UNL     1       9.254  -7.862   0.599  0.00  0.00    -0.089 NA
ATOM     28  O   UNL     1       8.418  -6.722   0.526  0.00  0.00    -0.392 OA
BRANCH  26  29
ATOM     29  C   UNL     1       9.605 -10.078  -0.422  0.00  0.00    +0.018 A 
ATOM     30  C   UNL     1       9.159 -10.979  -1.391  0.00  0.00    +0.011 A 
ATOM     31  C   UNL     1       9.793 -12.195  -1.541  0.00  0.00    +0.001 A 
ATOM     32  C   UNL     1      10.868 -12.524  -0.735  0.00  0.00    +0.001 A 
ATOM     33  C   UNL     1      11.316 -11.637   0.227  0.00  0.00    +0.020 A 
ATOM     34  C   UNL     1      10.695 -10.413   0.385  0.00  0.00    +0.050 A 
ATOM     35 CL   UNL     1      11.264  -9.298   1.588  0.00  0.00    -0.083 Cl
ENDBRANCH  26  29
ENDBRANCH  23  24
ENDBRANCH   1  23
TORSDOF 11
