REMARK  Name = ZINC43619825
REMARK  8 active torsions:
REMARK  status: ('A' for Active; 'I' for Inactive)
REMARK    1  A    between atoms: C_1  and  C_2
REMARK    2  A    between atoms: C_2  and  C_33
REMARK    3  A    between atoms: C_7  and  C_11
REMARK    4  A    between atoms: C_11  and  N_12
REMARK    5  A    between atoms: C_15  and  C_18
REMARK    6  A    between atoms: C_18  and  C_25
REMARK    7  A    between atoms: C_25  and  C_26
REMARK    8  A    between atoms: C_26  and  C_27
REMARK                            x       y       z     vdW  Elec       q    Type
REMARK                         _______ _______ _______ _____ _____    ______ ____
ROOT
ATOM      1  N   UNL     1       1.353  -3.159   3.285  0.00  0.00    +0.382 N 
ATOM      2  C   UNL     1       2.115  -4.144   2.507  0.00  0.00    -0.078 C 
ATOM      3  C   UNL     1       3.442  -4.437   3.209  0.00  0.00    -0.013 C 
ATOM      4  C   UNL     1       3.162  -4.995   4.607  0.00  0.00    +0.018 C 
ATOM      5  C   UNL     1       2.304  -3.992   5.384  0.00  0.00    -0.013 C 
ATOM      6  C   UNL     1       1.019  -3.715   4.602  0.00  0.00    -0.078 C 
ATOM      7  H   UNL     1       1.909  -2.325   3.405  0.00  0.00    -0.081 HD
ENDROOT
BRANCH   4   8
ATOM      8  C   UNL     1       4.484  -5.217   5.345  0.00  0.00    +0.115 C 
ATOM      9  C   UNL     1       5.408  -6.100   4.530  0.00  0.00    +0.244 C 
ATOM     10  O   UNL     1       5.208  -7.245   4.182  0.00  0.00    -0.273 OA
ATOM     11  N   UNL     1       6.497  -5.349   4.272  0.00  0.00    -0.238 N 
ATOM     12  C   UNL     1       6.391  -4.127   4.805  0.00  0.00    +0.307 C 
ATOM     13  O   UNL     1       7.247  -3.271   4.707  0.00  0.00    -0.252 OA
ATOM     14  N   UNL     1       5.230  -3.952   5.462  0.00  0.00    -0.285 N 
ATOM     15  H   UNL     1       7.263  -5.658   3.763  0.00  0.00    +0.159 HD
ATOM     16  H   UNL     1       4.941  -3.149   5.923  0.00  0.00    +0.151 HD
BRANCH   8  17
ATOM     17  C   UNL     1       4.233  -5.824   6.726  0.00  0.00    +0.040 C 
BRANCH  17  18
ATOM     18  C   UNL     1       5.556  -5.919   7.490  0.00  0.00    +0.038 C 
BRANCH  18  19
ATOM     19  C   UNL     1       5.309  -6.518   8.851  0.00  0.00    -0.047 A 
ATOM     20  C   UNL     1       5.010  -5.697   9.922  0.00  0.00    +0.003 A 
ATOM     21  C   UNL     1       4.783  -6.246  11.171  0.00  0.00    +0.000 A 
ATOM     22  C   UNL     1       4.854  -7.615  11.347  0.00  0.00    +0.000 A 
ATOM     23  C   UNL     1       5.152  -8.435  10.275  0.00  0.00    +0.000 A 
ATOM     24  C   UNL     1       5.375  -7.887   9.026  0.00  0.00    +0.003 A 
ENDBRANCH  18  19
ENDBRANCH  17  18
ENDBRANCH   8  17
ENDBRANCH   4   8
BRANCH   1  25
ATOM     25  C   UNL     1       0.116  -2.822   2.569  0.00  0.00    -0.047 C 
BRANCH  25  31
ATOM     26  C   UNL     1      -0.019   1.526   0.010  0.00  0.00    +0.012 C 
ATOM     27  C   UNL     1       0.002  -0.004   0.002  0.00  0.00    -0.025 C 
ATOM     28  C   UNL     1       1.147  -0.608  -0.837  0.00  0.00    -0.000 C 
ATOM     29  C   UNL     1       0.881  -2.091  -1.135  0.00  0.00    +0.031 C 
ATOM     30  C   UNL     1       0.545  -2.814   0.146  0.00  0.00    -0.029 C 
ATOM     31  C   UNL     1       0.457  -2.139   1.270  0.00  0.00    -0.086 C 
ATOM     32  C   UNL     1       0.726  -0.624   1.211  0.00  0.00    +0.019 C 
ATOM     33  C   UNL     1       2.024  -0.376   0.405  0.00  0.00    +0.012 C 
ATOM     34  C   UNL     1      -1.369  -0.620  -0.281  0.00  0.00    +0.012 C 
ENDBRANCH  25  31
ENDBRANCH   1  25
TORSDOF 6
