REMARK  Name = ZINC39677410
REMARK  6 active torsions:
REMARK  status: ('A' for Active; 'I' for Inactive)
REMARK    1  A    between atoms: C_6  and  C_7
REMARK    2  A    between atoms: C_7  and  N_8
REMARK    3  A    between atoms: C_9  and  C_11
REMARK    4  A    between atoms: C_22  and  C_24
REMARK    5  A    between atoms: C_24  and  C_25
REMARK    6  A    between atoms: C_25  and  C_26
REMARK                            x       y       z     vdW  Elec       q    Type
REMARK                         _______ _______ _______ _____ _____    ______ ____
ROOT
ATOM      1  C   UNL     1      -3.309  -1.941  -3.029  0.00  0.00    +0.100 C 
ATOM      2  C   UNL     1      -3.715  -0.613  -3.707  0.00  0.00    +0.121 C 
ATOM      3  N   UNL     1      -4.878  -0.965  -4.555  0.00  0.00    -0.300 N 
ATOM      4  C   UNL     1      -5.654  -1.926  -3.735  0.00  0.00    +0.115 C 
ATOM      5  C   UNL     1      -4.585  -2.799  -3.049  0.00  0.00    -0.004 C 
ATOM      6  C   UNL     1      -5.016  -3.138  -1.625  0.00  0.00    -0.010 C 
ATOM      7  C   UNL     1      -6.252  -4.040  -1.671  0.00  0.00    -0.082 C 
ATOM      8  N   UNL     1      -5.937  -5.267  -2.413  0.00  0.00    +0.379 N 
ATOM      9  C   UNL     1      -5.615  -4.940  -3.807  0.00  0.00    -0.082 C 
ATOM     10  C   UNL     1      -4.351  -4.075  -3.851  0.00  0.00    -0.010 C 
ATOM     11  C   UNL     1      -5.166  -0.513  -5.792  0.00  0.00    +0.216 C 
ATOM     12  O   UNL     1      -6.165  -0.898  -6.360  0.00  0.00    -0.276 OA
ATOM     13  H   UNL     1      -5.147  -5.724  -1.984  0.00  0.00    -0.086 HD
ATOM     14  H   UNL     1      -6.734  -5.886  -2.390  0.00  0.00    -0.086 HD
ENDROOT
BRANCH   1  16
ATOM     15  N   UNL     1      -1.969  -2.514  -1.031  0.00  0.00    -0.311 N 
ATOM     16  C   UNL     1      -2.866  -1.692  -1.611  0.00  0.00    +0.218 C 
ATOM     17  O   UNL     1      -3.316  -0.751  -0.991  0.00  0.00    -0.275 OA
ATOM     18  H   UNL     1      -1.609  -3.265  -1.527  0.00  0.00    +0.149 HD
BRANCH  15  19
ATOM     19  C   UNL     1      -1.538  -2.272   0.348  0.00  0.00    +0.139 C 
BRANCH  19  25
ATOM     20  C   UNL     1       0.810  -3.115   0.540  0.00  0.00    +0.009 A 
ATOM     21  C   UNL     1       1.729  -4.080   0.910  0.00  0.00    +0.050 A 
ATOM     22  C   UNL     1       1.299  -5.260   1.497  0.00  0.00    +0.162 A 
ATOM     23  C   UNL     1      -0.058  -5.469   1.715  0.00  0.00    +0.162 A 
ATOM     24  C   UNL     1      -0.974  -4.498   1.341  0.00  0.00    +0.054 A 
ATOM     25  C   UNL     1      -0.539  -3.325   0.754  0.00  0.00    -0.027 A 
ATOM     26  O   UNL     1      -0.501  -6.617   2.298  0.00  0.00    -0.485 OA
ATOM     27  C   UNL     1       0.411  -7.721   2.319  0.00  0.00    +0.270 C 
ATOM     28  C   UNL     1       1.781  -7.205   2.778  0.00  0.00    +0.270 C 
ATOM     29  O   UNL     1       2.215  -6.202   1.853  0.00  0.00    -0.485 OA
ENDBRANCH  19  25
ENDBRANCH  15  19
ENDBRANCH   1  16
BRANCH  11  30
ATOM     30  C   UNL     1      -4.246   0.470  -6.468  0.00  0.00    +0.096 C 
BRANCH  30  31
ATOM     31  C   UNL     1      -4.798   0.817  -7.852  0.00  0.00    +0.013 C 
BRANCH  31  32
ATOM     32  C   UNL     1      -3.864   1.815  -8.539  0.00  0.00    -0.011 C 
ATOM     33  C   UNL     1      -3.909   3.171  -7.805  0.00  0.00    +0.003 C 
ATOM     34  C   UNL     1      -3.808   4.220  -8.940  0.00  0.00    +0.000 C 
ATOM     35  C   UNL     1      -4.657   3.585 -10.069  0.00  0.00    +0.000 C 
ATOM     36  C   UNL     1      -4.340   2.078  -9.978  0.00  0.00    +0.003 C 
ENDBRANCH  31  32
ENDBRANCH  30  31
ENDBRANCH  11  30
TORSDOF 6
