REMARK  Name = ZINC40374136
REMARK  10 active torsions:
REMARK  status: ('A' for Active; 'I' for Inactive)
REMARK    1  A    between atoms: C_1  and  C_2
REMARK    2  A    between atoms: C_2  and  C_3
REMARK    3  A    between atoms: C_6  and  C_9
REMARK    4  A    between atoms: C_9  and  C_11
REMARK    5  A    between atoms: C_9  and  N_29
REMARK    6  A    between atoms: C_11  and  N_12
REMARK    7  A    between atoms: N_12  and  C_13
REMARK    8  A    between atoms: C_14  and  C_27
REMARK    9  A    between atoms: C_16  and  C_18
REMARK   10  A    between atoms: C_23  and  N_24
REMARK                            x       y       z     vdW  Elec       q    Type
REMARK                         _______ _______ _______ _____ _____    ______ ____
ROOT
ATOM      1  N   UNL     1       3.553  -4.144   3.859  0.00  0.00    -0.314 N 
ATOM      2  H   UNL     1       3.883  -3.621   3.112  0.00  0.00    +0.149 HD
ENDROOT
BRANCH   1   3
ATOM      3  C   UNL     1       3.289  -5.486   3.698  0.00  0.00    +0.225 A 
ATOM      4  C   UNL     1       3.451  -6.228   2.537  0.00  0.00    +0.201 A 
ATOM      5  N   UNL     1       3.075  -7.501   2.826  0.00  0.00    -0.196 NA
ATOM      6  C   UNL     1       2.704  -7.553   4.079  0.00  0.00    +0.233 A 
ATOM      7  O   UNL     1       2.831  -6.333   4.637  0.00  0.00    -0.420 OA
BRANCH   6   8
ATOM      8  C   UNL     1       2.224  -8.764   4.777  0.00  0.00    +0.067 A 
ATOM      9  C   UNL     1       3.000  -9.925   4.780  0.00  0.00    +0.015 A 
ATOM     10  C   UNL     1       2.547 -11.052   5.434  0.00  0.00    +0.001 A 
ATOM     11  C   UNL     1       1.326 -11.033   6.086  0.00  0.00    +0.002 A 
ATOM     12  C   UNL     1       0.553  -9.886   6.087  0.00  0.00    +0.033 A 
ATOM     13  C   UNL     1       0.997  -8.751   5.441  0.00  0.00    +0.138 A 
BRANCH  13  14
ATOM     14  N   UNL     1       0.170  -7.522   5.448  0.00  0.00    +0.057 N 
ATOM     15  O   UNL     1      -0.847  -7.481   6.101  0.00  0.00    -0.126 OA
ATOM     16  O   UNL     1       0.512  -6.559   4.801  0.00  0.00    -0.126 OA
ENDBRANCH  13  14
ENDBRANCH   6   8
BRANCH   4  17
ATOM     17  C   UNL     1       3.925  -5.744   1.275  0.00  0.00    +0.124 C 
ATOM     18  N   UNL     1       4.300  -5.361   0.274  0.00  0.00    -0.189 NA
ENDBRANCH   4  17
ENDBRANCH   1   3
BRANCH   1  19
ATOM     19  C   UNL     1       3.333  -3.506   5.160  0.00  0.00    +0.094 C 
BRANCH  19  20
ATOM     20  C   UNL     1       3.570  -1.999   5.035  0.00  0.00    -0.020 C 
BRANCH  20  21
ATOM     21  N   UNL     1       3.427  -1.370   6.355  0.00  0.00    +0.385 N 
ATOM     22  C   UNL     1       3.602   0.082   6.225  0.00  0.00    -0.078 C 
ATOM     23  C   UNL     1       3.373   0.750   7.582  0.00  0.00    -0.019 C 
ATOM     24  C   UNL     1       4.384   0.202   8.592  0.00  0.00    -0.004 C 
ATOM     25  C   UNL     1       4.243  -1.322   8.665  0.00  0.00    -0.019 C 
ATOM     26  C   UNL     1       4.440  -1.914   7.267  0.00  0.00    -0.078 C 
ATOM     27  H   UNL     1       2.507  -1.565   6.721  0.00  0.00    -0.081 HD
ENDBRANCH  20  21
BRANCH  20  31
ATOM     28  C   UNL     1       0.708  -0.328   2.340  0.00  0.00    -0.048 A 
ATOM     29  C   UNL     1       1.992  -0.600   1.904  0.00  0.00    +0.004 A 
ATOM     30  C   UNL     1       2.918  -1.140   2.776  0.00  0.00    +0.002 A 
ATOM     31  C   UNL     1       2.561  -1.409   4.085  0.00  0.00    -0.059 A 
ATOM     32  C   UNL     1       1.278  -1.136   4.521  0.00  0.00    +0.002 A 
ATOM     33  C   UNL     1       0.353  -0.592   3.650  0.00  0.00    +0.004 A 
BRANCH  28  35
ATOM     34  C   UNL     1      -0.227   1.789   1.448  0.00  0.00    +0.009 C 
ATOM     35  C   UNL     1      -0.302   0.262   1.389  0.00  0.00    +0.032 C 
ENDBRANCH  28  35
ENDBRANCH  20  31
ENDBRANCH  19  20
ENDBRANCH   1  19
TORSDOF 9
