REMARK  Name = ZINC39431071
REMARK  5 active torsions:
REMARK  status: ('A' for Active; 'I' for Inactive)
REMARK    1  A    between atoms: C_1  and  C_2
REMARK    2  A    between atoms: C_2  and  C_4
REMARK    3  A    between atoms: C_2  and  S_16
REMARK    4  A    between atoms: S_16  and  C_17
REMARK    5  A    between atoms: N_28  and  C_29
REMARK                            x       y       z     vdW  Elec       q    Type
REMARK                         _______ _______ _______ _____ _____    ______ ____
ROOT
ATOM      1  C   UNL     1       2.416  -0.088  -1.130  0.00  0.00    +0.227 C 
ATOM      2  N   UNL     1       2.354   1.345  -0.819  0.00  0.00    -0.316 N 
ATOM      3  C   UNL     1       1.894   1.739   0.432  0.00  0.00    +0.041 A 
ATOM      4  C   UNL     1       1.262   2.955   0.626  0.00  0.00    +0.024 A 
ATOM      5  C   UNL     1       0.831   3.308   1.891  0.00  0.00    +0.002 A 
ATOM      6  C   UNL     1       1.028   2.455   2.966  0.00  0.00    +0.001 A 
ATOM      7  C   UNL     1       1.652   1.238   2.789  0.00  0.00    +0.015 A 
ATOM      8  C   UNL     1       2.087   0.867   1.518  0.00  0.00    +0.058 A 
ATOM      9  C   UNL     1       2.737  -0.432   1.273  0.00  0.00    +0.255 C 
ATOM     10  O   UNL     1       3.068  -1.138   2.207  0.00  0.00    -0.269 OA
ATOM     11  N   UNL     1       2.960  -0.829   0.008  0.00  0.00    -0.236 N 
ATOM     12  H   UNL     1       2.630   2.005  -1.475  0.00  0.00    +0.149 HD
ENDROOT
BRANCH  11  13
ATOM     13  C   UNL     1       3.728  -1.976  -0.222  0.00  0.00    +0.074 A 
ATOM     14  C   UNL     1       5.104  -1.874  -0.368  0.00  0.00    +0.026 A 
ATOM     15  C   UNL     1       5.860  -3.009  -0.595  0.00  0.00    +0.002 A 
ATOM     16  C   UNL     1       5.247  -4.245  -0.677  0.00  0.00    +0.003 A 
ATOM     17  C   UNL     1       3.876  -4.352  -0.533  0.00  0.00    +0.040 A 
ATOM     18  C   UNL     1       3.114  -3.222  -0.299  0.00  0.00    +0.145 A 
ATOM     19  F   UNL     1       1.775  -3.327  -0.152  0.00  0.00    -0.204 F 
ENDBRANCH  11  13
BRANCH   1  20
ATOM     20  S   UNL     1       0.746  -0.695  -1.498  0.00  0.00    -0.108 S 
BRANCH  20  22
ATOM     21  C   UNL     1       1.314  -0.690  -4.174  0.00  0.00    +0.027 C 
ATOM     22  C   UNL     1       0.391  -0.029  -3.148  0.00  0.00    +0.112 C 
BRANCH  22  23
ATOM     23  C   UNL     1      -1.045  -0.314  -3.507  0.00  0.00    +0.123 A 
ATOM     24  N   UNL     1      -1.474   0.012  -4.754  0.00  0.00    -0.309 N 
ATOM     25  H   UNL     1      -0.858   0.417  -5.384  0.00  0.00    +0.170 HD
ATOM     26  C   UNL     1      -2.754  -0.224  -5.125  0.00  0.00    +0.259 A 
ATOM     27  O   UNL     1      -3.153   0.062  -6.239  0.00  0.00    -0.267 OA
ATOM     28  C   UNL     1      -3.645  -0.840  -4.130  0.00  0.00    +0.065 A 
ATOM     29  C   UNL     1      -4.980  -1.123  -4.411  0.00  0.00    +0.015 A 
ATOM     30  C   UNL     1      -5.770  -1.700  -3.442  0.00  0.00    +0.001 A 
ATOM     31  C   UNL     1      -5.247  -2.000  -2.190  0.00  0.00    +0.002 A 
ATOM     32  C   UNL     1      -3.931  -1.728  -1.892  0.00  0.00    +0.028 A 
ATOM     33  C   UNL     1      -3.110  -1.143  -2.859  0.00  0.00    +0.078 A 
ATOM     34  N   UNL     1      -1.806  -0.863  -2.610  0.00  0.00    -0.233 NA
ENDBRANCH  22  23
ENDBRANCH  20  22
ENDBRANCH   1  20
TORSDOF 4
