REMARK  Name = ZINC20322967
REMARK  11 active torsions:
REMARK  status: ('A' for Active; 'I' for Inactive)
REMARK    1  A    between atoms: C_1  and  C_2
REMARK    2  A    between atoms: C_3  and  S_9
REMARK    3  A    between atoms: C_4  and  C_8
REMARK    4  A    between atoms: N_5  and  C_7
REMARK    5  A    between atoms: S_9  and  N_12
REMARK    6  A    between atoms: N_12  and  C_13
REMARK    7  A    between atoms: N_12  and  C_28
REMARK    8  A    between atoms: C_13  and  C_14
REMARK    9  A    between atoms: C_31  and  C_34
REMARK   10  A    between atoms: C_34  and  C_35
REMARK   11  A    between atoms: C_34  and  C_36
REMARK                            x       y       z     vdW  Elec       q    Type
REMARK                         _______ _______ _______ _____ _____    ______ ____
ROOT
ATOM      1  N   UNL     1      -5.429  -3.918   3.354  0.00  0.00    -0.194 N 
ENDROOT
BRANCH   1   2
ATOM      2  C   UNL     1      -4.312  -4.160   4.158  0.00  0.00    +0.052 A 
ATOM      3  C   UNL     1      -4.297  -5.251   5.018  0.00  0.00    +0.025 A 
ATOM      4  C   UNL     1      -3.190  -5.491   5.808  0.00  0.00    +0.006 A 
ATOM      5  C   UNL     1      -2.101  -4.640   5.750  0.00  0.00    -0.045 A 
ATOM      6  C   UNL     1      -2.115  -3.550   4.899  0.00  0.00    +0.006 A 
ATOM      7  C   UNL     1      -3.217  -3.308   4.103  0.00  0.00    +0.025 A 
BRANCH   5   8
ATOM      8  C   UNL     1      -0.896  -4.902   6.617  0.00  0.00    +0.013 C 
ATOM      9  C   UNL     1      -1.312  -4.873   8.090  0.00  0.00    +0.012 C 
ATOM     10  C   UNL     1      -0.313  -6.275   6.279  0.00  0.00    +0.012 C 
ENDBRANCH   5   8
ENDBRANCH   1   2
BRANCH   1  11
ATOM     11  S   UNL     1      -6.643  -2.933   3.900  0.00  0.00    +0.079 S 
ATOM     12  O   UNL     1      -7.834  -3.359   3.252  0.00  0.00    -0.150 OA
ATOM     13  O   UNL     1      -6.521  -2.883   5.315  0.00  0.00    -0.150 OA
BRANCH  11  16
ATOM     14  C   UNL     1      -7.711  -1.417   1.139  0.00  0.00    +0.069 C 
ATOM     15  C   UNL     1      -6.795  -0.743   2.127  0.00  0.00    +0.087 A 
ATOM     16  C   UNL     1      -6.302  -1.308   3.308  0.00  0.00    +0.152 A 
ATOM     17  C   UNL     1      -5.522  -0.386   3.918  0.00  0.00    +0.063 A 
ATOM     18  N   UNL     1      -5.514   0.721   3.146  0.00  0.00    -0.269 N 
ATOM     19  N   UNL     1      -6.323   0.474   2.030  0.00  0.00    -0.174 NA
ATOM     20  C   UNL     1      -4.792   1.964   3.429  0.00  0.00    +0.172 C 
ATOM     21  C   UNL     1      -4.790  -0.565   5.223  0.00  0.00    +0.067 C 
ENDBRANCH  11  16
ENDBRANCH   1  11
BRANCH   1  22
ATOM     22  C   UNL     1      -5.525  -4.535   2.029  0.00  0.00    +0.227 C 
BRANCH  22  23
ATOM     23  C   UNL     1      -6.102  -5.921   2.161  0.00  0.00    +0.235 C 
ATOM     24  O   UNL     1      -6.402  -6.351   3.255  0.00  0.00    -0.274 OA
ATOM     25  N   UNL     1      -6.283  -6.682   1.064  0.00  0.00    -0.297 N 
ATOM     26  C   UNL     1      -6.844  -8.038   1.171  0.00  0.00    +0.126 C 
ATOM     27  C   UNL     1      -5.921  -9.007   0.423  0.00  0.00    +0.125 C 
ATOM     28  N   UNL     1      -5.718  -8.524  -0.949  0.00  0.00    -0.314 N 
ATOM     29  C   UNL     1      -5.038  -7.222  -0.961  0.00  0.00    +0.125 C 
ATOM     30  C   UNL     1      -5.925  -6.180  -0.271  0.00  0.00    +0.126 C 
ATOM     31  C   UNL     1      -5.020  -9.457  -1.707  0.00  0.00    +0.099 A 
ATOM     32  C   UNL     1      -4.728  -9.184  -3.040  0.00  0.00    +0.042 A 
ATOM     33  C   UNL     1      -4.033 -10.121  -3.782  0.00  0.00    +0.005 A 
ATOM     34  C   UNL     1      -3.651 -11.305  -3.164  0.00  0.00    +0.018 A 
ATOM     35  C   UNL     1      -3.975 -11.511  -1.838  0.00  0.00    +0.084 A 
ATOM     36  N   UNL     1      -4.639 -10.598  -1.154  0.00  0.00    -0.350 N 
ATOM     37  H   UNL     1      -4.875 -10.805  -0.100  0.00  0.00    +0.166 HD
ENDBRANCH  22  23
ENDBRANCH   1  22
TORSDOF 6
