REMARK  Name = ZINC11019600
REMARK  13 active torsions:
REMARK  status: ('A' for Active; 'I' for Inactive)
REMARK    1  A    between atoms: C_1  and  C_2
REMARK    2  A    between atoms: C_4  and  C_32
REMARK    3  A    between atoms: C_5  and  N_9
REMARK    4  A    between atoms: C_6  and  C_8
REMARK    5  A    between atoms: C_10  and  C_12
REMARK    6  A    between atoms: C_12  and  C_14
REMARK    7  A    between atoms: C_12  and  S_15
REMARK    8  A    between atoms: S_15  and  C_16
REMARK    9  A    between atoms: C_19  and  C_25
REMARK   10  A    between atoms: N_20  and  C_21
REMARK   11  A    between atoms: C_21  and  C_22
REMARK   12  A    between atoms: C_22  and  C_23
REMARK   13  A    between atoms: C_22  and  C_24
REMARK                            x       y       z     vdW  Elec       q    Type
REMARK                         _______ _______ _______ _____ _____    ______ ____
ROOT
ATOM      1  S   UNL     1       1.798  -5.340   2.001  0.00  0.00    -0.074 S 
ENDROOT
BRANCH   1   2
ATOM      2  C   UNL     1       0.783  -3.912   1.814  0.00  0.00    +0.193 A 
ATOM      3  N   UNL     1      -0.249  -3.790   1.010  0.00  0.00    -0.122 NA
ATOM      4  N   UNL     1      -0.762  -2.617   1.125  0.00  0.00    -0.128 NA
ATOM      5  C   UNL     1      -0.088  -1.918   2.008  0.00  0.00    +0.168 A 
ATOM      6  N   UNL     1       0.926  -2.724   2.473  0.00  0.00    -0.302 N 
BRANCH   5   7
ATOM      7  C   UNL     1      -0.362  -0.525   2.421  0.00  0.00    +0.054 A 
ATOM      8  C   UNL     1      -0.424  -0.195   3.776  0.00  0.00    +0.014 A 
ATOM      9  C   UNL     1      -0.680   1.107   4.155  0.00  0.00    +0.001 A 
ATOM     10  C   UNL     1      -0.876   2.085   3.196  0.00  0.00    +0.003 A 
ATOM     11  C   UNL     1      -0.817   1.767   1.851  0.00  0.00    +0.039 A 
ATOM     12  C   UNL     1      -0.560   0.467   1.457  0.00  0.00    +0.134 A 
ATOM     13  F   UNL     1      -0.501   0.156   0.143  0.00  0.00    -0.205 F 
ENDBRANCH   5   7
BRANCH   6  14
ATOM     14  C   UNL     1       1.944  -2.381   3.469  0.00  0.00    +0.129 C 
BRANCH  14  15
ATOM     15  C   UNL     1       3.106  -1.659   2.783  0.00  0.00    +0.003 C 
ATOM     16  C   UNL     1       4.113  -1.197   3.837  0.00  0.00    +0.009 C 
ATOM     17  C   UNL     1       3.793  -2.614   1.804  0.00  0.00    +0.009 C 
ENDBRANCH  14  15
ENDBRANCH   6  14
ENDBRANCH   1   2
BRANCH   1  18
ATOM     18  C   UNL     1       0.997  -6.453   0.820  0.00  0.00    +0.137 C 
ATOM     19  C   UNL     1       1.155  -5.894  -0.595  0.00  0.00    +0.029 C 
BRANCH  18  21
ATOM     20  N   UNL     1       0.982  -8.896   0.434  0.00  0.00    -0.284 N 
ATOM     21  C   UNL     1       1.638  -7.814   0.898  0.00  0.00    +0.230 C 
ATOM     22  O   UNL     1       2.745  -7.936   1.378  0.00  0.00    -0.274 OA
ATOM     23  H   UNL     1       0.113  -8.793   0.015  0.00  0.00    +0.155 HD
BRANCH  20  28
ATOM     24  C   UNL     1       3.299 -14.050   0.933  0.00  0.00    +0.044 C 
ATOM     25  C   UNL     1       2.683 -12.681   0.800  0.00  0.00    -0.050 A 
ATOM     26  C   UNL     1       3.365 -11.680   0.132  0.00  0.00    +0.008 A 
ATOM     27  C   UNL     1       2.803 -10.424   0.009  0.00  0.00    -0.029 A 
ATOM     28  C   UNL     1       1.553 -10.167   0.557  0.00  0.00    +0.039 A 
ATOM     29  C   UNL     1       0.874 -11.173   1.232  0.00  0.00    -0.029 A 
ATOM     30  C   UNL     1       1.438 -12.428   1.346  0.00  0.00    +0.008 A 
ATOM     31  C   UNL     1      -0.480 -10.897   1.833  0.00  0.00    +0.045 C 
ATOM     32  C   UNL     1       3.547  -9.334  -0.718  0.00  0.00    +0.045 C 
ENDBRANCH  20  28
ENDBRANCH  18  21
ENDBRANCH   1  18
TORSDOF 7
