REMARK  Name = ZINC33657435
REMARK  8 active torsions:
REMARK  status: ('A' for Active; 'I' for Inactive)
REMARK    1  A    between atoms: C_4  and  C_7
REMARK    2  A    between atoms: C_7  and  N_8
REMARK    3  A    between atoms: C_13  and  C_34
REMARK    4  A    between atoms: C_16  and  C_21
REMARK    5  A    between atoms: C_16  and  C_31
REMARK    6  A    between atoms: C_21  and  C_22
REMARK    7  A    between atoms: C_25  and  N_28
REMARK    8  A    between atoms: C_37  and  C_40
REMARK                            x       y       z     vdW  Elec       q    Type
REMARK                         _______ _______ _______ _____ _____    ______ ____
ROOT
ATOM      1  N   UNL     1      -4.904   0.430   1.228  0.00  0.00    -0.237 N 
ATOM      2  C   UNL     1      -4.739   1.652   1.817  0.00  0.00    +0.225 C 
ATOM      3  O   UNL     1      -5.298   2.070   2.809  0.00  0.00    -0.275 OA
ATOM      4  C   UNL     1      -3.719   2.369   0.977  0.00  0.00    +0.077 C 
ATOM      5  C   UNL     1      -2.613   3.192   1.635  0.00  0.00    -0.027 C 
ATOM      6  N   UNL     1      -1.365   2.840   0.911  0.00  0.00    +0.396 N 
ATOM      7  C   UNL     1      -1.679   1.694  -0.011  0.00  0.00    +0.052 C 
ATOM      8  C   UNL     1      -2.854   1.087   0.642  0.00  0.00    +0.086 C 
ATOM      9  C   UNL     1      -3.890   0.121   0.356  0.00  0.00    +0.225 C 
ATOM     10  O   UNL     1      -3.869  -0.765  -0.471  0.00  0.00    -0.275 OA
ATOM     11  H   UNL     1      -1.018   3.710   0.336  0.00  0.00    -0.083 HD
ATOM     12  H   UNL     1      -0.592   2.546   1.636  0.00  0.00    -0.083 HD
ENDROOT
BRANCH   5  13
ATOM     13  C   UNL     1      -2.471   2.811   3.086  0.00  0.00    -0.061 A 
ATOM     14  C   UNL     1      -3.149   3.529   4.055  0.00  0.00    +0.003 A 
ATOM     15  C   UNL     1      -3.028   3.183   5.385  0.00  0.00    +0.019 A 
ATOM     16  C   UNL     1      -2.212   2.112   5.753  0.00  0.00    +0.052 A 
ATOM     17  C   UNL     1      -1.527   1.395   4.770  0.00  0.00    +0.019 A 
ATOM     18  C   UNL     1      -1.660   1.749   3.443  0.00  0.00    +0.003 A 
BRANCH  16  19
ATOM     19  C   UNL     1      -2.077   1.751   7.132  0.00  0.00    +0.099 C 
ATOM     20  N   UNL     1      -1.970   1.464   8.226  0.00  0.00    -0.191 NA
ENDBRANCH  16  19
ENDBRANCH   5  13
BRANCH   7  21
ATOM     21  C   UNL     1      -0.531   0.720  -0.068  0.00  0.00    +0.347 C 
ATOM     22  O   UNL     1      -0.746  -0.469  -0.047  0.00  0.00    -0.248 OA
ATOM     23  O   UNL     1       0.731   1.172  -0.147  0.00  0.00    -0.248 OA
ENDBRANCH   7  21
BRANCH   1  24
ATOM     24  C   UNL     1      -6.040  -0.455   1.499  0.00  0.00    +0.151 C 
BRANCH  24  28
ATOM     25  C   UNL     1      -9.203   0.410  -1.240  0.00  0.00    +0.000 A 
ATOM     26  C   UNL     1      -8.247  -0.535  -1.564  0.00  0.00    +0.000 A 
ATOM     27  C   UNL     1      -7.223  -0.814  -0.678  0.00  0.00    +0.005 A 
ATOM     28  C   UNL     1      -7.156  -0.150   0.533  0.00  0.00    -0.030 A 
ATOM     29  C   UNL     1      -8.115   0.791   0.859  0.00  0.00    +0.005 A 
ATOM     30  C   UNL     1      -9.135   1.075  -0.030  0.00  0.00    +0.000 A 
ENDBRANCH  24  28
ENDBRANCH   1  24
BRANCH   7  31
ATOM     31  C   UNL     1      -2.032   2.200  -1.411  0.00  0.00    +0.035 C 
BRANCH  31  32
ATOM     32  C   UNL     1      -0.831   2.878  -2.019  0.00  0.00    -0.048 A 
ATOM     33  C   UNL     1      -0.636   4.234  -1.836  0.00  0.00    +0.006 A 
ATOM     34  C   UNL     1       0.468   4.855  -2.389  0.00  0.00    +0.033 A 
ATOM     35  C   UNL     1       1.373   4.121  -3.134  0.00  0.00    +0.126 A 
ATOM     36  C   UNL     1       1.175   2.766  -3.322  0.00  0.00    +0.033 A 
ATOM     37  C   UNL     1       0.073   2.144  -2.764  0.00  0.00    +0.006 A 
BRANCH  35  38
ATOM     38  N   UNL     1       2.553   4.787  -3.730  0.00  0.00    +0.056 N 
ATOM     39  O   UNL     1       3.349   4.140  -4.387  0.00  0.00    -0.126 OA
ATOM     40  O   UNL     1       2.727   5.981  -3.564  0.00  0.00    -0.126 OA
ENDBRANCH  35  38
ENDBRANCH  31  32
ENDBRANCH   7  31
TORSDOF 8
