REMARK  Name = ZINC18142286
REMARK  4 active torsions:
REMARK  status: ('A' for Active; 'I' for Inactive)
REMARK    1  A    between atoms: C_4  and  C_7
REMARK    2  A    between atoms: C_11  and  C_35
REMARK    3  A    between atoms: N_19  and  N_22
REMARK    4  A    between atoms: C_23  and  C_25
REMARK                            x       y       z     vdW  Elec       q    Type
REMARK                         _______ _______ _______ _____ _____    ______ ____
ROOT
ATOM      1  C   UNL     1       3.618  -0.681   0.207  0.00  0.00    +0.054 C 
ATOM      2  C   UNL     1       3.727  -1.569  -1.014  0.00  0.00    -0.022 C 
ATOM      3  C   UNL     1       3.565  -2.857  -1.001  0.00  0.00    -0.022 C 
ATOM      4  C   UNL     1       3.216  -3.662   0.233  0.00  0.00    +0.054 C 
ATOM      5  C   UNL     1       2.665  -2.687   1.253  0.00  0.00    +0.101 C 
ATOM      6  C   UNL     1       3.753  -1.578   1.420  0.00  0.00    +0.101 C 
ATOM      7  C   UNL     1       3.365  -1.026   2.758  0.00  0.00    +0.243 C 
ATOM      8  O   UNL     1       3.513   0.114   3.145  0.00  0.00    -0.273 OA
ATOM      9  N   UNL     1       2.816  -2.057   3.450  0.00  0.00    -0.155 N 
ATOM     10  C   UNL     1       2.518  -3.151   2.670  0.00  0.00    +0.243 C 
ATOM     11  O   UNL     1       2.211  -4.262   3.044  0.00  0.00    -0.273 OA
ENDROOT
BRANCH   1  15
ATOM     12  C   UNL     1      -0.179   1.276   0.253  0.00  0.00    +0.000 A 
ATOM     13  C   UNL     1       0.921   1.889   0.822  0.00  0.00    +0.000 A 
ATOM     14  C   UNL     1       2.150   1.256   0.807  0.00  0.00    +0.004 A 
ATOM     15  C   UNL     1       2.278   0.009   0.224  0.00  0.00    -0.040 A 
ATOM     16  C   UNL     1       1.177  -0.605  -0.344  0.00  0.00    +0.004 A 
ATOM     17  C   UNL     1      -0.051   0.029  -0.330  0.00  0.00    +0.000 A 
ENDBRANCH   1  15
BRANCH   4  18
ATOM     18  C   UNL     1       4.451  -4.334   0.775  0.00  0.00    -0.040 A 
ATOM     19  C   UNL     1       4.345  -5.538   1.446  0.00  0.00    +0.004 A 
ATOM     20  C   UNL     1       5.477  -6.155   1.943  0.00  0.00    +0.000 A 
ATOM     21  C   UNL     1       6.717  -5.567   1.770  0.00  0.00    +0.000 A 
ATOM     22  C   UNL     1       6.823  -4.364   1.098  0.00  0.00    +0.000 A 
ATOM     23  C   UNL     1       5.691  -3.749   0.597  0.00  0.00    +0.004 A 
ENDBRANCH   4  18
BRANCH   9  24
ATOM     24  N   UNL     1       2.559  -2.009   4.827  0.00  0.00    -0.224 N 
ATOM     25  C   UNL     1       1.297  -1.856   5.272  0.00  0.00    +0.236 C 
ATOM     26  O   UNL     1       0.382  -1.761   4.481  0.00  0.00    -0.274 OA
ATOM     27  H   UNL     1       3.291  -2.085   5.459  0.00  0.00    +0.174 HD
BRANCH  25  28
ATOM     28  C   UNL     1       1.021  -1.804   6.753  0.00  0.00    +0.049 C 
ATOM     29  C   UNL     1       1.776  -0.626   7.371  0.00  0.00    +0.019 C 
ATOM     30  C   UNL     1       1.497  -0.573   8.874  0.00  0.00    -0.009 C 
ATOM     31  C   UNL     1      -0.005  -0.395   9.108  0.00  0.00    +0.007 C 
ATOM     32  C   UNL     1      -0.760  -1.574   8.490  0.00  0.00    -0.009 C 
ATOM     33  C   UNL     1      -0.480  -1.627   6.986  0.00  0.00    +0.019 C 
ATOM     34  C   UNL     1      -0.293  -2.877   9.141  0.00  0.00    +0.007 C 
ATOM     35  C   UNL     1       1.209  -3.054   8.908  0.00  0.00    -0.009 C 
ATOM     36  C   UNL     1       1.964  -1.876   9.526  0.00  0.00    +0.007 C 
ATOM     37  C   UNL     1       1.488  -3.107   7.404  0.00  0.00    +0.019 C 
ENDBRANCH  25  28
ENDBRANCH   9  24
TORSDOF 4
