REMARK  Name = ZINC39873547
REMARK  3 active torsions:
REMARK  status: ('A' for Active; 'I' for Inactive)
REMARK    1  A    between atoms: C_3  and  N_8
REMARK    2  A    between atoms: C_9  and  C_25
REMARK    3  A    between atoms: C_28  and  N_31
REMARK                            x       y       z     vdW  Elec       q    Type
REMARK                         _______ _______ _______ _____ _____    ______ ____
ROOT
ATOM      1  N   UNL     1       3.583   2.124  -0.021  0.00  0.00    -0.253 N 
ATOM      2  C   UNL     1       4.935   1.542  -0.043  0.00  0.00    +0.150 C 
ATOM      3  C   UNL     1       5.877   2.701  -0.041  0.00  0.00    +0.072 A 
ATOM      4  C   UNL     1       7.342   2.756  -0.048  0.00  0.00    +0.199 A 
ATOM      5  O   UNL     1       8.045   1.778  -0.234  0.00  0.00    -0.287 OA
ATOM      6  C   UNL     1       7.887   4.116   0.193  0.00  0.00    +0.066 A 
ATOM      7  C   UNL     1       9.252   4.300   0.413  0.00  0.00    +0.035 A 
ATOM      8  C   UNL     1       9.740   5.568   0.640  0.00  0.00    +0.042 A 
ATOM      9  C   UNL     1       8.875   6.655   0.649  0.00  0.00    +0.023 A 
ATOM     10  C   UNL     1       7.527   6.485   0.430  0.00  0.00    +0.048 A 
ATOM     11  C   UNL     1       7.009   5.211   0.196  0.00  0.00    +0.140 A 
ATOM     12  O   UNL     1       5.682   5.074  -0.026  0.00  0.00    -0.450 OA
ATOM     13  C   UNL     1       5.129   3.845  -0.025  0.00  0.00    +0.199 A 
ATOM     14  C   UNL     1       3.706   3.467  -0.016  0.00  0.00    +0.287 C 
ATOM     15  O   UNL     1       2.778   4.251  -0.003  0.00  0.00    -0.266 OA
ATOM     16 CL   UNL     1      11.438   5.808   0.916  0.00  0.00    -0.084 Cl
ENDROOT
BRANCH   1  19
ATOM     17  C   UNL     1      -0.017   1.378   0.010  0.00  0.00    +0.003 A 
ATOM     18  C   UNL     1       1.169   2.087   0.002  0.00  0.00    +0.023 A 
ATOM     19  C   UNL     1       2.381   1.409  -0.013  0.00  0.00    +0.039 A 
ATOM     20  C   UNL     1       2.398   0.020  -0.021  0.00  0.00    +0.038 A 
ATOM     21  C   UNL     1       1.208  -0.683  -0.013  0.00  0.00    +0.020 A 
ATOM     22  C   UNL     1       0.002  -0.004   0.002  0.00  0.00    +0.015 A 
ATOM     23 BR   UNL     1       1.228  -2.574  -0.024  0.00  0.00    -0.050 Br
ENDBRANCH   1  19
BRANCH   2  24
ATOM     24  C   UNL     1       5.126   0.717  -1.290  0.00  0.00    -0.022 A 
ATOM     25  C   UNL     1       4.625   1.165  -2.498  0.00  0.00    +0.008 A 
ATOM     26  C   UNL     1       4.800   0.408  -3.642  0.00  0.00    +0.033 A 
ATOM     27  C   UNL     1       5.476  -0.796  -3.577  0.00  0.00    +0.126 A 
ATOM     28  C   UNL     1       5.978  -1.243  -2.369  0.00  0.00    +0.033 A 
ATOM     29  C   UNL     1       5.807  -0.484  -1.226  0.00  0.00    +0.008 A 
BRANCH  27  30
ATOM     30  N   UNL     1       5.663  -1.606  -4.801  0.00  0.00    +0.056 N 
ATOM     31  O   UNL     1       5.224  -1.216  -5.858  0.00  0.00    -0.126 OA
ATOM     32  O   UNL     1       6.255  -2.659  -4.745  0.00  0.00    -0.126 OA
ENDBRANCH  27  30
ENDBRANCH   2  24
TORSDOF 3
