REMARK  Name = ZINC39611102
REMARK  6 active torsions:
REMARK  status: ('A' for Active; 'I' for Inactive)
REMARK    1  A    between atoms: C_9  and  C_12
REMARK    2  A    between atoms: C_12  and  O_14
REMARK    3  A    between atoms: O_14  and  C_15
REMARK    4  A    between atoms: C_15  and  C_16
REMARK    5  A    between atoms: N_18  and  C_19
REMARK    6  A    between atoms: C_21  and  C_30
REMARK                            x       y       z     vdW  Elec       q    Type
REMARK                         _______ _______ _______ _____ _____    ______ ____
ROOT
ATOM      1  C   UNL     1      -0.665  -6.457  -0.242  0.00  0.00    +0.252 C 
ATOM      2  O   UNL     1       0.485  -6.827  -0.341  0.00  0.00    -0.272 OA
ATOM      3  N   UNL     1      -1.667  -7.358  -0.254  0.00  0.00    -0.299 N 
ATOM      4  H   UNL     1      -2.587  -7.061  -0.175  0.00  0.00    +0.150 HD
ENDROOT
BRANCH   3   5
ATOM      5  C   UNL     1      -1.367  -8.786  -0.385  0.00  0.00    +0.151 C 
ATOM      6  C   UNL     1      -2.096  -9.621   0.694  0.00  0.00    +0.132 C 
ATOM      7  C   UNL     1      -1.235 -10.752   1.198  0.00  0.00    -0.046 C 
ATOM      8  C   UNL     1       0.073 -10.671   0.986  0.00  0.00    -0.013 C 
ATOM      9  S   UNL     1       0.371  -9.158   0.098  0.00  0.00    -0.106 S 
ATOM     10  C   UNL     1       1.121 -11.663   1.406  0.00  0.00    +0.042 C 
ATOM     11  C   UNL     1       0.511 -12.617   2.440  0.00  0.00    +0.005 C 
ATOM     12  C   UNL     1      -0.842 -13.105   1.912  0.00  0.00    +0.005 C 
ATOM     13  C   UNL     1      -1.841 -11.948   1.929  0.00  0.00    +0.032 C 
BRANCH   6  14
ATOM     14  C   UNL     1      -3.359 -10.194   0.103  0.00  0.00    +0.220 C 
ATOM     15  O   UNL     1      -3.382 -10.537  -1.060  0.00  0.00    -0.275 OA
ATOM     16  N   UNL     1      -4.462 -10.324   0.867  0.00  0.00    -0.329 N 
ATOM     17  H   UNL     1      -4.443 -10.049   1.797  0.00  0.00    +0.145 HD
ATOM     18  H   UNL     1      -5.274 -10.692   0.486  0.00  0.00    +0.145 HD
ENDBRANCH   6  14
ENDBRANCH   3   5
BRANCH   1  19
ATOM     19  C   UNL     1      -0.974  -4.988  -0.107  0.00  0.00    +0.328 C 
BRANCH  19  20
ATOM     20  O   UNL     1       0.244  -4.241  -0.121  0.00  0.00    -0.452 OA
BRANCH  20  21
ATOM     21  C   UNL     1       0.142  -2.902  -0.009  0.00  0.00    +0.337 C 
ATOM     22  O   UNL     1      -0.950  -2.383   0.098  0.00  0.00    -0.245 OA
BRANCH  21  31
ATOM     23  C   UNL     1       4.055  -4.585   0.006  0.00  0.00    +0.001 A 
ATOM     24  C   UNL     1       5.178  -3.749  -0.001  0.00  0.00    +0.002 A 
ATOM     25  C   UNL     1       5.085  -2.397  -0.012  0.00  0.00    +0.024 A 
ATOM     26  C   UNL     1       3.821  -1.768  -0.017  0.00  0.00    +0.041 A 
ATOM     27  N   UNL     1       3.738  -0.446  -0.028  0.00  0.00    -0.285 N 
ATOM     28  C   UNL     1       2.584   0.212  -0.034  0.00  0.00    +0.222 C 
ATOM     29  O   UNL     1       2.577   1.428  -0.044  0.00  0.00    -0.275 OA
ATOM     30  C   UNL     1       1.280  -0.552  -0.028  0.00  0.00    +0.139 C 
ATOM     31  C   UNL     1       1.359  -2.066  -0.015  0.00  0.00    +0.054 C 
ATOM     32  C   UNL     1       2.619  -2.628  -0.011  0.00  0.00    +0.007 A 
ATOM     33  C   UNL     1       2.796  -4.081   0.001  0.00  0.00    +0.010 A 
ATOM     34  H   UNL     1       4.561   0.068  -0.032  0.00  0.00    +0.155 HD
ENDBRANCH  21  31
ENDBRANCH  20  21
ENDBRANCH  19  20
ENDBRANCH   1  19
TORSDOF 6
