REMARK  Name = ZINC20311335
REMARK  10 active torsions:
REMARK  status: ('A' for Active; 'I' for Inactive)
REMARK    1  A    between atoms: C_1  and  C_2
REMARK    2  A    between atoms: C_2  and  C_4
REMARK    3  A    between atoms: C_2  and  O_20
REMARK    4  A    between atoms: N_6  and  N_7
REMARK    5  A    between atoms: C_8  and  C_9
REMARK    6  A    between atoms: C_14  and  O_15
REMARK    7  A    between atoms: O_15  and  C_16
REMARK    8  A    between atoms: C_16  and  C_17
REMARK    9  A    between atoms: O_20  and  C_21
REMARK   10  A    between atoms: C_26  and  N_27
REMARK                            x       y       z     vdW  Elec       q    Type
REMARK                         _______ _______ _______ _____ _____    ______ ____
ROOT
ATOM      1  C   UNL     1      -3.141   1.993   3.429  0.00  0.00    +0.273 C 
ATOM      2  O   UNL     1      -2.534   2.543   2.534  0.00  0.00    -0.270 OA
ATOM      3  N   UNL     1      -3.044   0.658   3.588  0.00  0.00    -0.204 N 
ATOM      4  H   UNL     1      -3.594   0.160   4.400  0.00  0.00    +0.177 HD
ENDROOT
BRANCH   1   6
ATOM      5  C   UNL     1      -5.468   2.399   4.184  0.00  0.00    +0.062 C 
ATOM      6  C   UNL     1      -4.003   2.803   4.363  0.00  0.00    +0.257 C 
BRANCH   6   7
ATOM      7  O   UNL     1      -3.852   4.192   4.066  0.00  0.00    -0.478 OA
BRANCH   7   8
ATOM      8  C   UNL     1      -4.106   5.069   5.073  0.00  0.00    +0.152 A 
ATOM      9  C   UNL     1      -4.601   4.611   6.285  0.00  0.00    +0.048 A 
ATOM     10  C   UNL     1      -4.858   5.504   7.307  0.00  0.00    +0.004 A 
ATOM     11  C   UNL     1      -4.622   6.854   7.123  0.00  0.00    +0.002 A 
ATOM     12  C   UNL     1      -4.128   7.313   5.916  0.00  0.00    +0.036 A 
ATOM     13  C   UNL     1      -3.865   6.423   4.892  0.00  0.00    +0.168 A 
BRANCH  13  14
ATOM     14  N   UNL     1      -3.332   6.915   3.602  0.00  0.00    +0.060 N 
ATOM     15  O   UNL     1      -3.120   8.104   3.444  0.00  0.00    -0.126 OA
ATOM     16  O   UNL     1      -3.104   6.130   2.699  0.00  0.00    -0.126 OA
ENDBRANCH  13  14
ENDBRANCH   7   8
ENDBRANCH   6   7
ENDBRANCH   1   6
BRANCH   3  17
ATOM     17  N   UNL     1      -2.242  -0.094   2.720  0.00  0.00    -0.188 NA
ATOM     18  C   UNL     1      -2.148  -1.380   2.873  0.00  0.00    +0.142 C 
BRANCH  18  19
ATOM     19  C   UNL     1      -1.305  -2.171   1.960  0.00  0.00    +0.037 A 
ATOM     20  C   UNL     1      -1.201  -3.555   2.122  0.00  0.00    +0.028 A 
ATOM     21  C   UNL     1      -0.410  -4.290   1.264  0.00  0.00    +0.019 A 
ATOM     22  C   UNL     1       0.283  -3.661   0.242  0.00  0.00    +0.019 A 
ATOM     23  C   UNL     1       0.183  -2.294   0.068  0.00  0.00    +0.047 A 
ATOM     24  C   UNL     1      -0.603  -1.540   0.925  0.00  0.00    +0.130 A 
ATOM     25 BR   UNL     1      -0.269  -6.163   1.483  0.00  0.00    -0.050 Br
BRANCH  24  26
ATOM     26  O   UNL     1      -0.697  -0.196   0.758  0.00  0.00    -0.487 OA
BRANCH  26  27
ATOM     27  C   UNL     1       0.048   0.378  -0.319  0.00  0.00    +0.256 C 
BRANCH  27  28
ATOM     28  C   UNL     1      -0.178   1.868  -0.347  0.00  0.00    +0.006 C 
ATOM     29  C   UNL     1       0.837   2.681  -0.506  0.00  0.00    +0.007 C 
ENDBRANCH  27  28
ENDBRANCH  26  27
ENDBRANCH  24  26
ENDBRANCH  18  19
ENDBRANCH   3  17
TORSDOF 9
