REMARK  Name = ZINC26953684
REMARK  7 active torsions:
REMARK  status: ('A' for Active; 'I' for Inactive)
REMARK    1  A    between atoms: C_1  and  C_2
REMARK    2  A    between atoms: C_2  and  C_3
REMARK    3  A    between atoms: C_2  and  O_4
REMARK    4  A    between atoms: O_4  and  C_5
REMARK    5  A    between atoms: C_8  and  C_11
REMARK    6  A    between atoms: C_17  and  C_22
REMARK    7  A    between atoms: C_17  and  C_23
REMARK                            x       y       z     vdW  Elec       q    Type
REMARK                         _______ _______ _______ _____ _____    ______ ____
ROOT
ATOM      1  C   UNL     1      -1.299   2.047  -0.865  0.00  0.00    +0.130 C 
ATOM      2  C   UNL     1      -1.406   2.532  -2.316  0.00  0.00    +0.087 C 
ATOM      3  C   UNL     1      -2.616   1.927  -3.034  0.00  0.00    +0.172 C 
ATOM      4  O   UNL     1      -2.846   2.681  -4.230  0.00  0.00    -0.373 OA
ATOM      5  C   UNL     1      -3.256   4.036  -4.051  0.00  0.00    +0.069 C 
ATOM      6  C   UNL     1      -2.136   4.842  -3.368  0.00  0.00    +0.087 C 
ATOM      7  C   UNL     1      -1.699   4.020  -2.171  0.00  0.00    +0.047 C 
ATOM      8  N   UNL     1      -1.607   4.357  -0.961  0.00  0.00    -0.195 NA
ATOM      9  N   UNL     1      -1.348   3.300  -0.087  0.00  0.00    -0.261 N 
ATOM     10  C   UNL     1      -3.567   4.655  -5.415  0.00  0.00    +0.041 C 
ATOM     11  C   UNL     1      -4.511   4.075  -3.178  0.00  0.00    +0.041 C 
ATOM     12  H   UNL     1      -1.220   3.376   0.871  0.00  0.00    +0.169 HD
ENDROOT
BRANCH   1  16
ATOM     13  C   UNL     1       2.407   0.014  -0.234  0.00  0.00    +0.121 A 
ATOM     14  C   UNL     1       1.242  -0.711  -0.439  0.00  0.00    +0.046 A 
ATOM     15  C   UNL     1       0.045  -0.052  -0.640  0.00  0.00    +0.009 A 
ATOM     16  C   UNL     1       0.007   1.330  -0.638  0.00  0.00    -0.025 A 
ATOM     17  C   UNL     1       1.166   2.056  -0.435  0.00  0.00    +0.009 A 
ATOM     18  C   UNL     1       2.366   1.401  -0.233  0.00  0.00    +0.046 A 
BRANCH  13  19
ATOM     19  O   UNL     1       3.586  -0.632  -0.035  0.00  0.00    -0.489 OA
BRANCH  19  21
ATOM     20  C   UNL     1       3.568  -2.672  -1.331  0.00  0.00    +0.051 C 
ATOM     21  C   UNL     1       3.535  -2.056   0.069  0.00  0.00    +0.167 C 
ATOM     22  C   UNL     1       4.739  -2.552   0.872  0.00  0.00    +0.051 C 
ENDBRANCH  19  21
ENDBRANCH  13  19
ENDBRANCH   1  16
TORSDOF 3
