REMARK  Name = ZINC38815140
REMARK  3 active torsions:
REMARK  status: ('A' for Active; 'I' for Inactive)
REMARK    1  A    between atoms: C_6  and  C_7
REMARK    2  A    between atoms: N_8  and  N_9
REMARK    3  A    between atoms: C_10  and  C_12
REMARK                            x       y       z     vdW  Elec       q    Type
REMARK                         _______ _______ _______ _____ _____    ______ ____
ROOT
ATOM      1  N   UNL     1      -0.024  -2.740  -0.111  0.00  0.00    -0.205 N 
ATOM      2  C   UNL     1       0.000  -4.071  -0.321  0.00  0.00    +0.263 C 
ATOM      3  O   UNL     1      -1.037  -4.676  -0.496  0.00  0.00    -0.271 OA
ATOM      4  H   UNL     1       0.805  -2.256   0.029  0.00  0.00    +0.177 HD
ENDROOT
BRANCH   2   5
ATOM      5  C   UNL     1       1.315  -4.808  -0.338  0.00  0.00    +0.243 C 
ATOM      6  C   UNL     1       1.974  -4.695  -1.688  0.00  0.00    -0.012 C 
ATOM      7  C   UNL     1       2.058  -5.952  -2.137  0.00  0.00    +0.065 C 
ATOM      8  C   UNL     1       2.663  -6.309  -3.477  0.00  0.00    +0.057 C 
ATOM      9  C   UNL     1       2.725  -5.042  -4.336  0.00  0.00    +0.006 C 
ATOM     10  C   UNL     1       3.389  -3.912  -3.544  0.00  0.00    +0.005 C 
ATOM     11  C   UNL     1       2.449  -3.470  -2.413  0.00  0.00    +0.035 C 
ATOM     12  N   UNL     1       1.536  -6.803  -1.227  0.00  0.00    -0.158 NA
ATOM     13  N   UNL     1       1.102  -6.262  -0.199  0.00  0.00    -0.170 NA
ENDBRANCH   2   5
BRANCH   1  15
ATOM     14  C   UNL     1      -1.262  -0.760  -0.016  0.00  0.00    +0.138 C 
ATOM     15  N   UNL     1      -1.246  -2.055  -0.095  0.00  0.00    -0.188 NA
BRANCH  14  21
ATOM     16  C   UNL     1       0.871  -0.583  -1.285  0.00  0.00    +0.011 A 
ATOM     17  C   UNL     1       1.949   0.154  -1.730  0.00  0.00    +0.022 A 
ATOM     18  C   UNL     1       2.062   1.492  -1.394  0.00  0.00    +0.059 A 
ATOM     19  C   UNL     1       1.095   2.100  -0.609  0.00  0.00    +0.060 A 
ATOM     20  C   UNL     1       0.012   1.374  -0.158  0.00  0.00    +0.031 A 
ATOM     21  C   UNL     1      -0.108   0.023  -0.494  0.00  0.00    -0.004 A 
ATOM     22 CL   UNL     1       1.246   3.779  -0.193  0.00  0.00    -0.082 Cl
ATOM     23 CL   UNL     1       3.421   2.413  -1.958  0.00  0.00    -0.082 Cl
ENDBRANCH  14  21
ENDBRANCH   1  15
TORSDOF 3
