REMARK  Name = ZINC13306982
REMARK  9 active torsions:
REMARK  status: ('A' for Active; 'I' for Inactive)
REMARK    1  A    between atoms: C_1  and  C_2
REMARK    2  A    between atoms: C_2  and  C_28
REMARK    3  A    between atoms: N_3  and  O_4
REMARK    4  A    between atoms: O_4  and  C_5
REMARK    5  A    between atoms: C_5  and  C_6
REMARK    6  A    between atoms: N_8  and  C_9
REMARK    7  A    between atoms: C_10  and  C_26
REMARK    8  A    between atoms: C_11  and  C_20
REMARK    9  A    between atoms: C_12  and  C_14
REMARK                            x       y       z     vdW  Elec       q    Type
REMARK                         _______ _______ _______ _____ _____    ______ ____
ROOT
ATOM      1  C   UNL     1       1.049   2.226   0.137  0.00  0.00    +0.211 A 
ATOM      2  C   UNL     1      -0.073   1.426  -0.010  0.00  0.00    +0.121 A 
ATOM      3  C   UNL     1      -1.209   2.360  -0.125  0.00  0.00    +0.047 A 
ATOM      4  C   UNL     1      -0.671   3.614  -0.028  0.00  0.00    +0.146 A 
ATOM      5  O   UNL     1       0.664   3.509   0.122  0.00  0.00    -0.439 OA
ENDROOT
BRANCH   4   6
ATOM      6  C   UNL     1      -1.428   4.878  -0.087  0.00  0.00    +0.018 A 
ATOM      7  C   UNL     1      -0.984   5.926  -0.897  0.00  0.00    +0.011 A 
ATOM      8  C   UNL     1      -1.701   7.103  -0.952  0.00  0.00    +0.001 A 
ATOM      9  C   UNL     1      -2.852   7.251  -0.198  0.00  0.00    +0.000 A 
ATOM     10  C   UNL     1      -3.295   6.219   0.611  0.00  0.00    +0.001 A 
ATOM     11  C   UNL     1      -2.592   5.035   0.671  0.00  0.00    +0.011 A 
ENDBRANCH   4   6
BRANCH   3  12
ATOM     12  C   UNL     1      -2.637   2.011  -0.303  0.00  0.00    -0.013 A 
ATOM     13  C   UNL     1      -3.297   2.348  -1.486  0.00  0.00    +0.008 A 
ATOM     14  C   UNL     1      -4.626   2.015  -1.649  0.00  0.00    +0.001 A 
ATOM     15  C   UNL     1      -5.308   1.360  -0.638  0.00  0.00    +0.000 A 
ATOM     16  C   UNL     1      -4.660   1.030   0.539  0.00  0.00    +0.001 A 
ATOM     17  C   UNL     1      -3.330   1.351   0.712  0.00  0.00    +0.008 A 
ENDBRANCH   3  12
BRANCH   1  20
ATOM     18  C   UNL     1       3.358   2.659   0.412  0.00  0.00    +0.260 C 
ATOM     19  O   UNL     1       3.125   3.849   0.412  0.00  0.00    -0.272 OA
ATOM     20  N   UNL     1       2.349   1.775   0.277  0.00  0.00    -0.252 N 
ATOM     21  H   UNL     1       2.535   0.823   0.277  0.00  0.00    +0.158 HD
BRANCH  18  22
ATOM     22  C   UNL     1       4.774   2.167   0.564  0.00  0.00    +0.358 C 
BRANCH  22  23
ATOM     23  O   UNL     1       5.655   3.285   0.690  0.00  0.00    -0.384 OA
BRANCH  23  26
ATOM     24  C   UNL     1       7.513   5.305   0.949  0.00  0.00    +0.069 C 
ATOM     25  C   UNL     1       7.916   3.853   0.963  0.00  0.00    +0.084 C 
ATOM     26  N   UNL     1       7.018   2.931   0.839  0.00  0.00    -0.089 NA
BRANCH  25  27
ATOM     27  C   UNL     1       9.337   3.483   1.118  0.00  0.00    -0.001 A 
ATOM     28  C   UNL     1      10.310   4.477   1.246  0.00  0.00    +0.011 A 
ATOM     29  C   UNL     1      11.635   4.125   1.397  0.00  0.00    +0.016 A 
ATOM     30  C   UNL     1      12.003   2.790   1.409  0.00  0.00    +0.018 A 
ATOM     31  C   UNL     1      11.043   1.800   1.277  0.00  0.00    +0.016 A 
ATOM     32  C   UNL     1       9.714   2.139   1.131  0.00  0.00    +0.011 A 
ATOM     33 BR   UNL     1      13.822   2.317   1.608  0.00  0.00    -0.050 Br
ENDBRANCH  25  27
ENDBRANCH  23  26
ENDBRANCH  22  23
ENDBRANCH  18  22
ENDBRANCH   1  20
BRANCH   2  34
ATOM     34  C   UNL     1      -0.119  -0.004  -0.048  0.00  0.00    +0.105 C 
ATOM     35  N   UNL     1      -0.155  -1.139  -0.078  0.00  0.00    -0.191 NA
ENDBRANCH   2  34
TORSDOF 8
