REMARK  Name = ZINC18212324
REMARK  7 active torsions:
REMARK  status: ('A' for Active; 'I' for Inactive)
REMARK    1  A    between atoms: C_1  and  C_2
REMARK    2  A    between atoms: C_5  and  C_8
REMARK    3  A    between atoms: C_8  and  C_10
REMARK    4  A    between atoms: C_8  and  N_15
REMARK    5  A    between atoms: C_16  and  C_18
REMARK    6  A    between atoms: C_18  and  C_19
REMARK    7  A    between atoms: C_19  and  N_20
REMARK                            x       y       z     vdW  Elec       q    Type
REMARK                         _______ _______ _______ _____ _____    ______ ____
ROOT
ATOM      1  N   UNL     1       3.201  -7.695  -3.612  0.00  0.00    -0.304 N 
ATOM      2  C   UNL     1       3.091  -7.187  -2.368  0.00  0.00    +0.215 C 
ATOM      3  O   UNL     1       3.752  -7.650  -1.463  0.00  0.00    -0.276 OA
ATOM      4  H   UNL     1       2.672  -7.325  -4.335  0.00  0.00    +0.150 HD
ENDROOT
BRANCH   1   5
ATOM      5  C   UNL     1       4.119  -8.807  -3.870  0.00  0.00    +0.140 C 
BRANCH   5  10
ATOM      6  C   UNL     1       2.317 -11.755  -8.502  0.00  0.00    +0.044 C 
ATOM      7  C   UNL     1       2.787 -10.986  -7.294  0.00  0.00    -0.050 A 
ATOM      8  C   UNL     1       3.290 -11.662  -6.198  0.00  0.00    +0.004 A 
ATOM      9  C   UNL     1       3.721 -10.956  -5.090  0.00  0.00    +0.006 A 
ATOM     10  C   UNL     1       3.649  -9.576  -5.078  0.00  0.00    -0.022 A 
ATOM     11  C   UNL     1       3.141  -8.901  -6.172  0.00  0.00    +0.006 A 
ATOM     12  C   UNL     1       2.715  -9.606  -7.282  0.00  0.00    +0.004 A 
ENDBRANCH   5  10
BRANCH   5  13
ATOM     13  C   UNL     1       5.503  -8.267  -4.125  0.00  0.00    +0.014 A 
ATOM     14  C   UNL     1       6.698  -8.753  -3.710  0.00  0.00    +0.013 A 
ATOM     15  C   UNL     1       7.854  -8.085  -4.068  0.00  0.00    +0.008 A 
ATOM     16  C   UNL     1       7.758  -6.964  -4.824  0.00  0.00    +0.045 A 
ATOM     17  S   UNL     1       5.993  -6.826  -5.057  0.00  0.00    -0.099 S 
ENDBRANCH   5  13
ENDBRANCH   1   5
BRANCH   2  18
ATOM     18  C   UNL     1       2.147  -6.043  -2.103  0.00  0.00    +0.117 C 
BRANCH  18  19
ATOM     19  C   UNL     1       2.213  -5.659  -0.623  0.00  0.00    +0.135 C 
BRANCH  19  20
ATOM     20  N   UNL     1       1.295  -4.547  -0.365  0.00  0.00    -0.298 N 
ATOM     21  C   UNL     1       0.019  -4.832  -0.011  0.00  0.00    +0.203 A 
ATOM     22  N   UNL     1      -0.879  -3.905   0.240  0.00  0.00    -0.230 NA
ATOM     23  C   UNL     1      -0.494  -2.637   0.136  0.00  0.00    +0.116 A 
ATOM     24  C   UNL     1       0.812  -2.239  -0.226  0.00  0.00    +0.076 A 
ATOM     25  C   UNL     1       1.762  -3.282  -0.491  0.00  0.00    +0.262 A 
ATOM     26  O   UNL     1       2.914  -3.045  -0.810  0.00  0.00    -0.267 OA
ATOM     27  C   UNL     1       1.051  -0.808  -0.290  0.00  0.00    -0.023 A 
ATOM     28  C   UNL     1       0.002  -0.004   0.002  0.00  0.00    -0.004 A 
ATOM     29  S   UNL     1      -1.339  -1.106   0.372  0.00  0.00    -0.073 S 
ATOM     30  C   UNL     1      -0.018   1.493   0.010  0.00  0.00    +0.043 C 
ATOM     31  C   UNL     1       1.431   1.999  -0.001  0.00  0.00    +0.005 C 
ATOM     32  C   UNL     1       2.205   1.245  -1.085  0.00  0.00    +0.005 C 
ATOM     33  C   UNL     1       2.405  -0.211  -0.663  0.00  0.00    +0.037 C 
ENDBRANCH  19  20
ENDBRANCH  18  19
ENDBRANCH   2  18
TORSDOF 6
