REMARK  Name = ZINC08597489
REMARK  7 active torsions:
REMARK  status: ('A' for Active; 'I' for Inactive)
REMARK    1  A    between atoms: C_1  and  C_2
REMARK    2  A    between atoms: C_7  and  N_8
REMARK    3  A    between atoms: C_14  and  C_16
REMARK    4  A    between atoms: N_19  and  C_22
REMARK    5  A    between atoms: C_22  and  C_23
REMARK    6  A    between atoms: C_24  and  C_35
REMARK    7  A    between atoms: C_26  and  C_28
REMARK                            x       y       z     vdW  Elec       q    Type
REMARK                         _______ _______ _______ _____ _____    ______ ____
ROOT
ATOM      1  C   UNL     1       1.361   1.121   7.011  0.00  0.00    +0.072 C 
ATOM      2  C   UNL     1       2.133  -0.183   7.228  0.00  0.00    -0.006 C 
ATOM      3  C   UNL     1       3.417   0.113   8.005  0.00  0.00    -0.078 C 
ATOM      4  N   UNL     1       3.081   0.707   9.305  0.00  0.00    +0.383 N 
ATOM      5  C   UNL     1       2.405   1.994   9.104  0.00  0.00    -0.078 C 
ATOM      6  C   UNL     1       1.081   1.770   8.369  0.00  0.00    -0.006 C 
ATOM      7  H   UNL     1       2.471   0.083   9.811  0.00  0.00    -0.081 HD
ENDROOT
BRANCH   1  14
ATOM      8  N   UNL     1      -0.316   1.563   2.412  0.00  0.00    -0.327 N 
ATOM      9  C   UNL     1      -1.526   1.345   3.216  0.00  0.00    +0.124 C 
ATOM     10  C   UNL     1      -1.218   0.298   4.293  0.00  0.00    +0.126 C 
ATOM     11  N   UNL     1       0.027   0.678   4.975  0.00  0.00    -0.298 N 
ATOM     12  C   UNL     1       1.238   0.896   4.171  0.00  0.00    +0.126 C 
ATOM     13  C   UNL     1       0.930   1.938   3.095  0.00  0.00    +0.124 C 
ATOM     14  C   UNL     1       0.058   0.826   6.315  0.00  0.00    +0.219 C 
ATOM     15  O   UNL     1      -0.964   0.720   6.960  0.00  0.00    -0.275 OA
BRANCH   8  22
ATOM     16  C   UNL     1      -0.938   3.841   0.826  0.00  0.00    +0.045 C 
ATOM     17  C   UNL     1      -0.646   2.496   0.211  0.00  0.00    -0.029 A 
ATOM     18  C   UNL     1      -0.671   2.344  -1.162  0.00  0.00    +0.006 A 
ATOM     19  C   UNL     1      -0.404   1.111  -1.727  0.00  0.00    +0.020 A 
ATOM     20  C   UNL     1      -0.112   0.025  -0.920  0.00  0.00    +0.043 A 
ATOM     21  C   UNL     1      -0.086   0.171   0.454  0.00  0.00    +0.043 A 
ATOM     22  C   UNL     1      -0.347   1.410   1.024  0.00  0.00    +0.034 A 
ATOM     23 CL   UNL     1       0.223  -1.522  -1.635  0.00  0.00    -0.083 Cl
ENDBRANCH   8  22
ENDBRANCH   1  14
BRANCH   4  24
ATOM     24  C   UNL     1       4.312   0.919  10.078  0.00  0.00    -0.019 C 
BRANCH  24  25
ATOM     25  C   UNL     1       3.961   1.413  11.457  0.00  0.00    +0.066 A 
ATOM     26  C   UNL     1       3.818   2.699  11.825  0.00  0.00    +0.124 A 
ATOM     27  O   UNL     1       3.503   2.708  13.136  0.00  0.00    -0.440 OA
ATOM     28  C   UNL     1       3.457   1.431  13.553  0.00  0.00    +0.228 A 
ATOM     29  N   UNL     1       3.728   0.649  12.535  0.00  0.00    -0.216 NA
ATOM     30  C   UNL     1       3.980   3.906  10.937  0.00  0.00    +0.088 C 
BRANCH  28  31
ATOM     31  C   UNL     1       3.146   0.983  14.927  0.00  0.00    +0.037 A 
ATOM     32  C   UNL     1       3.137  -0.379  15.235  0.00  0.00    +0.014 A 
ATOM     33  C   UNL     1       2.846  -0.791  16.519  0.00  0.00    +0.021 A 
ATOM     34  C   UNL     1       2.565   0.143  17.502  0.00  0.00    +0.041 A 
ATOM     35  C   UNL     1       2.573   1.495  17.203  0.00  0.00    +0.021 A 
ATOM     36  C   UNL     1       2.867   1.920  15.924  0.00  0.00    +0.014 A 
ATOM     37 CL   UNL     1       2.201  -0.383  19.115  0.00  0.00    -0.084 Cl
ENDBRANCH  28  31
ENDBRANCH  24  25
ENDBRANCH   4  24
TORSDOF 5
