REMARK  Name = ZINC63491759
REMARK  12 active torsions:
REMARK  status: ('A' for Active; 'I' for Inactive)
REMARK    1  A    between atoms: C_1  and  C_2
REMARK    2  A    between atoms: C_2  and  O_3
REMARK    3  A    between atoms: O_3  and  C_4
REMARK    4  A    between atoms: C_8  and  C_10
REMARK    5  A    between atoms: C_25  and  C_27
REMARK    6  A    between atoms: C_27  and  C_28
REMARK    7  A    between atoms: C_32  and  O_37
REMARK    8  A    between atoms: C_33  and  O_34
REMARK    9  A    between atoms: O_34  and  C_35
REMARK   10  A    between atoms: C_35  and  C_36
REMARK   11  A    between atoms: O_37  and  C_38
REMARK   12  A    between atoms: C_38  and  C_39
REMARK                            x       y       z     vdW  Elec       q    Type
REMARK                         _______ _______ _______ _____ _____    ______ ____
ROOT
ATOM      1  C   UNL     1       2.236  -4.245  -3.825  0.00  0.00    +0.133 C 
ATOM      2  C   UNL     1       1.190  -4.800  -4.798  0.00  0.00    +0.131 C 
ATOM      3  C   UNL     1       1.952  -5.608  -5.841  0.00  0.00    -0.035 C 
ATOM      4  C   UNL     1       1.623  -5.098  -7.022  0.00  0.00    -0.001 A 
ATOM      5  C   UNL     1       1.981  -5.496  -8.394  0.00  0.00    +0.010 A 
ATOM      6  C   UNL     1       1.468  -4.731  -9.393  0.00  0.00    +0.001 A 
ATOM      7  C   UNL     1       0.644  -3.623  -9.168  0.00  0.00    +0.002 A 
ATOM      8  C   UNL     1       0.261  -3.189  -7.941  0.00  0.00    +0.026 A 
ATOM      9  C   UNL     1       0.734  -3.917  -6.810  0.00  0.00    +0.043 A 
ATOM     10  N   UNL     1       0.499  -3.732  -5.523  0.00  0.00    -0.375 N 
ATOM     11  C   UNL     1       2.926  -6.698  -5.468  0.00  0.00    +0.052 C 
ATOM     12  C   UNL     1       3.886  -6.097  -4.426  0.00  0.00    +0.113 C 
ATOM     13  N   UNL     1       3.114  -5.355  -3.423  0.00  0.00    -0.292 N 
ATOM     14  C   UNL     1       3.210  -5.693  -2.122  0.00  0.00    +0.221 C 
ATOM     15  O   UNL     1       2.497  -5.156  -1.302  0.00  0.00    -0.275 OA
ATOM     16  H   UNL     1      -0.026  -3.022  -5.122  0.00  0.00    +0.160 HD
ENDROOT
BRANCH   1  21
ATOM     17  C   UNL     1       1.549  -2.176  -0.739  0.00  0.00    +0.121 A 
ATOM     18  C   UNL     1       0.285  -2.625  -0.382  0.00  0.00    +0.045 A 
ATOM     19  C   UNL     1      -0.340  -3.595  -1.141  0.00  0.00    +0.004 A 
ATOM     20  C   UNL     1       0.291  -4.119  -2.254  0.00  0.00    +0.006 A 
ATOM     21  C   UNL     1       1.550  -3.672  -2.611  0.00  0.00    -0.021 A 
ATOM     22  C   UNL     1       2.178  -2.698  -1.859  0.00  0.00    +0.051 A 
BRANCH  17  23
ATOM     23  O   UNL     1       2.166  -1.221   0.006  0.00  0.00    -0.492 OA
BRANCH  23  25
ATOM     24  C   UNL     1       2.306   0.331   1.853  0.00  0.00    +0.048 C 
ATOM     25  C   UNL     1       1.459  -0.729   1.146  0.00  0.00    +0.225 C 
ENDBRANCH  23  25
ENDBRANCH  17  23
ENDBRANCH   1  21
BRANCH  14  26
ATOM     26  C   UNL     1       4.203  -6.739  -1.687  0.00  0.00    +0.135 C 
BRANCH  26  27
ATOM     27  C   UNL     1       4.110  -6.931  -0.195  0.00  0.00    +0.007 A 
ATOM     28  C   UNL     1       4.962  -6.238   0.645  0.00  0.00    +0.008 A 
ATOM     29  C   UNL     1       4.879  -6.411   2.014  0.00  0.00    +0.004 A 
ATOM     30  C   UNL     1       3.945  -7.278   2.549  0.00  0.00    +0.049 A 
ATOM     31  C   UNL     1       3.088  -7.975   1.713  0.00  0.00    +0.162 A 
ATOM     32  C   UNL     1       3.167  -7.796   0.335  0.00  0.00    +0.165 A 
BRANCH  32  33
ATOM     33  O   UNL     1       2.325  -8.474  -0.490  0.00  0.00    -0.488 OA
BRANCH  33  34
ATOM     34  C   UNL     1       2.761  -9.753  -0.953  0.00  0.00    +0.226 C 
ATOM     35  C   UNL     1       1.689 -10.359  -1.862  0.00  0.00    +0.048 C 
ENDBRANCH  33  34
ENDBRANCH  32  33
BRANCH  31  36
ATOM     36  O   UNL     1       2.168  -8.828   2.238  0.00  0.00    -0.489 OA
BRANCH  36  37
ATOM     37  C   UNL     1       2.140  -8.957   3.661  0.00  0.00    +0.226 C 
ATOM     38  C   UNL     1       1.049  -9.952   4.061  0.00  0.00    +0.048 C 
ENDBRANCH  36  37
ENDBRANCH  31  36
ENDBRANCH  26  27
ENDBRANCH  14  26
TORSDOF 9
