REMARK  Name = ZINC39940155
REMARK  10 active torsions:
REMARK  status: ('A' for Active; 'I' for Inactive)
REMARK    1  A    between atoms: C_1  and  C_2
REMARK    2  A    between atoms: C_6  and  N_8
REMARK    3  A    between atoms: C_9  and  S_23
REMARK    4  A    between atoms: C_13  and  C_14
REMARK    5  A    between atoms: S_23  and  C_24
REMARK    6  A    between atoms: C_24  and  C_26
REMARK    7  A    between atoms: C_24  and  C_27
REMARK    8  A    between atoms: C_27  and  C_29
REMARK    9  A    between atoms: C_31  and  C_36
REMARK   10  A    between atoms: C_34  and  C_35
REMARK                            x       y       z     vdW  Elec       q    Type
REMARK                         _______ _______ _______ _____ _____    ______ ____
ROOT
ATOM      1  N   UNL     1       0.210  -1.791   1.714  0.00  0.00    -0.254 N 
ATOM      2  C   UNL     1       0.083  -3.249   1.867  0.00  0.00    +0.242 C 
ATOM      3  N   UNL     1       0.017  -3.457   3.323  0.00  0.00    -0.237 N 
ATOM      4  N   UNL     1       0.104  -2.189   3.910  0.00  0.00    -0.169 NA
ATOM      5  C   UNL     1       0.218  -1.254   3.005  0.00  0.00    +0.151 C 
ATOM      6  H   UNL     1      -0.069  -4.306   3.785  0.00  0.00    +0.171 HD
ENDROOT
BRANCH   5   7
ATOM      7  C   UNL     1       0.332   0.115   3.291  0.00  0.00    +0.022 C 
ATOM      8  C   UNL     1       0.457   0.706   4.549  0.00  0.00    +0.006 A 
ATOM      9  C   UNL     1       0.508   0.170   5.853  0.00  0.00    +0.010 A 
ATOM     10  C   UNL     1       0.637   1.002   6.919  0.00  0.00    +0.001 A 
ATOM     11  C   UNL     1       0.721   2.386   6.760  0.00  0.00    +0.002 A 
ATOM     12  C   UNL     1       0.678   2.970   5.537  0.00  0.00    +0.026 A 
ATOM     13  C   UNL     1       0.545   2.165   4.376  0.00  0.00    +0.043 A 
ATOM     14  N   UNL     1       0.481   2.483   3.097  0.00  0.00    -0.380 N 
ATOM     15  C   UNL     1       0.350   1.259   2.301  0.00  0.00    +0.152 C 
ATOM     16  H   UNL     1       0.519   3.384   2.740  0.00  0.00    +0.160 HD
ENDBRANCH   5   7
BRANCH   1  22
ATOM     17  C   UNL     1      -1.911  -0.089  -2.380  0.00  0.00    +0.044 C 
ATOM     18  C   UNL     1      -0.704  -0.242  -1.491  0.00  0.00    -0.049 A 
ATOM     19  C   UNL     1       0.504   0.321  -1.863  0.00  0.00    +0.003 A 
ATOM     20  C   UNL     1       1.614   0.184  -1.049  0.00  0.00    +0.002 A 
ATOM     21  C   UNL     1       1.520  -0.516   0.138  0.00  0.00    +0.023 A 
ATOM     22  C   UNL     1       0.308  -1.082   0.514  0.00  0.00    +0.038 A 
ATOM     23  C   UNL     1      -0.806  -0.938  -0.303  0.00  0.00    +0.027 A 
ENDBRANCH   1  22
BRANCH   2  24
ATOM     24  S   UNL     1       1.530  -4.089   1.167  0.00  0.00    -0.107 S 
BRANCH  24  25
ATOM     25  C   UNL     1       2.884  -3.636   2.286  0.00  0.00    +0.118 C 
ATOM     26  C   UNL     1       3.281  -2.179   2.043  0.00  0.00    +0.027 C 
BRANCH  25  27
ATOM     27  C   UNL     1       4.069  -4.530   2.028  0.00  0.00    +0.176 C 
ATOM     28  O   UNL     1       4.210  -5.052   0.943  0.00  0.00    -0.291 OA
BRANCH  27  29
ATOM     29  C   UNL     1       5.057  -4.769   3.093  0.00  0.00    +0.022 A 
ATOM     30  C   UNL     1       4.895  -4.173   4.348  0.00  0.00    +0.015 A 
ATOM     31  C   UNL     1       5.825  -4.402   5.340  0.00  0.00    -0.050 A 
ATOM     32  C   UNL     1       6.915  -5.219   5.097  0.00  0.00    +0.003 A 
ATOM     33  C   UNL     1       7.082  -5.811   3.858  0.00  0.00    +0.004 A 
ATOM     34  C   UNL     1       6.159  -5.597   2.857  0.00  0.00    -0.040 A 
ATOM     35  C   UNL     1       6.339  -6.248   1.510  0.00  0.00    +0.044 C 
ATOM     36  C   UNL     1       5.653  -3.761   6.693  0.00  0.00    +0.044 C 
ENDBRANCH  27  29
ENDBRANCH  25  27
ENDBRANCH  24  25
ENDBRANCH   2  24
TORSDOF 6
