REMARK  Name = ZINC09805127
REMARK  6 active torsions:
REMARK  status: ('A' for Active; 'I' for Inactive)
REMARK    1  A    between atoms: C_1  and  C_2
REMARK    2  A    between atoms: C_10  and  C_13
REMARK    3  A    between atoms: C_18  and  C_23
REMARK    4  A    between atoms: C_31  and  C_37
REMARK    5  A    between atoms: C_33  and  O_35
REMARK    6  A    between atoms: O_35  and  C_36
REMARK                            x       y       z     vdW  Elec       q    Type
REMARK                         _______ _______ _______ _____ _____    ______ ____
ROOT
ATOM      1  C   UNL     1       0.088  -5.156   3.538  0.00  0.00    +0.099 C 
ATOM      2  C   UNL     1       1.332  -4.856   4.336  0.00  0.00    +0.028 C 
ATOM      3  C   UNL     1       1.254  -4.394   5.628  0.00  0.00    +0.050 C 
ATOM      4  C   UNL     1       2.511  -4.088   6.410  0.00  0.00    +0.064 C 
ATOM      5  C   UNL     1       3.640  -5.012   5.948  0.00  0.00    +0.034 C 
ATOM      6  C   UNL     1       3.858  -4.798   4.446  0.00  0.00    +0.088 C 
ATOM      7  C   UNL     1       2.569  -5.064   3.720  0.00  0.00    +0.162 C 
ATOM      8  O   UNL     1       2.603  -5.469   2.574  0.00  0.00    -0.292 OA
ATOM      9  N   UNL     1       0.084  -4.199   6.230  0.00  0.00    -0.256 NA
ATOM     10  C   UNL     1      -1.072  -4.427   5.646  0.00  0.00    +0.049 C 
ATOM     11  C   UNL     1      -1.147  -4.890   4.344  0.00  0.00    +0.069 C 
ATOM     12  C   UNL     1      -2.385  -5.112   3.778  0.00  0.00    +0.338 C 
ATOM     13  O   UNL     1      -3.504  -4.877   4.491  0.00  0.00    -0.245 OA
ATOM     14  C   UNL     1      -2.345  -4.177   6.413  0.00  0.00    +0.066 C 
ENDROOT
BRANCH   1  24
ATOM     15  C   UNL     1      -0.018   1.503   0.010  0.00  0.00    +0.044 C 
ATOM     16  C   UNL     1       0.002  -0.004   0.002  0.00  0.00    -0.050 A 
ATOM     17  C   UNL     1       0.006  -0.688  -1.205  0.00  0.00    +0.007 A 
ATOM     18  C   UNL     1       0.024  -2.066  -1.234  0.00  0.00    +0.047 A 
ATOM     19  C   UNL     1       0.039  -2.784  -0.043  0.00  0.00    +0.138 A 
ATOM     20  C   UNL     1       0.036  -2.090   1.178  0.00  0.00    +0.064 A 
ATOM     21  C   UNL     1       0.023  -0.696   1.193  0.00  0.00    +0.018 A 
ATOM     22  C   UNL     1       0.052  -2.874   2.428  0.00  0.00    +0.197 A 
ATOM     23  O   UNL     1       0.050  -2.331   3.519  0.00  0.00    -0.287 OA
ATOM     24  C   UNL     1       0.070  -4.289   2.305  0.00  0.00    +0.047 A 
ATOM     25  C   UNL     1       0.072  -4.850   1.083  0.00  0.00    +0.204 A 
ATOM     26  O   UNL     1       0.057  -4.132  -0.045  0.00  0.00    -0.462 OA
ENDBRANCH   1  24
BRANCH   5  27
ATOM     27  C   UNL     1       4.903  -4.682   6.699  0.00  0.00    -0.025 A 
ATOM     28  C   UNL     1       5.449  -3.415   6.612  0.00  0.00    +0.005 A 
ATOM     29  C   UNL     1       6.608  -3.112   7.302  0.00  0.00    +0.000 A 
ATOM     30  C   UNL     1       7.223  -4.077   8.079  0.00  0.00    +0.001 A 
ATOM     31  C   UNL     1       6.678  -5.344   8.166  0.00  0.00    +0.020 A 
ATOM     32  C   UNL     1       5.515  -5.646   7.481  0.00  0.00    +0.044 A 
ATOM     33 CL   UNL     1       4.827  -7.236   7.596  0.00  0.00    -0.083 Cl
ENDBRANCH   5  27
BRANCH  12  34
ATOM     34  O   UNL     1      -2.476  -5.563   2.512  0.00  0.00    -0.465 OA
ATOM     35  C   UNL     1      -3.789  -5.770   1.989  0.00  0.00    +0.280 C 
ENDBRANCH  12  34
TORSDOF 3
