REMARK  Name = ZINC39469627
REMARK  7 active torsions:
REMARK  status: ('A' for Active; 'I' for Inactive)
REMARK    1  A    between atoms: C_1  and  O_2
REMARK    2  A    between atoms: O_2  and  C_3
REMARK    3  A    between atoms: P_12  and  S_28
REMARK    4  A    between atoms: C_20  and  C_21
REMARK    5  A    between atoms: C_21  and  C_22
REMARK    6  A    between atoms: S_28  and  O_31
REMARK    7  A    between atoms: O_31  and  C_32
REMARK                            x       y       z     vdW  Elec       q    Type
REMARK                         _______ _______ _______ _____ _____    ______ ____
ROOT
ATOM      1  C   UNL     1      -1.200  -0.637   0.010  0.00  0.00    +0.120 C 
ATOM      2  C   UNL     1      -2.332   0.071   0.019  0.00  0.00    +0.023 C 
ATOM      3  C   UNL     1      -3.659  -0.640   0.017  0.00  0.00    +0.019 C 
ATOM      4  C   UNL     1      -4.738   0.254  -0.577  0.00  0.00    -0.002 C 
ATOM      5  C   UNL     1      -5.870  -0.579  -1.195  0.00  0.00    -0.020 C 
ATOM      6  C   UNL     1      -7.129   0.294  -1.098  0.00  0.00    +0.158 C 
ATOM      7  O   UNL     1      -8.254  -0.384  -1.679  0.00  0.00    -0.301 OA
ATOM      8  P   UNL     1      -8.546  -1.906  -1.179  0.00  0.00    +0.431 P 
ATOM      9  O   UNL     1      -9.365  -2.628  -2.178  0.00  0.00    -0.246 OA
ATOM     10  N   UNL     1      -7.057  -2.600  -1.049  0.00  0.00    -0.271 NA
ATOM     11  N   UNL     1      -6.036  -1.851  -0.500  0.00  0.00    +0.398 N 
ATOM     12  C   UNL     1      -4.856  -2.719  -0.638  0.00  0.00    -0.046 C 
ATOM     13  C   UNL     1      -3.563  -1.911  -0.826  0.00  0.00    +0.005 C 
ATOM     14  C   UNL     1      -2.373  -2.723  -0.389  0.00  0.00    -0.017 C 
ATOM     15  C   UNL     1      -1.262  -2.112   0.003  0.00  0.00    -0.005 C 
ATOM     16  H   UNL     1      -6.909  -3.511  -1.345  0.00  0.00    +0.113 HD
ATOM     17  H   UNL     1      -6.218  -1.679   0.477  0.00  0.00    -0.055 HD
ENDROOT
BRANCH   8  18
ATOM     18  S   UNL     1      -9.524  -1.890   0.702  0.00  0.00    +0.209 S 
ATOM     19  O   UNL     1      -9.868  -3.238   0.992  0.00  0.00    -0.126 OA
ATOM     20  O   UNL     1      -8.720  -1.105   1.571  0.00  0.00    -0.126 OA
BRANCH  18  21
ATOM     21  O   UNL     1     -10.834  -1.136   0.521  0.00  0.00    -0.339 OA
BRANCH  21  22
ATOM     22  C   UNL     1     -11.793  -1.843  -0.133  0.00  0.00    +0.157 A 
ATOM     23  C   UNL     1     -11.885  -1.774  -1.516  0.00  0.00    +0.048 A 
ATOM     24  C   UNL     1     -12.860  -2.494  -2.178  0.00  0.00    +0.004 A 
ATOM     25  C   UNL     1     -13.744  -3.282  -1.465  0.00  0.00    +0.000 A 
ATOM     26  C   UNL     1     -13.655  -3.352  -0.087  0.00  0.00    +0.004 A 
ATOM     27  C   UNL     1     -12.677  -2.639   0.580  0.00  0.00    +0.048 A 
ENDBRANCH  21  22
ENDBRANCH  18  21
ENDBRANCH   8  18
BRANCH   1  29
ATOM     28  C   UNL     1      -0.017   1.425   0.010  0.00  0.00    +0.277 C 
ATOM     29  O   UNL     1       0.002  -0.004   0.002  0.00  0.00    -0.495 OA
ENDBRANCH   1  29
BRANCH  15  30
ATOM     30  C   UNL     1      -0.071  -2.922   0.444  0.00  0.00    +0.073 C 
BRANCH  30  31
ATOM     31  C   UNL     1       0.873  -3.102  -0.717  0.00  0.00    -0.043 A 
ATOM     32  C   UNL     1       0.731  -4.187  -1.560  0.00  0.00    +0.004 A 
ATOM     33  C   UNL     1       1.597  -4.352  -2.626  0.00  0.00    +0.000 A 
ATOM     34  C   UNL     1       2.604  -3.431  -2.847  0.00  0.00    +0.000 A 
ATOM     35  C   UNL     1       2.744  -2.345  -2.004  0.00  0.00    +0.000 A 
ATOM     36  C   UNL     1       1.876  -2.178  -0.941  0.00  0.00    +0.004 A 
ENDBRANCH  30  31
ENDBRANCH  15  30
TORSDOF 6
