REMARK  Name = ZINC57641630
REMARK  14 active torsions:
REMARK  status: ('A' for Active; 'I' for Inactive)
REMARK    1  A    between atoms: C_1  and  C_2
REMARK    2  A    between atoms: C_2  and  C_3
REMARK    3  A    between atoms: C_3  and  C_5
REMARK    4  A    between atoms: C_3  and  N_14
REMARK    5  A    between atoms: N_9  and  C_10
REMARK    6  A    between atoms: C_10  and  C_11
REMARK    7  A    between atoms: C_11  and  O_12
REMARK    8  A    between atoms: O_12  and  C_13
REMARK    9  A    between atoms: N_14  and  C_15
REMARK   10  A    between atoms: N_14  and  C_25
REMARK   11  A    between atoms: C_15  and  C_16
REMARK   12  A    between atoms: C_25  and  C_26
REMARK   13  A    between atoms: C_30  and  C_39
REMARK   14  A    between atoms: C_31  and  C_38
REMARK                            x       y       z     vdW  Elec       q    Type
REMARK                         _______ _______ _______ _____ _____    ______ ____
ROOT
ATOM      1  N   UNL     1      -2.060  -0.313   1.385  0.00  0.00    -0.284 NA
ENDROOT
BRANCH   1   2
ATOM      2  C   UNL     1      -1.721  -0.632  -0.008  0.00  0.00    +0.127 C 
BRANCH   2   3
ATOM      3  C   UNL     1      -2.923  -0.392  -0.885  0.00  0.00    +0.168 A 
ATOM      4  N   UNL     1      -4.159  -0.751  -0.635  0.00  0.00    -0.112 NA
ATOM      5  N   UNL     1      -4.892  -0.367  -1.622  0.00  0.00    -0.023 NA
ATOM      6  N   UNL     1      -4.157   0.229  -2.495  0.00  0.00    -0.044 NA
ATOM      7  N   UNL     1      -2.937   0.238  -2.074  0.00  0.00    -0.226 N 
BRANCH   7   8
ATOM      8  C   UNL     1      -1.784   0.823  -2.763  0.00  0.00    +0.175 C 
BRANCH   8   9
ATOM      9  C   UNL     1      -1.145  -0.230  -3.672  0.00  0.00    +0.183 C 
BRANCH   9  10
ATOM     10  O   UNL     1      -0.020   0.340  -4.344  0.00  0.00    -0.381 OA
ATOM     11  C   UNL     1       0.651  -0.566  -5.222  0.00  0.00    +0.194 C 
ENDBRANCH   9  10
ENDBRANCH   8   9
ENDBRANCH   7   8
ENDBRANCH   2   3
BRANCH   2  13
ATOM     12  C   UNL     1      -0.018  -2.319   0.694  0.00  0.00    +0.006 C 
ATOM     13  C   UNL     1      -1.302  -2.100  -0.108  0.00  0.00    +0.023 C 
ENDBRANCH   2  13
ENDBRANCH   1   2
BRANCH   1  14
ATOM     14  C   UNL     1      -3.271  -1.028   1.809  0.00  0.00    +0.120 C 
BRANCH  14  15
ATOM     15  C   UNL     1      -3.365  -1.009   3.313  0.00  0.00    -0.030 A 
ATOM     16  C   UNL     1      -2.684  -1.954   4.059  0.00  0.00    +0.009 A 
ATOM     17  C   UNL     1      -2.767  -1.940   5.439  0.00  0.00    +0.050 A 
ATOM     18  C   UNL     1      -3.533  -0.979   6.078  0.00  0.00    +0.166 A 
ATOM     19  C   UNL     1      -4.218  -0.027   5.327  0.00  0.00    +0.167 A 
ATOM     20  C   UNL     1      -4.127  -0.044   3.945  0.00  0.00    +0.054 A 
ATOM     21  O   UNL     1      -4.893   0.798   6.179  0.00  0.00    -0.453 OA
ATOM     22  C   UNL     1      -4.942   0.096   7.436  0.00  0.00    +0.466 C 
ATOM     23  O   UNL     1      -3.777  -0.749   7.401  0.00  0.00    -0.453 OA
ENDBRANCH  14  15
ENDBRANCH   1  14
BRANCH   1  24
ATOM     24  C   UNL     1      -2.213   1.136   1.571  0.00  0.00    +0.126 C 
BRANCH  24  25
ATOM     25  C   UNL     1      -0.853   1.784   1.613  0.00  0.00    +0.031 A 
ATOM     26  C   UNL     1      -0.342   2.356   0.495  0.00  0.00    +0.020 A 
ATOM     27  C   UNL     1       0.982   2.976   0.569  0.00  0.00    -0.001 A 
ATOM     28  C   UNL     1       1.561   3.583  -0.551  0.00  0.00    +0.013 A 
ATOM     29  C   UNL     1       2.797   4.154  -0.449  0.00  0.00    -0.047 A 
ATOM     30  C   UNL     1       3.486   4.137   0.757  0.00  0.00    -0.046 A 
ATOM     31  C   UNL     1       2.935   3.545   1.873  0.00  0.00    +0.030 A 
ATOM     32  C   UNL     1       1.677   2.958   1.793  0.00  0.00    +0.049 A 
ATOM     33  N   UNL     1       1.102   2.360   2.894  0.00  0.00    -0.322 N 
ATOM     34  H   UNL     1       1.582   2.348   3.737  0.00  0.00    +0.169 HD
ATOM     35  C   UNL     1      -0.117   1.797   2.818  0.00  0.00    +0.254 A 
ATOM     36  O   UNL     1      -0.597   1.281   3.812  0.00  0.00    -0.268 OA
ATOM     37  C   UNL     1       4.849   4.772   0.846  0.00  0.00    +0.044 C 
ATOM     38  C   UNL     1       3.421   4.807  -1.655  0.00  0.00    +0.044 C 
ENDBRANCH  24  25
ENDBRANCH   1  24
TORSDOF 10
