REMARK  Name = ZINC41547957
REMARK  7 active torsions:
REMARK  status: ('A' for Active; 'I' for Inactive)
REMARK    1  A    between atoms: C_1  and  C_2
REMARK    2  A    between atoms: C_11  and  C_13
REMARK    3  A    between atoms: C_11  and  C_14
REMARK    4  A    between atoms: N_16  and  C_17
REMARK    5  A    between atoms: N_21  and  C_22
REMARK    6  A    between atoms: C_22  and  C_24
REMARK    7  A    between atoms: C_22  and  C_25
REMARK                            x       y       z     vdW  Elec       q    Type
REMARK                         _______ _______ _______ _____ _____    ______ ____
ROOT
ATOM      1  C   UNL     1       2.194  -4.685   0.833  0.00  0.00    +0.271 C 
ATOM      2  O   UNL     1       2.938  -4.569   1.784  0.00  0.00    -0.270 OA
ATOM      3  N   UNL     1       2.699  -4.724  -0.416  0.00  0.00    -0.267 N 
ATOM      4  H   UNL     1       2.105  -4.818  -1.177  0.00  0.00    +0.156 HD
ENDROOT
BRANCH   1  15
ATOM      5  C   UNL     1      -0.018   1.503   0.010  0.00  0.00    +0.044 C 
ATOM      6  C   UNL     1       0.002  -0.004   0.002  0.00  0.00    -0.048 A 
ATOM      7  C   UNL     1       0.006  -0.687  -1.200  0.00  0.00    +0.007 A 
ATOM      8  C   UNL     1       0.019  -2.070  -1.216  0.00  0.00    +0.048 A 
ATOM      9  C   UNL     1       0.031  -2.773  -0.024  0.00  0.00    +0.144 A 
ATOM     10  C   UNL     1       0.038  -2.085   1.188  0.00  0.00    +0.076 A 
ATOM     11  C   UNL     1       0.023  -0.700   1.197  0.00  0.00    +0.030 A 
ATOM     12  N   UNL     1       0.086  -2.805   2.389  0.00  0.00    -0.279 N 
ATOM     13  C   UNL     1       0.342  -4.129   2.355  0.00  0.00    +0.270 C 
ATOM     14  O   UNL     1       0.279  -4.788   3.371  0.00  0.00    -0.271 OA
ATOM     15  C   UNL     1       0.706  -4.787   1.048  0.00  0.00    +0.258 C 
ATOM     16  O   UNL     1       0.025  -4.133  -0.026  0.00  0.00    -0.465 OA
ATOM     17  C   UNL     1       0.298  -6.261   1.088  0.00  0.00    +0.076 C 
ATOM     18  H   UNL     1      -0.063  -2.356   3.236  0.00  0.00    +0.155 HD
ENDBRANCH   1  15
BRANCH   3  19
ATOM     19  C   UNL     1       4.077  -4.630  -0.615  0.00  0.00    +0.124 A 
ATOM     20  C   UNL     1       5.022  -4.503   0.356  0.00  0.00    +0.065 A 
ATOM     21  C   UNL     1       6.271  -4.444  -0.268  0.00  0.00    +0.136 A 
ATOM     22  N   UNL     1       6.089  -4.532  -1.561  0.00  0.00    -0.177 NA
ATOM     23  N   UNL     1       4.716  -4.656  -1.806  0.00  0.00    -0.243 N 
BRANCH  23  24
ATOM     24  C   UNL     1       4.083  -4.786  -3.121  0.00  0.00    +0.136 C 
ATOM     25  C   UNL     1       4.416  -3.558  -3.971  0.00  0.00    +0.038 C 
BRANCH  24  26
ATOM     26  C   UNL     1       4.598  -6.025  -3.806  0.00  0.00    -0.023 A 
ATOM     27  C   UNL     1       5.949  -6.161  -4.066  0.00  0.00    +0.006 A 
ATOM     28  C   UNL     1       6.422  -7.298  -4.694  0.00  0.00    +0.000 A 
ATOM     29  C   UNL     1       5.544  -8.299  -5.062  0.00  0.00    +0.000 A 
ATOM     30  C   UNL     1       4.193  -8.164  -4.802  0.00  0.00    +0.000 A 
ATOM     31  C   UNL     1       3.721  -7.029  -4.170  0.00  0.00    +0.006 A 
ENDBRANCH  24  26
ENDBRANCH  23  24
ENDBRANCH   3  19
TORSDOF 4
