REMARK  Name = ZINC52006329
REMARK  4 active torsions:
REMARK  status: ('A' for Active; 'I' for Inactive)
REMARK    1  A    between atoms: C_3  and  N_21
REMARK    2  A    between atoms: C_10  and  N_11
REMARK    3  A    between atoms: N_11  and  C_12
REMARK    4  A    between atoms: C_18  and  O_20
REMARK                            x       y       z     vdW  Elec       q    Type
REMARK                         _______ _______ _______ _____ _____    ______ ____
ROOT
ATOM      1  C   UNL     1      -0.004   1.352  -0.253  0.00  0.00    +0.026 A 
ATOM      2  C   UNL     1       1.182   2.081  -0.255  0.00  0.00    +0.035 A 
ATOM      3  C   UNL     1       2.380   1.480  -0.013  0.00  0.00    +0.135 A 
ATOM      4  C   UNL     1       2.430   0.101   0.244  0.00  0.00    +0.032 A 
ATOM      5  C   UNL     1       3.640  -0.565   0.499  0.00  0.00    +0.121 A 
ATOM      6  N   UNL     1       3.639  -1.857   0.735  0.00  0.00    -0.263 NA
ATOM      7  C   UNL     1       2.530  -2.583   0.744  0.00  0.00    +0.111 A 
ATOM      8  C   UNL     1       1.307  -2.031   0.508  0.00  0.00    +0.030 A 
ATOM      9  C   UNL     1       1.228  -0.652   0.248  0.00  0.00    +0.008 A 
ATOM     10  C   UNL     1       0.003  -0.005  -0.005  0.00  0.00    +0.035 A 
ENDROOT
BRANCH   3  11
ATOM     11  N   UNL     1       3.627   2.279  -0.021  0.00  0.00    +0.057 N 
ATOM     12  O   UNL     1       3.628   3.402   0.427  0.00  0.00    -0.126 OA
ATOM     13  O   UNL     1       4.643   1.808  -0.476  0.00  0.00    -0.126 OA
ENDBRANCH   3  11
BRANCH  10  14
ATOM     14  N   UNL     1      -1.189  -0.727  -0.005  0.00  0.00    -0.338 N 
ATOM     15  H   UNL     1      -1.179  -1.681   0.170  0.00  0.00    +0.146 HD
BRANCH  14  16
ATOM     16  C   UNL     1      -2.459  -0.045  -0.269  0.00  0.00    +0.099 C 
ATOM     17  C   UNL     1      -2.994   0.557   1.031  0.00  0.00    +0.025 C 
ATOM     18  C   UNL     1      -3.217  -0.557   2.055  0.00  0.00    +0.002 C 
ATOM     19  C   UNL     1      -4.231  -1.562   1.503  0.00  0.00    +0.003 C 
ATOM     20  C   UNL     1      -3.695  -2.164   0.203  0.00  0.00    +0.033 C 
ATOM     21  C   UNL     1      -3.472  -1.049  -0.821  0.00  0.00    +0.135 C 
BRANCH  21  22
ATOM     22  O   UNL     1      -2.972  -1.612  -2.036  0.00  0.00    -0.390 OA
ATOM     23  H   UNL     1      -3.564  -2.259  -2.443  0.00  0.00    +0.210 HD
ENDBRANCH  21  22
ENDBRANCH  14  16
ENDBRANCH  10  14
TORSDOF 4
