REMARK  Name = ZINC34923012
REMARK  13 active torsions:
REMARK  status: ('A' for Active; 'I' for Inactive)
REMARK    1  A    between atoms: C_1  and  C_2
REMARK    2  A    between atoms: C_2  and  C_3
REMARK    3  A    between atoms: C_4  and  C_33
REMARK    4  A    between atoms: C_5  and  C_26
REMARK    5  A    between atoms: C_8  and  C_13
REMARK    6  A    between atoms: C_14  and  N_16
REMARK    7  A    between atoms: N_16  and  C_17
REMARK    8  A    between atoms: C_17  and  C_18
REMARK    9  A    between atoms: C_18  and  C_19
REMARK   10  A    between atoms: N_24  and  C_25
REMARK   11  A    between atoms: C_30  and  C_32
REMARK   12  A    between atoms: C_33  and  O_35
REMARK   13  A    between atoms: O_35  and  C_36
REMARK                            x       y       z     vdW  Elec       q    Type
REMARK                         _______ _______ _______ _____ _____    ______ ____
ROOT
ATOM      1  C   UNL     1       0.488  -0.239  -0.995  0.00  0.00    +0.056 C 
ATOM      2  C   UNL     1       1.859  -0.387  -1.078  0.00  0.00    +0.083 C 
ATOM      3  C   UNL     1       2.469  -0.556  -2.451  0.00  0.00    +0.150 C 
ATOM      4  N   UNL     1       1.537  -0.549  -3.611  0.00  0.00    -0.267 N 
ATOM      5  C   UNL     1       1.869  -0.686  -4.944  0.00  0.00    +0.048 C 
ATOM      6  C   UNL     1       0.864  -0.652  -5.846  0.00  0.00    +0.072 C 
ATOM      7  S   UNL     1      -0.562  -0.424  -4.802  0.00  0.00    -0.060 S 
ATOM      8  C   UNL     1       0.213  -0.389  -3.314  0.00  0.00    +0.166 C 
ATOM      9  N   UNL     1      -0.255  -0.252  -2.090  0.00  0.00    -0.229 NA
ENDROOT
BRANCH   3  10
ATOM     10  C   UNL     1       3.469   0.553  -2.654  0.00  0.00    -0.022 A 
ATOM     11  C   UNL     1       3.033   1.849  -2.855  0.00  0.00    +0.006 A 
ATOM     12  C   UNL     1       3.950   2.866  -3.041  0.00  0.00    +0.001 A 
ATOM     13  C   UNL     1       5.304   2.587  -3.026  0.00  0.00    +0.003 A 
ATOM     14  C   UNL     1       5.740   1.291  -2.824  0.00  0.00    -0.050 A 
ATOM     15  C   UNL     1       4.823   0.275  -2.634  0.00  0.00    +0.009 A 
ATOM     16  C   UNL     1       7.216   0.987  -2.808  0.00  0.00    +0.044 C 
ENDBRANCH   3  10
BRANCH   5  17
ATOM     17  C   UNL     1       3.266  -0.862  -5.367  0.00  0.00    +0.091 C 
ATOM     18  C   UNL     1       3.549  -1.155  -6.651  0.00  0.00    +0.239 C 
ATOM     19  O   UNL     1       2.561  -1.162  -7.578  0.00  0.00    -0.271 OA
BRANCH  18  20
ATOM     20  N   UNL     1       4.850  -1.447  -7.023  0.00  0.00    -0.312 N 
ATOM     21  H   UNL     1       5.544  -1.516  -6.349  0.00  0.00    +0.149 HD
BRANCH  20  22
ATOM     22  C   UNL     1       5.178  -1.654  -8.436  0.00  0.00    +0.103 C 
BRANCH  22  23
ATOM     23  C   UNL     1       6.643  -2.080  -8.562  0.00  0.00    +0.003 C 
BRANCH  23  24
ATOM     24  C   UNL     1       7.026  -2.157 -10.041  0.00  0.00    -0.068 C 
ATOM     25  C   UNL     1       8.524  -2.522 -10.192  0.00  0.00    -0.017 C 
ATOM     26  C   UNL     1       8.552  -3.152 -11.610  0.00  0.00    -0.020 C 
ATOM     27  C   UNL     1       7.199  -3.890 -11.688  0.00  0.00    -0.079 C 
ATOM     28  N   UNL     1       6.298  -3.260 -10.704  0.00  0.00    +0.380 N 
ATOM     29  C   UNL     1       5.111  -2.728 -11.387  0.00  0.00    -0.096 C 
ATOM     30  H   UNL     1       6.015  -3.942 -10.017  0.00  0.00    -0.082 HD
ENDBRANCH  23  24
ENDBRANCH  22  23
ENDBRANCH  20  22
ENDBRANCH  18  20
ENDBRANCH   5  17
BRANCH   1  32
ATOM     31  C   UNL     1      -0.134   1.408   0.751  0.00  0.00    +0.010 C 
ATOM     32  C   UNL     1      -0.167  -0.069   0.351  0.00  0.00    +0.053 C 
ENDBRANCH   1  32
BRANCH   2  33
ATOM     33  C   UNL     1       2.658  -0.381   0.072  0.00  0.00    +0.339 C 
ATOM     34  O   UNL     1       2.161  -0.138   1.158  0.00  0.00    -0.245 OA
BRANCH  33  35
ATOM     35  O   UNL     1       3.980  -0.644  -0.022  0.00  0.00    -0.465 OA
ATOM     36  C   UNL     1       4.734  -0.620   1.192  0.00  0.00    +0.280 C 
ENDBRANCH  33  35
ENDBRANCH   2  33
TORSDOF 9
