REMARK  Name = ZINC46794092
REMARK  13 active torsions:
REMARK  status: ('A' for Active; 'I' for Inactive)
REMARK    1  A    between atoms: C_1  and  C_2
REMARK    2  A    between atoms: C_5  and  C_8
REMARK    3  A    between atoms: C_8  and  N_9
REMARK    4  A    between atoms: N_12  and  C_13
REMARK    5  A    between atoms: C_13  and  C_15
REMARK    6  A    between atoms: C_13  and  C_19
REMARK    7  A    between atoms: C_15  and  C_16
REMARK    8  A    between atoms: C_16  and  C_17
REMARK    9  A    between atoms: C_16  and  C_18
REMARK   10  A    between atoms: N_21  and  C_22
REMARK   11  A    between atoms: C_26  and  S_28
REMARK   12  A    between atoms: S_28  and  N_31
REMARK   13  A    between atoms: N_31  and  C_32
REMARK                            x       y       z     vdW  Elec       q    Type
REMARK                         _______ _______ _______ _____ _____    ______ ____
ROOT
ATOM      1  C   UNL     1       3.270  -7.938  -0.053  0.00  0.00    +0.161 C 
ENDROOT
BRANCH   1   5
ATOM      2  N   UNL     1       1.447  -4.745  -0.025  0.00  0.00    -0.295 N 
ATOM      3  C   UNL     1       1.709  -6.067  -0.031  0.00  0.00    +0.300 C 
ATOM      4  O   UNL     1       0.794  -6.868  -0.022  0.00  0.00    -0.253 OA
ATOM      5  N   UNL     1       2.985  -6.501  -0.047  0.00  0.00    -0.288 N 
ATOM      6  H   UNL     1       2.176  -4.106  -0.032  0.00  0.00    +0.151 HD
ATOM      7  H   UNL     1       3.714  -5.862  -0.053  0.00  0.00    +0.151 HD
BRANCH   2   8
ATOM      8  C   UNL     1       0.060  -4.273  -0.008  0.00  0.00    +0.141 C 
BRANCH   8  13
ATOM      9  C   UNL     1      -0.013   1.505   0.006  0.00  0.00    +0.044 C 
ATOM     10  C   UNL     1       0.006  -0.002   0.002  0.00  0.00    -0.050 A 
ATOM     11  C   UNL     1       0.002  -0.691  -1.197  0.00  0.00    +0.003 A 
ATOM     12  C   UNL     1       0.019  -2.073  -1.200  0.00  0.00    +0.005 A 
ATOM     13  C   UNL     1       0.042  -2.767  -0.004  0.00  0.00    -0.030 A 
ATOM     14  C   UNL     1       0.046  -2.078   1.194  0.00  0.00    +0.005 A 
ATOM     15  C   UNL     1       0.033  -0.696   1.198  0.00  0.00    +0.003 A 
ENDBRANCH   8  13
ENDBRANCH   2   8
ENDBRANCH   1   5
BRANCH   1  16
ATOM     16  C   UNL     1       4.638  -8.181   0.531  0.00  0.00    +0.238 C 
ATOM     17  O   UNL     1       5.308  -7.246   0.915  0.00  0.00    -0.273 OA
ATOM     18  N   UNL     1       5.115  -9.438   0.627  0.00  0.00    -0.284 N 
ATOM     19  H   UNL     1       4.554 -10.190   0.383  0.00  0.00    +0.155 HD
BRANCH  18  20
ATOM     20  C   UNL     1       6.422  -9.657   1.079  0.00  0.00    +0.035 A 
ATOM     21  C   UNL     1       6.966  -8.838   2.059  0.00  0.00    +0.023 A 
ATOM     22  C   UNL     1       8.255  -9.056   2.503  0.00  0.00    +0.004 A 
ATOM     23  C   UNL     1       9.005 -10.090   1.971  0.00  0.00    +0.028 A 
ATOM     24  C   UNL     1       8.466 -10.907   0.994  0.00  0.00    +0.107 A 
ATOM     25  C   UNL     1       7.175 -10.697   0.551  0.00  0.00    +0.051 A 
BRANCH  24  26
ATOM     26  S   UNL     1       9.425 -12.222   0.320  0.00  0.00    +0.058 S 
ATOM     27  O   UNL     1       8.887 -12.499  -0.966  0.00  0.00    -0.153 OA
ATOM     28  O   UNL     1      10.789 -11.872   0.515  0.00  0.00    -0.153 OA
BRANCH  26  29
ATOM     29  N   UNL     1       9.143 -13.562   1.250  0.00  0.00    -0.193 NA
ATOM     30  C   UNL     1       7.806 -14.160   1.286  0.00  0.00    +0.127 C 
ATOM     31  H   UNL     1       9.862 -13.951   1.772  0.00  0.00    +0.148 HD
ENDBRANCH  26  29
ENDBRANCH  24  26
ENDBRANCH  18  20
ENDBRANCH   1  16
BRANCH   1  32
ATOM     32  C   UNL     1       3.229  -8.459  -1.491  0.00  0.00    +0.034 C 
BRANCH  32  33
ATOM     33  C   UNL     1       1.808  -8.326  -2.042  0.00  0.00    -0.015 C 
ATOM     34  C   UNL     1       1.794  -8.730  -3.518  0.00  0.00    +0.007 C 
ATOM     35  C   UNL     1       0.868  -9.240  -1.253  0.00  0.00    +0.007 C 
ENDBRANCH  32  33
ENDBRANCH   1  32
TORSDOF 9
