REMARK  Name = ZINC21219264
REMARK  10 active torsions:
REMARK  status: ('A' for Active; 'I' for Inactive)
REMARK    1  A    between atoms: C_1  and  C_2
REMARK    2  A    between atoms: C_2  and  C_3
REMARK    3  A    between atoms: C_2  and  O_4
REMARK    4  A    between atoms: O_4  and  C_5
REMARK    5  A    between atoms: C_8  and  C_13
REMARK    6  A    between atoms: C_10  and  O_11
REMARK    7  A    between atoms: O_11  and  C_12
REMARK    8  A    between atoms: C_18  and  C_28
REMARK    9  A    between atoms: C_31  and  O_37
REMARK   10  A    between atoms: C_32  and  N_34
REMARK                            x       y       z     vdW  Elec       q    Type
REMARK                         _______ _______ _______ _____ _____    ______ ____
ROOT
ATOM      1  C   UNL     1      -2.958   0.581  -4.237  0.00  0.00    +0.032 C 
ATOM      2  C   UNL     1      -3.287  -0.691  -3.457  0.00  0.00    +0.059 C 
ATOM      3  C   UNL     1      -2.860  -0.536  -2.007  0.00  0.00    +0.017 C 
ATOM      4  C   UNL     1      -2.895   0.668  -1.410  0.00  0.00    +0.036 C 
ATOM      5  C   UNL     1      -2.512   0.958   0.021  0.00  0.00    +0.136 C 
ATOM      6  N   UNL     1      -2.329  -0.219   0.843  0.00  0.00    -0.331 N 
ATOM      7  C   UNL     1      -1.306  -1.126   0.583  0.00  0.00    +0.049 A 
ATOM      8  C   UNL     1      -0.235  -1.278   1.449  0.00  0.00    +0.025 A 
ATOM      9  C   UNL     1       0.816  -2.106   1.091  0.00  0.00    +0.002 A 
ATOM     10  C   UNL     1       0.798  -2.776  -0.119  0.00  0.00    +0.002 A 
ATOM     11  C   UNL     1      -0.281  -2.643  -0.976  0.00  0.00    +0.025 A 
ATOM     12  C   UNL     1      -1.340  -1.830  -0.611  0.00  0.00    +0.052 A 
ATOM     13  N   UNL     1      -2.475  -1.688  -1.401  0.00  0.00    -0.316 N 
ATOM     14  C   UNL     1      -3.316   1.809  -2.134  0.00  0.00    +0.163 C 
ATOM     15  O   UNL     1      -3.355   2.882  -1.565  0.00  0.00    -0.292 OA
ATOM     16  C   UNL     1      -3.714   1.740  -3.577  0.00  0.00    +0.088 C 
ATOM     17  H   UNL     1      -3.004  -0.409   1.690  0.00  0.00    +0.147 HD
ATOM     18  H   UNL     1      -3.079  -2.599  -1.518  0.00  0.00    +0.152 HD
ENDROOT
BRANCH   1  22
ATOM     19  C   UNL     1      -4.225   0.155  -8.300  0.00  0.00    +0.162 A 
ATOM     20  C   UNL     1      -5.147   0.063  -7.270  0.00  0.00    +0.050 A 
ATOM     21  C   UNL     1      -4.735   0.202  -5.958  0.00  0.00    +0.008 A 
ATOM     22  C   UNL     1      -3.403   0.431  -5.669  0.00  0.00    -0.040 A 
ATOM     23  C   UNL     1      -2.478   0.528  -6.692  0.00  0.00    +0.053 A 
ATOM     24  C   UNL     1      -2.884   0.386  -8.009  0.00  0.00    +0.162 A 
BRANCH  24  25
ATOM     25  O   UNL     1      -1.974   0.476  -9.016  0.00  0.00    -0.491 OA
ATOM     26  C   UNL     1      -0.615   0.715  -8.644  0.00  0.00    +0.277 C 
ENDBRANCH  24  25
BRANCH  19  27
ATOM     27  O   UNL     1      -4.629   0.019  -9.591  0.00  0.00    -0.486 OA
BRANCH  27  29
ATOM     28  C   UNL     1      -6.356   0.379 -11.242  0.00  0.00    +0.051 C 
ATOM     29  C   UNL     1      -6.035  -0.092  -9.823  0.00  0.00    +0.167 C 
ATOM     30  C   UNL     1      -6.465  -1.551  -9.659  0.00  0.00    +0.051 C 
ENDBRANCH  27  29
ENDBRANCH  19  27
ENDBRANCH   1  22
BRANCH   5  31
ATOM     31  C   UNL     1      -1.227   1.745   0.021  0.00  0.00    -0.020 A 
ATOM     32  C   UNL     1      -0.067   1.172  -0.467  0.00  0.00    +0.009 A 
ATOM     33  C   UNL     1       1.111   1.893  -0.473  0.00  0.00    +0.048 A 
ATOM     34  C   UNL     1       1.131   3.192   0.015  0.00  0.00    +0.147 A 
ATOM     35  C   UNL     1      -0.033   3.762   0.508  0.00  0.00    +0.168 A 
ATOM     36  C   UNL     1      -1.209   3.037   0.512  0.00  0.00    +0.042 A 
BRANCH  35  37
ATOM     37  N   UNL     1      -0.015   5.147   1.030  0.00  0.00    +0.060 N 
ATOM     38  O   UNL     1      -1.038   5.648   1.463  0.00  0.00    -0.126 OA
ATOM     39  O   UNL     1       1.022   5.786   1.026  0.00  0.00    -0.126 OA
ENDBRANCH  35  37
BRANCH  34  40
ATOM     40  O   UNL     1       2.289   3.903   0.009  0.00  0.00    -0.504 OA
ATOM     41  H   UNL     1       2.303   4.933   0.397  0.00  0.00    +0.292 HD
ENDBRANCH  34  40
ENDBRANCH   5  31
TORSDOF 7
