REMARK  Name = ZINC63567328
REMARK  8 active torsions:
REMARK  status: ('A' for Active; 'I' for Inactive)
REMARK    1  A    between atoms: C_1  and  C_2
REMARK    2  A    between atoms: C_5  and  N_8
REMARK    3  A    between atoms: C_9  and  N_29
REMARK    4  A    between atoms: C_11  and  C_15
REMARK    5  A    between atoms: C_12  and  C_14
REMARK    6  A    between atoms: N_17  and  C_18
REMARK    7  A    between atoms: C_18  and  C_19
REMARK    8  A    between atoms: C_19  and  C_20
REMARK                            x       y       z     vdW  Elec       q    Type
REMARK                         _______ _______ _______ _____ _____    ______ ____
ROOT
ATOM      1  N   UNL     1       0.058  -4.167  -0.021  0.00  0.00    -0.226 N 
ATOM      2  C   UNL     1       0.070  -5.059   1.151  0.00  0.00    +0.230 C 
ATOM      3  C   UNL     1       0.088  -6.452   0.561  0.00  0.00    +0.074 C 
ATOM      4  C   UNL     1       0.087  -6.311  -0.778  0.00  0.00    +0.031 C 
ATOM      5  N   UNL     1       0.063  -5.003  -1.145  0.00  0.00    -0.266 N 
ATOM      6  C   UNL     1       0.102  -7.462  -1.750  0.00  0.00    +0.062 C 
ATOM      7  H   UNL     1       0.054  -4.690  -2.063  0.00  0.00    +0.170 HD
ENDROOT
BRANCH   1  12
ATOM      8  C   UNL     1      -0.018   1.503   0.010  0.00  0.00    +0.044 C 
ATOM      9  C   UNL     1       0.002  -0.004   0.002  0.00  0.00    -0.050 A 
ATOM     10  C   UNL     1       0.006  -0.687  -1.200  0.00  0.00    +0.005 A 
ATOM     11  C   UNL     1       0.024  -2.068  -1.212  0.00  0.00    +0.025 A 
ATOM     12  C   UNL     1       0.040  -2.771  -0.013  0.00  0.00    +0.050 A 
ATOM     13  C   UNL     1       0.036  -2.081   1.193  0.00  0.00    +0.025 A 
ATOM     14  C   UNL     1       0.023  -0.700   1.197  0.00  0.00    +0.005 A 
ENDBRANCH   1  12
BRANCH   2  15
ATOM     15  N   UNL     1       1.269  -4.826   1.960  0.00  0.00    -0.329 N 
ATOM     16  C   UNL     1       2.521  -4.588   1.474  0.00  0.00    +0.088 A 
ATOM     17  C   UNL     1       3.355  -4.424   2.521  0.00  0.00    +0.019 A 
ATOM     18  C   UNL     1       2.590  -4.567   3.696  0.00  0.00    +0.019 A 
ATOM     19  C   UNL     1       1.317  -4.807   3.322  0.00  0.00    +0.088 A 
ENDBRANCH   2  15
BRANCH   3  20
ATOM     20  C   UNL     1       0.104  -7.671   1.279  0.00  0.00    +0.245 C 
ATOM     21  O   UNL     1       0.118  -8.731   0.679  0.00  0.00    -0.270 OA
ATOM     22  N   UNL     1       0.104  -7.659   2.627  0.00  0.00    -0.311 N 
ATOM     23  H   UNL     1       0.093  -6.815   3.104  0.00  0.00    +0.149 HD
BRANCH  22  24
ATOM     24  C   UNL     1       0.120  -8.921   3.370  0.00  0.00    +0.109 C 
BRANCH  24  25
ATOM     25  C   UNL     1       0.116  -8.628   4.872  0.00  0.00    +0.052 C 
BRANCH  25  26
ATOM     26  C   UNL     1       0.134  -9.927   5.637  0.00  0.00    -0.040 C 
ATOM     27  C   UNL     1       1.218 -10.562   6.136  0.00  0.00    -0.001 A 
ATOM     28  C   UNL     1       2.652 -10.248   6.115  0.00  0.00    +0.010 A 
ATOM     29  C   UNL     1       3.518 -11.097   6.713  0.00  0.00    +0.001 A 
ATOM     30  C   UNL     1       3.082 -12.267   7.351  0.00  0.00    +0.002 A 
ATOM     31  C   UNL     1       1.782 -12.623   7.411  0.00  0.00    +0.026 A 
ATOM     32  C   UNL     1       0.784 -11.803   6.816  0.00  0.00    +0.043 A 
ATOM     33  N   UNL     1      -0.519 -11.930   6.740  0.00  0.00    -0.380 N 
ATOM     34  C   UNL     1      -1.059 -10.779   6.008  0.00  0.00    +0.144 C 
ATOM     35  H   UNL     1      -1.039 -12.661   7.110  0.00  0.00    +0.160 HD
ENDBRANCH  25  26
ENDBRANCH  24  25
ENDBRANCH  22  24
ENDBRANCH   3  20
TORSDOF 6
