REMARK  Name = ZINC31055167
REMARK  4 active torsions:
REMARK  status: ('A' for Active; 'I' for Inactive)
REMARK    1  A    between atoms: C_12  and  C_14
REMARK    2  A    between atoms: N_19  and  C_21
REMARK    3  A    between atoms: C_21  and  C_22
REMARK    4  A    between atoms: C_24  and  C_27
REMARK                            x       y       z     vdW  Elec       q    Type
REMARK                         _______ _______ _______ _____ _____    ______ ____
ROOT
ATOM      1  C   UNL     1      -3.285   3.574  -2.833  0.00  0.00    +0.059 C 
ATOM      2  C   UNL     1      -3.282   2.337  -3.734  0.00  0.00    +0.009 C 
ATOM      3  C   UNL     1      -1.917   1.650  -3.641  0.00  0.00    -0.018 C 
ATOM      4  C   UNL     1      -1.633   1.286  -2.182  0.00  0.00    -0.078 C 
ATOM      5  N   UNL     1      -1.645   2.503  -1.361  0.00  0.00    +0.386 N 
ATOM      6  C   UNL     1      -2.961   3.155  -1.397  0.00  0.00    -0.065 C 
ATOM      7  H   UNL     1      -0.913   3.204  -1.789  0.00  0.00    -0.081 HD
ENDROOT
BRANCH   1  19
ATOM      8  C   UNL     1      -8.886   6.491  -4.283  0.00  0.00    +0.002 A 
ATOM      9  C   UNL     1      -8.650   5.535  -3.312  0.00  0.00    +0.002 A 
ATOM     10  C   UNL     1      -7.411   4.927  -3.220  0.00  0.00    +0.025 A 
ATOM     11  C   UNL     1      -6.408   5.277  -4.105  0.00  0.00    +0.058 A 
ATOM     12  C   UNL     1      -6.637   6.248  -5.085  0.00  0.00    +0.055 A 
ATOM     13  C   UNL     1      -7.880   6.856  -5.170  0.00  0.00    +0.025 A 
ATOM     14  N   UNL     1      -5.611   6.592  -5.972  0.00  0.00    -0.283 N 
ATOM     15  C   UNL     1      -4.510   5.824  -6.081  0.00  0.00    +0.235 C 
ATOM     16  O   UNL     1      -3.613   6.165  -6.823  0.00  0.00    -0.274 OA
ATOM     17  C   UNL     1      -4.377   4.547  -5.291  0.00  0.00    +0.209 C 
ATOM     18  N   UNL     1      -5.142   4.675  -4.041  0.00  0.00    -0.261 N 
ATOM     19  C   UNL     1      -4.645   4.223  -2.873  0.00  0.00    +0.222 C 
ATOM     20  O   UNL     1      -5.292   4.338  -1.853  0.00  0.00    -0.275 OA
ATOM     21  H   UNL     1      -5.698   7.498  -6.590  0.00  0.00    +0.155 HD
ENDBRANCH   1  19
BRANCH   5  22
ATOM     22  C   UNL     1      -1.240   2.211   0.020  0.00  0.00    +0.022 C 
BRANCH  22  23
ATOM     23  C   UNL     1      -0.016   1.333   0.009  0.00  0.00    +0.211 A 
ATOM     24  N   UNL     1       1.230   1.735  -0.000  0.00  0.00    -0.193 NA
ATOM     25  C   UNL     1       1.976   0.607  -0.013  0.00  0.00    +0.203 A 
ATOM     26  N   UNL     1       1.147  -0.404  -0.011  0.00  0.00    -0.056 NA
ATOM     27  O   UNL     1       0.002  -0.004   0.002  0.00  0.00    -0.340 OA
BRANCH  25  28
ATOM     28  C   UNL     1       3.458   0.532  -0.028  0.00  0.00    +0.041 A 
ATOM     29  C   UNL     1       4.095  -0.708  -0.040  0.00  0.00    +0.014 A 
ATOM     30  C   UNL     1       5.473  -0.773  -0.054  0.00  0.00    +0.021 A 
ATOM     31  C   UNL     1       6.224   0.390  -0.056  0.00  0.00    +0.042 A 
ATOM     32  C   UNL     1       5.598   1.624  -0.043  0.00  0.00    +0.040 A 
ATOM     33  C   UNL     1       4.218   1.700  -0.035  0.00  0.00    +0.053 A 
ATOM     34 CL   UNL     1       3.433   3.249  -0.028  0.00  0.00    -0.083 Cl
ATOM     35 CL   UNL     1       7.957   0.300  -0.073  0.00  0.00    -0.083 Cl
ENDBRANCH  25  28
ENDBRANCH  22  23
ENDBRANCH   5  22
TORSDOF 4
