REMARK  Name = ZINC44747422
REMARK  4 active torsions:
REMARK  status: ('A' for Active; 'I' for Inactive)
REMARK    1  A    between atoms: C_6  and  O_7
REMARK    2  A    between atoms: C_11  and  N_13
REMARK    3  A    between atoms: N_13  and  C_14
REMARK    4  A    between atoms: C_14  and  C_15
REMARK                            x       y       z     vdW  Elec       q    Type
REMARK                         _______ _______ _______ _____ _____    ______ ____
ROOT
ATOM      1  C   UNL     1      -0.167   1.774  -0.158  0.00  0.00    +0.045 A 
ATOM      2  C   UNL     1       1.066   2.389  -0.101  0.00  0.00    +0.006 A 
ATOM      3  C   UNL     1       2.232   1.652  -0.261  0.00  0.00    -0.058 A 
ATOM      4  C   UNL     1       2.159   0.294  -0.477  0.00  0.00    -0.042 A 
ATOM      5  C   UNL     1       0.920  -0.327  -0.539  0.00  0.00    +0.049 A 
ATOM      6  C   UNL     1      -0.243   0.407  -0.380  0.00  0.00    +0.117 A 
ATOM      7  C   UNL     1       3.384  -0.568  -0.643  0.00  0.00    +0.035 C 
ATOM      8  C   UNL     1       4.602   0.289  -0.978  0.00  0.00    +0.003 C 
ATOM      9  C   UNL     1       4.696   1.421   0.052  0.00  0.00    -0.011 C 
ATOM     10  C   UNL     1       3.543   2.392  -0.194  0.00  0.00    -0.040 C 
ENDROOT
BRANCH  10  11
ATOM     11  N   UNL     1       3.492   3.370   0.901  0.00  0.00    +0.386 N 
ATOM     12  H   UNL     1       2.689   3.969   0.780  0.00  0.00    -0.085 HD
ATOM     13  H   UNL     1       3.418   2.884   1.782  0.00  0.00    -0.085 HD
BRANCH  11  14
ATOM     14  C   UNL     1       4.715   4.183   0.890  0.00  0.00    -0.045 C 
BRANCH  14  15
ATOM     15  C   UNL     1       4.607   5.268   1.929  0.00  0.00    -0.048 A 
ATOM     16  C   UNL     1       4.257   6.552   1.554  0.00  0.00    +0.041 A 
ATOM     17  C   UNL     1       4.157   7.549   2.509  0.00  0.00    +0.124 A 
ATOM     18  C   UNL     1       4.409   7.260   3.840  0.00  0.00    +0.039 A 
ATOM     19  C   UNL     1       4.758   5.976   4.214  0.00  0.00    +0.018 A 
ATOM     20  C   UNL     1       4.852   4.979   3.260  0.00  0.00    +0.019 A 
ATOM     21 BR   UNL     1       5.323   3.221   3.773  0.00  0.00    -0.050 Br
ATOM     22  F   UNL     1       3.816   8.804   2.143  0.00  0.00    -0.205 F 
ENDBRANCH  14  15
ENDBRANCH  11  14
ENDBRANCH  10  11
BRANCH   6  23
ATOM     23  O   UNL     1      -1.454  -0.208  -0.441  0.00  0.00    -0.507 OA
ATOM     24  H   UNL     1      -1.833  -0.243  -1.330  0.00  0.00    +0.292 HD
ENDBRANCH   6  23
TORSDOF 4
