REMARK  Name = ZINC09575586
REMARK  12 active torsions:
REMARK  status: ('A' for Active; 'I' for Inactive)
REMARK    1  A    between atoms: C_1  and  C_2
REMARK    2  A    between atoms: C_2  and  C_3
REMARK    3  A    between atoms: C_2  and  C_4
REMARK    4  A    between atoms: C_4  and  N_60
REMARK    5  A    between atoms: C_5  and  C_6
REMARK    6  A    between atoms: C_5  and  N_60
REMARK    7  A    between atoms: C_7  and  O_27
REMARK    8  A    between atoms: C_14  and  C_15
REMARK    9  A    between atoms: C_28  and  C_29
REMARK   10  A    between atoms: C_28  and  N_60
REMARK   11  A    between atoms: C_29  and  C_30
REMARK   12  A    between atoms: C_29  and  C_31
REMARK                            x       y       z     vdW  Elec       q    Type
REMARK                         _______ _______ _______ _____ _____    ______ ____
ROOT
ATOM      1  C   UNL     1       0.336   1.374  -0.242  0.00  0.00    +0.020 A 
ATOM      2  C   UNL     1       1.486   2.146  -0.256  0.00  0.00    +0.122 A 
ATOM      3  C   UNL     1       2.741   1.546  -0.303  0.00  0.00    +0.046 A 
ATOM      4  C   UNL     1       2.850   0.184  -0.336  0.00  0.00    +0.019 A 
ATOM      5  C   UNL     1       1.700  -0.606  -0.323  0.00  0.00    +0.068 A 
ATOM      6  C   UNL     1       0.428  -0.012  -0.276  0.00  0.00    +0.144 A 
ATOM      7  O   UNL     1      -0.522  -0.971  -0.271  0.00  0.00    -0.451 OA
ATOM      8  C   UNL     1       0.016  -2.212  -0.312  0.00  0.00    +0.179 C 
ATOM      9  C   UNL     1      -0.672  -3.388  -0.320  0.00  0.00    +0.096 C 
ATOM     10  C   UNL     1       1.476  -2.063  -0.348  0.00  0.00    +0.232 C 
ATOM     11  O   UNL     1       2.316  -2.946  -0.390  0.00  0.00    -0.283 OA
ENDROOT
BRANCH   9  12
ATOM     12  C   UNL     1      -2.087  -3.380  -0.281  0.00  0.00    +0.133 A 
ATOM     13  C   UNL     1      -2.882  -4.488  -0.285  0.00  0.00    +0.058 A 
ATOM     14  C   UNL     1      -4.223  -4.031  -0.239  0.00  0.00    +0.022 A 
ATOM     15  C   UNL     1      -5.465  -4.676  -0.219  0.00  0.00    +0.027 A 
ATOM     16  C   UNL     1      -6.613  -3.936  -0.172  0.00  0.00    +0.019 A 
ATOM     17  C   UNL     1      -6.556  -2.549  -0.143  0.00  0.00    +0.019 A 
ATOM     18  C   UNL     1      -5.343  -1.894  -0.162  0.00  0.00    +0.048 A 
ATOM     19  C   UNL     1      -4.163  -2.625  -0.209  0.00  0.00    +0.136 A 
ATOM     20  O   UNL     1      -2.860  -2.273  -0.230  0.00  0.00    -0.455 OA
ATOM     21 BR   UNL     1      -8.291  -4.807  -0.145  0.00  0.00    -0.050 Br
ENDBRANCH   9  12
BRANCH   2  22
ATOM     22  O   UNL     1       1.389   3.500  -0.223  0.00  0.00    -0.506 OA
ATOM     23  H   UNL     1       1.384   3.872   0.669  0.00  0.00    +0.292 HD
ENDBRANCH   2  22
BRANCH   1  24
ATOM     24  C   UNL     1      -1.016   2.038  -0.198  0.00  0.00    -0.036 C 
BRANCH  24  25
ATOM     25  N   UNL     1      -1.423   2.197   1.215  0.00  0.00    +0.383 N 
ATOM     26  H   UNL     1      -1.337   1.291   1.691  0.00  0.00    -0.081 HD
BRANCH  25  27
ATOM     27  C   UNL     1      -0.544   3.178   1.886  0.00  0.00    -0.075 C 
BRANCH  27  29
ATOM     28  C   UNL     1      -0.527   1.780   3.957  0.00  0.00    +0.005 C 
ATOM     29  C   UNL     1      -0.844   3.164   3.386  0.00  0.00    -0.034 C 
ATOM     30  C   UNL     1       0.018   4.215   4.088  0.00  0.00    +0.005 C 
ENDBRANCH  27  29
ENDBRANCH  25  27
BRANCH  25  31
ATOM     31  C   UNL     1      -2.829   2.646   1.288  0.00  0.00    -0.075 C 
BRANCH  31  32
ATOM     32  C   UNL     1      -3.741   1.445   1.027  0.00  0.00    -0.034 C 
ATOM     33  C   UNL     1      -3.571   0.421   2.151  0.00  0.00    +0.005 C 
ATOM     34  C   UNL     1      -5.197   1.912   0.978  0.00  0.00    +0.005 C 
ENDBRANCH  31  32
ENDBRANCH  25  31
ENDBRANCH  24  25
ENDBRANCH   1  24
TORSDOF 8
