REMARK  Name = ZINC39970757
REMARK  12 active torsions:
REMARK  status: ('A' for Active; 'I' for Inactive)
REMARK    1  A    between atoms: C_1  and  C_2
REMARK    2  A    between atoms: C_7  and  C_35
REMARK    3  A    between atoms: N_9  and  S_10
REMARK    4  A    between atoms: S_10  and  C_13
REMARK    5  A    between atoms: C_16  and  N_19
REMARK    6  A    between atoms: N_19  and  C_20
REMARK    7  A    between atoms: C_20  and  N_22
REMARK    8  A    between atoms: N_22  and  C_23
REMARK    9  A    between atoms: C_23  and  C_24
REMARK   10  A    between atoms: C_24  and  C_25
REMARK   11  A    between atoms: C_28  and  S_31
REMARK   12  A    between atoms: S_31  and  N_34
REMARK                            x       y       z     vdW  Elec       q    Type
REMARK                         _______ _______ _______ _____ _____    ______ ____
ROOT
ATOM      1  N   UNL     1      -2.784   0.311   6.853  0.00  0.00    -0.297 N 
ATOM      2  H   UNL     1      -2.505   0.449   7.772  0.00  0.00    +0.154 HD
ENDROOT
BRANCH   1   6
ATOM      3  C   UNL     1       0.017   0.514   3.776  0.00  0.00    +0.106 A 
ATOM      4  C   UNL     1      -1.235   1.075   3.607  0.00  0.00    +0.030 A 
ATOM      5  C   UNL     1      -2.166   1.009   4.625  0.00  0.00    +0.025 A 
ATOM      6  C   UNL     1      -1.843   0.379   5.819  0.00  0.00    +0.033 A 
ATOM      7  C   UNL     1      -0.584  -0.183   5.986  0.00  0.00    +0.025 A 
ATOM      8  C   UNL     1       0.340  -0.119   4.962  0.00  0.00    +0.030 A 
BRANCH   3   9
ATOM      9  S   UNL     1       1.202   0.601   2.475  0.00  0.00    +0.061 S 
ATOM     10  O   UNL     1       2.482   0.486   3.082  0.00  0.00    -0.153 OA
ATOM     11  O   UNL     1       0.839   1.713   1.668  0.00  0.00    -0.153 OA
BRANCH   9  18
ATOM     12  C   UNL     1       2.839  -1.675   2.869  0.00  0.00    +0.026 C 
ATOM     13  C   UNL     1       1.788  -1.963   1.794  0.00  0.00    +0.077 C 
ATOM     14  C   UNL     1       2.484  -2.386   0.497  0.00  0.00    +0.020 C 
ATOM     15  C   UNL     1       1.439  -2.538  -0.612  0.00  0.00    +0.003 C 
ATOM     16  C   UNL     1       0.748  -1.193  -0.850  0.00  0.00    +0.020 C 
ATOM     17  C   UNL     1       0.032  -0.757   0.432  0.00  0.00    +0.077 C 
ATOM     18  N   UNL     1       1.000  -0.750   1.538  0.00  0.00    -0.171 NA
ATOM     19  C   UNL     1      -0.547   0.646   0.244  0.00  0.00    +0.026 C 
ENDBRANCH   9  18
ENDBRANCH   3   9
ENDBRANCH   1   6
BRANCH   1  20
ATOM     20  C   UNL     1      -4.076   0.053   6.572  0.00  0.00    +0.135 C 
ATOM     21  S   UNL     1      -4.545  -0.325   4.969  0.00  0.00    -0.019 S 
BRANCH  20  22
ATOM     22  N   UNL     1      -5.000   0.093   7.552  0.00  0.00    -0.326 N 
ATOM     23  H   UNL     1      -4.735   0.307   8.460  0.00  0.00    +0.148 HD
BRANCH  22  24
ATOM     24  C   UNL     1      -6.405  -0.187   7.246  0.00  0.00    +0.108 C 
BRANCH  24  25
ATOM     25  C   UNL     1      -7.237  -0.076   8.525  0.00  0.00    +0.054 C 
BRANCH  25  26
ATOM     26  C   UNL     1      -8.683  -0.364   8.211  0.00  0.00    -0.046 A 
ATOM     27  C   UNL     1      -9.528   0.665   7.840  0.00  0.00    +0.005 A 
ATOM     28  C   UNL     1     -10.854   0.401   7.552  0.00  0.00    +0.029 A 
ATOM     29  C   UNL     1     -11.334  -0.893   7.633  0.00  0.00    +0.105 A 
ATOM     30  C   UNL     1     -10.489  -1.922   8.003  0.00  0.00    +0.029 A 
ATOM     31  C   UNL     1      -9.162  -1.658   8.287  0.00  0.00    +0.005 A 
BRANCH  29  32
ATOM     32  S   UNL     1     -13.025  -1.230   7.267  0.00  0.00    +0.056 S 
ATOM     33  O   UNL     1     -13.355  -2.433   7.946  0.00  0.00    -0.153 OA
ATOM     34  O   UNL     1     -13.735  -0.017   7.477  0.00  0.00    -0.153 OA
BRANCH  32  35
ATOM     35  N   UNL     1     -13.118  -1.558   5.647  0.00  0.00    -0.204 NA
ATOM     36  H   UNL     1     -12.317  -1.538   5.101  0.00  0.00    +0.144 HD
ATOM     37  H   UNL     1     -13.974  -1.771   5.244  0.00  0.00    +0.144 HD
ENDBRANCH  32  35
ENDBRANCH  29  32
ENDBRANCH  25  26
ENDBRANCH  24  25
ENDBRANCH  22  24
ENDBRANCH  20  22
ENDBRANCH   1  20
TORSDOF 10
