REMARK  Name = ZINC65162037
REMARK  9 active torsions:
REMARK  status: ('A' for Active; 'I' for Inactive)
REMARK    1  A    between atoms: C_1  and  C_2
REMARK    2  A    between atoms: C_5  and  C_7
REMARK    3  A    between atoms: C_7  and  N_8
REMARK    4  A    between atoms: N_8  and  C_9
REMARK    5  A    between atoms: N_8  and  C_25
REMARK    6  A    between atoms: C_9  and  C_10
REMARK    7  A    between atoms: C_23  and  C_24
REMARK    8  A    between atoms: C_25  and  C_26
REMARK    9  A    between atoms: C_25  and  C_27
REMARK                            x       y       z     vdW  Elec       q    Type
REMARK                         _______ _______ _______ _____ _____    ______ ____
ROOT
ATOM      1  C   UNL     1       2.098  -6.166  -2.291  0.00  0.00    +0.204 C 
ATOM      2  O   UNL     1       1.996  -5.520  -3.312  0.00  0.00    -0.277 OA
ATOM      3  N   UNL     1       2.625  -7.406  -2.327  0.00  0.00    -0.268 N 
ATOM      4  C   UNL     1       2.743  -8.166  -1.155  0.00  0.00    +0.058 A 
ATOM      5  C   UNL     1       3.686  -7.840  -0.194  0.00  0.00    +0.025 A 
ATOM      6  C   UNL     1       3.803  -8.615   0.945  0.00  0.00    +0.002 A 
ATOM      7  C   UNL     1       2.985  -9.715   1.127  0.00  0.00    +0.002 A 
ATOM      8  C   UNL     1       2.036 -10.043   0.176  0.00  0.00    +0.025 A 
ATOM      9  C   UNL     1       1.904  -9.264  -0.962  0.00  0.00    +0.055 A 
ATOM     10  N   UNL     1       0.914  -9.543  -1.911  0.00  0.00    -0.284 N 
ATOM     11  C   UNL     1       1.219  -9.590  -3.226  0.00  0.00    +0.219 C 
ATOM     12  O   UNL     1       0.338  -9.749  -4.044  0.00  0.00    -0.275 OA
ATOM     13  C   UNL     1       2.647  -9.446  -3.684  0.00  0.00    +0.118 C 
ATOM     14  C   UNL     1       3.078  -7.986  -3.593  0.00  0.00    +0.087 C 
ATOM     15  C   UNL     1       4.604  -7.906  -3.671  0.00  0.00    +0.029 C 
ATOM     16  H   UNL     1       0.002  -9.703  -1.623  0.00  0.00    +0.155 HD
ENDROOT
BRANCH   1  17
ATOM     17  C   UNL     1       1.635  -5.582  -0.981  0.00  0.00    +0.020 C 
BRANCH  17  18
ATOM     18  N   UNL     1       0.926  -4.321  -1.230  0.00  0.00    +0.390 N 
ATOM     19  H   UNL     1       1.400  -3.807  -1.958  0.00  0.00    -0.080 HD
BRANCH  18  20
ATOM     20  C   UNL     1      -0.452  -4.608  -1.651  0.00  0.00    -0.074 C 
ATOM     21  C   UNL     1      -0.434  -5.312  -3.009  0.00  0.00    -0.013 C 
ATOM     22  C   UNL     1      -1.122  -5.513  -0.616  0.00  0.00    -0.013 C 
ENDBRANCH  18  20
BRANCH  18  23
ATOM     23  C   UNL     1       0.905  -3.519   0.001  0.00  0.00    -0.035 C 
BRANCH  23  28
ATOM     24  C   UNL     1      -0.421   1.832  -1.304  0.00  0.00    +0.051 C 
ATOM     25  C   UNL     1      -0.326   0.380  -0.911  0.00  0.00    -0.013 A 
ATOM     26  C   UNL     1      -1.312  -0.467  -0.529  0.00  0.00    +0.011 A 
ATOM     27  C   UNL     1      -0.989  -1.773  -0.211  0.00  0.00    +0.009 A 
ATOM     28  C   UNL     1       0.306  -2.167  -0.290  0.00  0.00    -0.026 A 
ATOM     29  S   UNL     1       1.115  -0.672  -0.834  0.00  0.00    -0.100 S 
ENDBRANCH  23  28
ENDBRANCH  18  23
ENDBRANCH  17  18
ENDBRANCH   1  17
TORSDOF 5
