REMARK  Name = ZINC35039163
REMARK  9 active torsions:
REMARK  status: ('A' for Active; 'I' for Inactive)
REMARK    1  A    between atoms: C_1  and  C_2
REMARK    2  A    between atoms: C_2  and  C_3
REMARK    3  A    between atoms: C_3  and  N_4
REMARK    4  A    between atoms: N_4  and  C_5
REMARK    5  A    between atoms: C_5  and  C_7
REMARK    6  A    between atoms: C_5  and  C_9
REMARK    7  A    between atoms: C_7  and  C_8
REMARK    8  A    between atoms: N_19  and  C_20
REMARK    9  A    between atoms: N_28  and  C_29
REMARK                            x       y       z     vdW  Elec       q    Type
REMARK                         _______ _______ _______ _____ _____    ______ ____
ROOT
ATOM      1  C   UNL     1      -0.007  -2.542  -1.918  0.00  0.00    +0.144 C 
ENDROOT
BRANCH   1   2
ATOM      2  C   UNL     1      -0.381  -2.082  -3.304  0.00  0.00    +0.138 A 
ATOM      3  N   UNL     1      -0.651  -0.825  -3.484  0.00  0.00    -0.231 NA
ATOM      4  C   UNL     1      -0.996  -0.339  -4.702  0.00  0.00    +0.078 A 
ATOM      5  C   UNL     1      -1.285   1.013  -4.896  0.00  0.00    +0.028 A 
ATOM      6  C   UNL     1      -1.630   1.464  -6.151  0.00  0.00    +0.002 A 
ATOM      7  C   UNL     1      -1.694   0.589  -7.228  0.00  0.00    +0.001 A 
ATOM      8  C   UNL     1      -1.413  -0.749  -7.062  0.00  0.00    +0.015 A 
ATOM      9  C   UNL     1      -1.061  -1.225  -5.800  0.00  0.00    +0.065 A 
ATOM     10  C   UNL     1      -0.750  -2.642  -5.564  0.00  0.00    +0.266 A 
ATOM     11  O   UNL     1      -0.788  -3.458  -6.467  0.00  0.00    -0.267 OA
ATOM     12  N   UNL     1      -0.414  -3.005  -4.303  0.00  0.00    -0.263 N 
BRANCH  12  13
ATOM     13  C   UNL     1      -0.103  -4.341  -4.025  0.00  0.00    +0.051 A 
ATOM     14  C   UNL     1      -1.011  -5.139  -3.341  0.00  0.00    +0.026 A 
ATOM     15  C   UNL     1      -0.702  -6.457  -3.068  0.00  0.00    +0.002 A 
ATOM     16  C   UNL     1       0.510  -6.983  -3.476  0.00  0.00    +0.000 A 
ATOM     17  C   UNL     1       1.417  -6.191  -4.157  0.00  0.00    +0.002 A 
ATOM     18  C   UNL     1       1.111  -4.874  -4.438  0.00  0.00    +0.026 A 
ENDBRANCH  12  13
ENDBRANCH   1   2
BRANCH   1  19
ATOM     19  N   UNL     1       1.271  -1.939  -1.532  0.00  0.00    -0.275 N 
ATOM     20  C   UNL     1       2.325  -2.725  -1.235  0.00  0.00    +0.307 C 
ATOM     21  O   UNL     1       2.215  -3.935  -1.288  0.00  0.00    -0.252 OA
ATOM     22  N   UNL     1       3.501  -2.171  -0.880  0.00  0.00    -0.269 N 
ATOM     23  H   UNL     1       3.606  -1.206  -0.893  0.00  0.00    +0.156 HD
BRANCH  22  24
ATOM     24  C   UNL     1       4.571  -2.986  -0.493  0.00  0.00    +0.035 A 
ATOM     25  C   UNL     1       5.435  -2.569   0.511  0.00  0.00    +0.024 A 
ATOM     26  C   UNL     1       6.490  -3.376   0.891  0.00  0.00    +0.017 A 
ATOM     27  C   UNL     1       6.686  -4.598   0.272  0.00  0.00    +0.018 A 
ATOM     28  C   UNL     1       5.827  -5.015  -0.729  0.00  0.00    +0.017 A 
ATOM     29  C   UNL     1       4.767  -4.215  -1.108  0.00  0.00    +0.024 A 
ATOM     30 BR   UNL     1       8.132  -5.699   0.795  0.00  0.00    -0.050 Br
ENDBRANCH  22  24
BRANCH  19  31
ATOM     31  C   UNL     1       1.404  -0.482  -1.469  0.00  0.00    +0.110 C 
BRANCH  31  33
ATOM     32  C   UNL     1       1.182   1.525   0.002  0.00  0.00    +0.005 C 
ATOM     33  C   UNL     1       1.044   0.003  -0.064  0.00  0.00    +0.016 C 
ENDBRANCH  31  33
ENDBRANCH  19  31
ENDBRANCH   1  19
BRANCH   1  34
ATOM     34  C   UNL     1      -1.092  -2.115  -0.928  0.00  0.00    +0.027 C 
ATOM     35  C   UNL     1      -0.764  -2.670   0.459  0.00  0.00    +0.006 C 
ENDBRANCH   1  34
TORSDOF 7
