REMARK  Name = ZINC21997630
REMARK  8 active torsions:
REMARK  status: ('A' for Active; 'I' for Inactive)
REMARK    1  A    between atoms: C_1  and  C_2
REMARK    2  A    between atoms: N_11  and  C_15
REMARK    3  A    between atoms: C_15  and  C_16
REMARK    4  A    between atoms: C_16  and  O_18
REMARK    5  A    between atoms: O_18  and  C_19
REMARK    6  A    between atoms: C_19  and  C_20
REMARK    7  A    between atoms: N_22  and  C_23
REMARK    8  A    between atoms: N_22  and  C_29
REMARK                            x       y       z     vdW  Elec       q    Type
REMARK                         _______ _______ _______ _____ _____    ______ ____
ROOT
ATOM      1  C   UNL     1       3.124   3.053   2.555  0.00  0.00    +0.326 C 
ATOM      2  O   UNL     1       2.372   3.284   1.638  0.00  0.00    -0.249 OA
ENDROOT
BRANCH   1   3
ATOM      3  C   UNL     1       2.974   1.782   3.350  0.00  0.00    +0.238 C 
BRANCH   3  13
ATOM      4  C   UNL     1       0.203   1.322  -0.081  0.00  0.00    +0.010 C 
ATOM      5  C   UNL     1       0.109  -0.179   0.201  0.00  0.00    +0.018 C 
ATOM      6  C   UNL     1       0.998  -0.940  -0.786  0.00  0.00    +0.006 C 
ATOM      7  C   UNL     1       0.919  -2.439  -0.491  0.00  0.00    +0.000 C 
ATOM      8  C   UNL     1       1.411  -2.705   0.934  0.00  0.00    +0.003 C 
ATOM      9  C   UNL     1       0.524  -1.952   1.928  0.00  0.00    +0.035 C 
ATOM     10  C   UNL     1       0.573  -0.458   1.626  0.00  0.00    +0.115 C 
ATOM     11  C   UNL     1       1.969   0.078   1.841  0.00  0.00    +0.247 C 
ATOM     12  O   UNL     1       2.980  -0.252   1.259  0.00  0.00    -0.273 OA
ATOM     13  N   UNL     1       1.854   1.002   2.818  0.00  0.00    -0.213 N 
ATOM     14  C   UNL     1       0.589   1.117   3.240  0.00  0.00    +0.310 C 
ATOM     15  O   UNL     1       0.236   1.885   4.114  0.00  0.00    -0.252 OA
ATOM     16  N   UNL     1      -0.248   0.287   2.589  0.00  0.00    -0.285 N 
ATOM     17  H   UNL     1      -1.204   0.200   2.728  0.00  0.00    +0.151 HD
ENDBRANCH   3  13
ENDBRANCH   1   3
BRANCH   1  18
ATOM     18  O   UNL     1       4.093   3.929   2.865  0.00  0.00    -0.454 OA
BRANCH  18  19
ATOM     19  C   UNL     1       4.176   5.113   2.070  0.00  0.00    +0.327 C 
BRANCH  19  20
ATOM     20  C   UNL     1       5.314   5.970   2.562  0.00  0.00    +0.254 C 
ATOM     21  O   UNL     1       6.091   5.532   3.384  0.00  0.00    -0.272 OA
ATOM     22  N   UNL     1       5.468   7.222   2.089  0.00  0.00    -0.293 N 
BRANCH  22  23
ATOM     23  C   UNL     1       6.663   7.995   2.436  0.00  0.00    +0.076 C 
ATOM     24  C   UNL     1       7.909   7.257   1.942  0.00  0.00    +0.022 C 
ATOM     25  C   UNL     1       9.157   8.064   2.304  0.00  0.00    +0.002 C 
ATOM     26  C   UNL     1       9.233   8.231   3.824  0.00  0.00    +0.000 C 
ATOM     27  C   UNL     1       7.987   8.969   4.318  0.00  0.00    +0.002 C 
ATOM     28  C   UNL     1       6.739   8.162   3.955  0.00  0.00    +0.022 C 
ENDBRANCH  22  23
BRANCH  22  29
ATOM     29  C   UNL     1       4.440   7.811   1.227  0.00  0.00    +0.076 C 
ATOM     30  C   UNL     1       3.145   7.984   2.022  0.00  0.00    +0.022 C 
ATOM     31  C   UNL     1       2.071   8.599   1.122  0.00  0.00    +0.002 C 
ATOM     32  C   UNL     1       1.817   7.677  -0.072  0.00  0.00    +0.000 C 
ATOM     33  C   UNL     1       3.113   7.504  -0.868  0.00  0.00    +0.002 C 
ATOM     34  C   UNL     1       4.186   6.889   0.033  0.00  0.00    +0.022 C 
ENDBRANCH  22  29
ENDBRANCH  19  20
ENDBRANCH  18  19
ENDBRANCH   1  18
TORSDOF 7
