REMARK  Name = ZINC09144692
REMARK  12 active torsions:
REMARK  status: ('A' for Active; 'I' for Inactive)
REMARK    1  A    between atoms: C_1  and  C_2
REMARK    2  A    between atoms: C_2  and  O_3
REMARK    3  A    between atoms: O_3  and  C_4
REMARK    4  A    between atoms: C_8  and  C_11
REMARK    5  A    between atoms: C_9  and  O_10
REMARK    6  A    between atoms: C_11  and  N_71
REMARK    7  A    between atoms: C_14  and  C_17
REMARK    8  A    between atoms: N_19  and  C_20
REMARK    9  A    between atoms: N_19  and  C_28
REMARK   10  A    between atoms: C_20  and  C_21
REMARK   11  A    between atoms: C_21  and  C_22
REMARK   12  A    between atoms: C_28  and  C_29
REMARK                            x       y       z     vdW  Elec       q    Type
REMARK                         _______ _______ _______ _____ _____    ______ ____
ROOT
ATOM      1  C   UNL     1       3.969  -3.140  -3.785  0.00  0.00    -0.078 C 
ATOM      2  C   UNL     1       5.433  -3.038  -3.353  0.00  0.00    -0.006 C 
ATOM      3  C   UNL     1       6.333  -3.160  -4.586  0.00  0.00    +0.072 C 
ATOM      4  C   UNL     1       6.043  -4.489  -5.290  0.00  0.00    -0.006 C 
ATOM      5  C   UNL     1       4.561  -4.548  -5.666  0.00  0.00    -0.078 C 
ATOM      6  N   UNL     1       3.749  -4.450  -4.434  0.00  0.00    +0.382 N 
ATOM      7  H   UNL     1       4.035  -5.194  -3.787  0.00  0.00    -0.081 HD
ENDROOT
BRANCH   3   8
ATOM      8  C   UNL     1       7.778  -3.121  -4.161  0.00  0.00    +0.219 C 
ATOM      9  O   UNL     1       8.372  -4.154  -3.935  0.00  0.00    -0.275 OA
ATOM     10  N   UNL     1       8.411  -1.938  -4.031  0.00  0.00    -0.297 N 
BRANCH  10  11
ATOM     11  C   UNL     1       7.657  -0.688  -4.152  0.00  0.00    +0.113 C 
BRANCH  11  12
ATOM     12  C   UNL     1       7.301  -0.169  -2.758  0.00  0.00    +0.054 C 
BRANCH  12  13
ATOM     13  C   UNL     1       6.402   1.034  -2.883  0.00  0.00    -0.046 A 
ATOM     14  C   UNL     1       6.949   2.301  -2.956  0.00  0.00    +0.004 A 
ATOM     15  C   UNL     1       6.124   3.404  -3.077  0.00  0.00    +0.000 A 
ATOM     16  C   UNL     1       4.752   3.240  -3.114  0.00  0.00    +0.000 A 
ATOM     17  C   UNL     1       4.205   1.973  -3.035  0.00  0.00    +0.000 A 
ATOM     18  C   UNL     1       5.030   0.870  -2.920  0.00  0.00    +0.004 A 
ENDBRANCH  12  13
ENDBRANCH  11  12
ENDBRANCH  10  11
BRANCH  10  19
ATOM     19  C   UNL     1       9.852  -1.902  -3.768  0.00  0.00    +0.142 C 
BRANCH  19  20
ATOM     20  C   UNL     1      10.596  -1.751  -5.070  0.00  0.00    -0.030 A 
ATOM     21  C   UNL     1      10.903  -2.867  -5.824  0.00  0.00    +0.005 A 
ATOM     22  C   UNL     1      11.582  -2.728  -7.021  0.00  0.00    +0.000 A 
ATOM     23  C   UNL     1      11.962  -1.472  -7.457  0.00  0.00    +0.000 A 
ATOM     24  C   UNL     1      11.659  -0.356  -6.700  0.00  0.00    +0.000 A 
ATOM     25  C   UNL     1      10.976  -0.495  -5.506  0.00  0.00    +0.005 A 
ENDBRANCH  19  20
ENDBRANCH  10  19
ENDBRANCH   3   8
BRANCH   6  26
ATOM     26  C   UNL     1       2.318  -4.619  -4.758  0.00  0.00    -0.039 C 
BRANCH  26  31
ATOM     27  C   UNL     1       0.866  -5.985  -1.540  0.00  0.00    +0.162 A 
ATOM     28  C   UNL     1       0.103  -4.911  -1.109  0.00  0.00    +0.049 A 
ATOM     29  C   UNL     1       0.060  -3.750  -1.857  0.00  0.00    +0.004 A 
ATOM     30  C   UNL     1       0.776  -3.656  -3.037  0.00  0.00    +0.005 A 
ATOM     31  C   UNL     1       1.539  -4.724  -3.472  0.00  0.00    -0.019 A 
ATOM     32  C   UNL     1       1.591  -5.889  -2.723  0.00  0.00    +0.160 A 
BRANCH  32  33
ATOM     33  O   UNL     1       2.345  -6.939  -3.147  0.00  0.00    -0.503 OA
ATOM     34  H   UNL     1       1.895  -7.517  -3.779  0.00  0.00    +0.292 HD
ENDBRANCH  32  33
BRANCH  27  35
ATOM     35  O   UNL     1       0.909  -7.128  -0.804  0.00  0.00    -0.489 OA
BRANCH  35  37
ATOM     36  C   UNL     1       0.316  -8.510   1.088  0.00  0.00    +0.048 C 
ATOM     37  C   UNL     1       0.144  -7.153   0.402  0.00  0.00    +0.226 C 
ENDBRANCH  35  37
ENDBRANCH  27  35
ENDBRANCH  26  31
ENDBRANCH   6  26
TORSDOF 11
