REMARK  Name = ZINC63383655
REMARK  11 active torsions:
REMARK  status: ('A' for Active; 'I' for Inactive)
REMARK    1  A    between atoms: C_1  and  C_2
REMARK    2  A    between atoms: C_2  and  C_3
REMARK    3  A    between atoms: C_3  and  C_5
REMARK    4  A    between atoms: C_3  and  C_6
REMARK    5  A    between atoms: C_6  and  C_8
REMARK    6  A    between atoms: C_6  and  N_16
REMARK    7  A    between atoms: N_10  and  C_11
REMARK    8  A    between atoms: C_11  and  C_13
REMARK    9  A    between atoms: C_11  and  C_14
REMARK   10  A    between atoms: C_14  and  C_15
REMARK   11  A    between atoms: C_17  and  C_19
REMARK                            x       y       z     vdW  Elec       q    Type
REMARK                         _______ _______ _______ _____ _____    ______ ____
ROOT
ATOM      1  C   UNL     1       2.940   3.430   0.437  0.00  0.00    +0.167 C 
ATOM      2  C   UNL     1       4.409   3.686   0.050  0.00  0.00    +0.065 C 
ATOM      3  C   UNL     1       5.264   3.187   1.188  0.00  0.00    -0.034 C 
ATOM      4  C   UNL     1       6.292   2.344   1.198  0.00  0.00    -0.001 A 
ATOM      5  C   UNL     1       7.020   1.677   0.107  0.00  0.00    +0.010 A 
ATOM      6  C   UNL     1       8.030   0.847   0.480  0.00  0.00    +0.001 A 
ATOM      7  C   UNL     1       8.385   0.618   1.813  0.00  0.00    +0.002 A 
ATOM      8  C   UNL     1       7.775   1.195   2.879  0.00  0.00    +0.026 A 
ATOM      9  C   UNL     1       6.701   2.094   2.613  0.00  0.00    +0.043 A 
ATOM     10  N   UNL     1       5.966   2.790   3.428  0.00  0.00    -0.375 N 
ATOM     11  C   UNL     1       5.041   3.603   2.638  0.00  0.00    +0.131 C 
ATOM     12  C   UNL     1       3.580   3.275   2.964  0.00  0.00    +0.134 C 
ATOM     13  N   UNL     1       2.755   3.798   1.847  0.00  0.00    -0.276 N 
ATOM     14  C   UNL     1       1.845   4.657   2.341  0.00  0.00    +0.248 C 
ATOM     15  O   UNL     1       0.973   5.198   1.690  0.00  0.00    -0.270 OA
ATOM     16  C   UNL     1       2.057   4.846   3.778  0.00  0.00    +0.042 A 
ATOM     17  C   UNL     1       3.132   3.998   4.192  0.00  0.00    -0.013 A 
ATOM     18  C   UNL     1       3.573   3.950   5.496  0.00  0.00    +0.006 A 
ATOM     19  C   UNL     1       2.920   4.767   6.414  0.00  0.00    +0.000 A 
ATOM     20  C   UNL     1       1.876   5.590   6.041  0.00  0.00    +0.001 A 
ATOM     21  C   UNL     1       1.400   5.667   4.697  0.00  0.00    +0.013 A 
ATOM     22  H   UNL     1       6.021   2.773   4.397  0.00  0.00    +0.160 HD
ENDROOT
BRANCH   1  24
ATOM     23  N   UNL     1       2.720   1.410  -0.973  0.00  0.00    -0.302 N 
ATOM     24  C   UNL     1       2.613   1.972   0.248  0.00  0.00    +0.235 C 
ATOM     25  O   UNL     1       2.253   1.303   1.193  0.00  0.00    -0.274 OA
ATOM     26  H   UNL     1       3.080   1.923  -1.713  0.00  0.00    +0.150 HD
BRANCH  23  27
ATOM     27  C   UNL     1       2.294   0.024  -1.182  0.00  0.00    +0.162 C 
BRANCH  27  28
ATOM     28  C   UNL     1       3.161  -0.615  -2.236  0.00  0.00    +0.234 C 
ATOM     29  O   UNL     1       4.035   0.030  -2.774  0.00  0.00    -0.274 OA
ATOM     30  N   UNL     1       2.964  -1.903  -2.580  0.00  0.00    -0.311 N 
ATOM     31  H   UNL     1       2.221  -2.399  -2.201  0.00  0.00    +0.149 HD
BRANCH  30  32
ATOM     32  C   UNL     1       3.871  -2.554  -3.529  0.00  0.00    +0.070 C 
ATOM     33  C   UNL     1       5.102  -3.073  -2.783  0.00  0.00    +0.028 C 
BRANCH  32  34
ATOM     34  C   UNL     1       3.151  -3.726  -4.200  0.00  0.00    +0.018 C 
ATOM     35  C   UNL     1       1.995  -3.194  -5.050  0.00  0.00    +0.005 C 
ENDBRANCH  32  34
ENDBRANCH  30  32
ENDBRANCH  27  28
BRANCH  27  36
ATOM     36  C   UNL     1       0.834   0.003  -1.640  0.00  0.00    +0.015 C 
ATOM     37  C   UNL     1      -0.065   0.489  -0.501  0.00  0.00    +0.010 C 
BRANCH  36  39
ATOM     38  C   UNL     1       1.416   0.336  -4.047  0.00  0.00    +0.004 C 
ATOM     39  C   UNL     1       0.667   0.924  -2.850  0.00  0.00    +0.002 C 
ENDBRANCH  36  39
ENDBRANCH  27  36
ENDBRANCH  23  27
ENDBRANCH   1  24
TORSDOF 7
