REMARK  Name = ZINC40017492
REMARK  3 active torsions:
REMARK  status: ('A' for Active; 'I' for Inactive)
REMARK    1  A    between atoms: C_1  and  C_2
REMARK    2  A    between atoms: C_4  and  C_15
REMARK    3  A    between atoms: N_7  and  C_8
REMARK                            x       y       z     vdW  Elec       q    Type
REMARK                         _______ _______ _______ _____ _____    ______ ____
ROOT
ATOM      1  C   UNL     1      -0.019   1.526   0.010  0.00  0.00    +0.035 C 
ATOM      2  C   UNL     1       0.002  -0.004   0.002  0.00  0.00    +0.131 C 
ATOM      3  C   UNL     1       0.775  -0.516  -1.195  0.00  0.00    +0.077 C 
ATOM      4  C   UNL     1       1.820  -1.224  -0.712  0.00  0.00    +0.100 C 
ATOM      5  N   UNL     1       1.830  -1.240   0.642  0.00  0.00    -0.269 N 
ATOM      6  N   UNL     1       0.747  -0.515   1.165  0.00  0.00    -0.228 N 
ATOM      7  H   UNL     1       2.498  -1.693   1.181  0.00  0.00    +0.170 HD
ENDROOT
BRANCH   6   8
ATOM      8  C   UNL     1       0.439  -0.319   2.509  0.00  0.00    +0.161 A 
ATOM      9  C   UNL     1       1.249  -0.872   3.501  0.00  0.00    +0.052 A 
ATOM     10  C   UNL     1       0.901  -0.649   4.822  0.00  0.00    +0.077 A 
ATOM     11  C   UNL     1      -0.235   0.115   5.079  0.00  0.00    +0.289 A 
ATOM     12  O   UNL     1      -0.615   0.361   6.359  0.00  0.00    -0.264 OA
ATOM     13  N   UNL     1      -0.944   0.601   4.074  0.00  0.00    -0.105 NA
ATOM     14  N   UNL     1      -0.620   0.398   2.849  0.00  0.00    -0.129 NA
ENDBRANCH   6   8
BRANCH   3  15
ATOM     15  C   UNL     1       0.464  -0.298  -2.550  0.00  0.00    +0.386 C 
ATOM     16  O   UNL     1       1.177  -0.773  -3.426  0.00  0.00    -0.241 OA
ATOM     17  O   UNL     1      -0.520   0.367  -2.853  0.00  0.00    -0.241 OA
ENDBRANCH   3  15
TORSDOF 2
