REMARK  Name = ZINC36556609
REMARK  12 active torsions:
REMARK  status: ('A' for Active; 'I' for Inactive)
REMARK    1  A    between atoms: C_1  and  C_2
REMARK    2  A    between atoms: C_5  and  C_8
REMARK    3  A    between atoms: C_10  and  C_31
REMARK    4  A    between atoms: C_15  and  C_29
REMARK    5  A    between atoms: C_15  and  O_30
REMARK    6  A    between atoms: C_16  and  C_18
REMARK    7  A    between atoms: N_20  and  C_21
REMARK    8  A    between atoms: C_26  and  O_27
REMARK    9  A    between atoms: O_27  and  C_28
REMARK   10  A    between atoms: N_33  and  C_34
REMARK   11  A    between atoms: C_39  and  O_40
REMARK   12  A    between atoms: O_40  and  C_41
REMARK                            x       y       z     vdW  Elec       q    Type
REMARK                         _______ _______ _______ _____ _____    ______ ____
ROOT
ATOM      1  C   UNL     1      -0.360  -4.270  -0.148  0.00  0.00    +0.053 C 
ATOM      2  C   UNL     1       0.822  -4.847   0.637  0.00  0.00    +0.149 C 
ATOM      3  C   UNL     1       0.673  -6.351   0.696  0.00  0.00    +0.148 C 
ATOM      4  O   UNL     1       1.583  -7.077   0.376  0.00  0.00    -0.296 OA
ATOM      5  C   UNL     1      -0.646  -6.923   1.167  0.00  0.00    +0.110 C 
ATOM      6  C   UNL     1      -1.775  -6.271   0.362  0.00  0.00    +0.082 C 
ATOM      7  C   UNL     1      -1.670  -4.750   0.479  0.00  0.00    +0.115 C 
ATOM      8  C   UNL     1      -1.655  -6.679  -1.108  0.00  0.00    +0.042 C 
ENDROOT
BRANCH   1  13
ATOM      9  C   UNL     1      -0.150   1.502   0.008  0.00  0.00    +0.044 C 
ATOM     10  C   UNL     1      -0.205  -0.003  -0.033  0.00  0.00    -0.050 A 
ATOM     11  C   UNL     1      -0.153  -0.664  -1.246  0.00  0.00    +0.003 A 
ATOM     12  C   UNL     1      -0.203  -2.045  -1.283  0.00  0.00    +0.004 A 
ATOM     13  C   UNL     1      -0.305  -2.765  -0.108  0.00  0.00    -0.042 A 
ATOM     14  C   UNL     1      -0.356  -2.104   1.105  0.00  0.00    +0.004 A 
ATOM     15  C   UNL     1      -0.301  -0.723   1.143  0.00  0.00    +0.003 A 
ENDBRANCH   1  13
BRANCH   7  16
ATOM     16  C   UNL     1      -2.832  -4.111  -0.237  0.00  0.00    +0.224 C 
ATOM     17  O   UNL     1      -2.631  -3.348  -1.158  0.00  0.00    -0.275 OA
ATOM     18  N   UNL     1      -4.094  -4.387   0.146  0.00  0.00    -0.282 N 
ATOM     19  H   UNL     1      -4.258  -5.044   0.841  0.00  0.00    +0.155 HD
BRANCH  18  20
ATOM     20  C   UNL     1      -5.171  -3.725  -0.459  0.00  0.00    +0.076 A 
ATOM     21  C   UNL     1      -5.112  -3.386  -1.803  0.00  0.00    +0.027 A 
ATOM     22  C   UNL     1      -6.175  -2.734  -2.398  0.00  0.00    +0.002 A 
ATOM     23  C   UNL     1      -7.299  -2.418  -1.657  0.00  0.00    +0.004 A 
ATOM     24  C   UNL     1      -7.365  -2.753  -0.317  0.00  0.00    +0.047 A 
ATOM     25  C   UNL     1      -6.306  -3.412   0.285  0.00  0.00    +0.141 A 
BRANCH  25  26
ATOM     26  O   UNL     1      -6.372  -3.748   1.601  0.00  0.00    -0.493 OA
ATOM     27  C   UNL     1      -7.566  -3.395   2.302  0.00  0.00    +0.277 C 
ENDBRANCH  25  26
ENDBRANCH  18  20
ENDBRANCH   7  16
BRANCH   2  28
ATOM     28  C   UNL     1       2.112  -4.489  -0.054  0.00  0.00    +0.228 C 
ATOM     29  O   UNL     1       2.092  -3.837  -1.076  0.00  0.00    -0.275 OA
ATOM     30  N   UNL     1       3.289  -4.894   0.463  0.00  0.00    -0.282 N 
ATOM     31  H   UNL     1       3.303  -5.471   1.243  0.00  0.00    +0.155 HD
BRANCH  30  32
ATOM     32  C   UNL     1       4.492  -4.483  -0.126  0.00  0.00    +0.076 A 
ATOM     33  C   UNL     1       4.572  -4.319  -1.501  0.00  0.00    +0.027 A 
ATOM     34  C   UNL     1       5.760  -3.912  -2.080  0.00  0.00    +0.002 A 
ATOM     35  C   UNL     1       6.870  -3.670  -1.292  0.00  0.00    +0.004 A 
ATOM     36  C   UNL     1       6.797  -3.832   0.079  0.00  0.00    +0.047 A 
ATOM     37  C   UNL     1       5.609  -4.233   0.668  0.00  0.00    +0.141 A 
BRANCH  37  38
ATOM     38  O   UNL     1       5.534  -4.387   2.017  0.00  0.00    -0.493 OA
ATOM     39  C   UNL     1       6.719  -4.113   2.768  0.00  0.00    +0.277 C 
ENDBRANCH  37  38
ENDBRANCH  30  32
ENDBRANCH   2  28
BRANCH   6  40
ATOM     40  O   UNL     1      -3.037  -6.703   0.875  0.00  0.00    -0.388 OA
ATOM     41  H   UNL     1      -3.172  -7.659   0.834  0.00  0.00    +0.210 HD
ENDBRANCH   6  40
TORSDOF 8
