REMARK  Name = ZINC41154409
REMARK  5 active torsions:
REMARK  status: ('A' for Active; 'I' for Inactive)
REMARK    1  A    between atoms: C_1  and  C_2
REMARK    2  A    between atoms: C_6  and  C_7
REMARK    3  A    between atoms: C_9  and  C_12
REMARK    4  A    between atoms: C_12  and  N_20
REMARK    5  A    between atoms: C_16  and  C_19
REMARK                            x       y       z     vdW  Elec       q    Type
REMARK                         _______ _______ _______ _____ _____    ______ ____
ROOT
ATOM      1  C   UNL     1       0.030  -0.282   2.563  0.00  0.00    +0.265 A 
ATOM      2  N   UNL     1       0.056  -1.046   3.636  0.00  0.00    -0.193 NA
ATOM      3  C   UNL     1       0.055  -0.289   4.734  0.00  0.00    +0.161 A 
ATOM      4  N   UNL     1       0.029   0.967   4.388  0.00  0.00    -0.062 NA
ATOM      5  O   UNL     1       0.017   1.002   2.969  0.00  0.00    -0.332 OA
ENDROOT
BRANCH   3   6
ATOM      6  C   UNL     1       0.080  -0.809   6.162  0.00  0.00    -0.006 C 
ATOM      7  C   UNL     1      -1.143  -1.700   6.359  0.00  0.00    -0.005 C 
ATOM      8  C   UNL     1      -1.264  -2.122   7.822  0.00  0.00    -0.001 C 
ATOM      9  C   UNL     1      -1.453  -0.876   8.685  0.00  0.00    +0.003 C 
ATOM     10  C   UNL     1      -0.263   0.063   8.547  0.00  0.00    -0.015 C 
ATOM     11  C   UNL     1       0.069   0.385   7.102  0.00  0.00    -0.002 C 
ATOM     12  C   UNL     1       0.950  -0.490   9.294  0.00  0.00    +0.007 C 
BRANCH   6  13
ATOM     13  N   UNL     1       1.308  -1.599   6.325  0.00  0.00    +0.387 N 
ATOM     14  H   UNL     1       2.111  -1.014   6.150  0.00  0.00    -0.089 HD
ATOM     15  H   UNL     1       1.353  -1.959   7.267  0.00  0.00    -0.089 HD
ATOM     16  H   UNL     1       1.303  -2.368   5.671  0.00  0.00    -0.089 HD
ENDBRANCH   6  13
ENDBRANCH   3   6
BRANCH   1  22
ATOM     17  C   UNL     1      -0.018   1.503   0.010  0.00  0.00    +0.045 C 
ATOM     18  C   UNL     1       0.002  -0.004   0.002  0.00  0.00    -0.031 A 
ATOM     19  C   UNL     1       0.007  -0.730  -1.168  0.00  0.00    +0.012 A 
ATOM     20  C   UNL     1       0.025  -2.083  -1.103  0.00  0.00    +0.046 A 
ATOM     21  S   UNL     1       0.037  -2.416   0.544  0.00  0.00    -0.092 S 
ATOM     22  C   UNL     1       0.023  -0.747   1.171  0.00  0.00    +0.079 A 
ENDBRANCH   1  22
TORSDOF 3
