REMARK  Name = ZINC35938570
REMARK  9 active torsions:
REMARK  status: ('A' for Active; 'I' for Inactive)
REMARK    1  A    between atoms: C_1  and  C_2
REMARK    2  A    between atoms: C_2  and  C_3
REMARK    3  A    between atoms: C_3  and  C_4
REMARK    4  A    between atoms: C_4  and  C_5
REMARK    5  A    between atoms: C_8  and  C_11
REMARK    6  A    between atoms: C_20  and  C_22
REMARK    7  A    between atoms: C_22  and  C_23
REMARK    8  A    between atoms: C_23  and  N_24
REMARK    9  A    between atoms: C_32  and  C_34
REMARK                            x       y       z     vdW  Elec       q    Type
REMARK                         _______ _______ _______ _____ _____    ______ ____
ROOT
ATOM      1  C   UNL     1      -6.811  -4.056   0.045  0.00  0.00    +0.247 C 
ATOM      2  O   UNL     1      -7.337  -4.364   1.097  0.00  0.00    -0.270 OA
ATOM      3  N   UNL     1      -7.488  -4.193  -1.112  0.00  0.00    -0.296 N 
ATOM      4  C   UNL     1      -8.856  -4.576  -1.131  0.00  0.00    +0.109 C 
ATOM      5  C   UNL     1      -9.102  -6.118  -1.051  0.00  0.00    +0.038 C 
ATOM      6  C   UNL     1      -7.986  -6.811  -1.899  0.00  0.00    +0.109 C 
ATOM      7  N   UNL     1      -7.633  -6.120  -3.090  0.00  0.00    -0.300 N 
ATOM      8  C   UNL     1      -6.452  -5.222  -3.025  0.00  0.00    +0.126 C 
ATOM      9  C   UNL     1      -6.838  -3.943  -2.425  0.00  0.00    +0.127 C 
ATOM     10  C   UNL     1      -8.338  -6.275  -4.228  0.00  0.00    +0.214 C 
ATOM     11  O   UNL     1      -9.297  -7.016  -4.251  0.00  0.00    -0.276 OA
ENDROOT
BRANCH   1  15
ATOM     12  C   UNL     1      -2.840  -2.549   0.018  0.00  0.00    -0.047 A 
ATOM     13  C   UNL     1      -3.175  -3.623  -0.787  0.00  0.00    +0.004 A 
ATOM     14  C   UNL     1      -4.462  -4.118  -0.783  0.00  0.00    +0.013 A 
ATOM     15  C   UNL     1      -5.429  -3.531   0.036  0.00  0.00    +0.037 A 
ATOM     16  C   UNL     1      -5.085  -2.448   0.846  0.00  0.00    +0.013 A 
ATOM     17  C   UNL     1      -3.792  -1.967   0.836  0.00  0.00    +0.004 A 
BRANCH  12  18
ATOM     18  C   UNL     1      -1.431  -2.014   0.008  0.00  0.00    +0.035 C 
BRANCH  18  19
ATOM     19  C   UNL     1      -0.601  -2.745   1.065  0.00  0.00    +0.004 C 
BRANCH  19  21
ATOM     20  C   UNL     1       1.660  -2.934   2.111  0.00  0.00    +0.004 C 
ATOM     21  C   UNL     1       0.830  -2.203   1.055  0.00  0.00    -0.003 C 
ENDBRANCH  19  21
ENDBRANCH  18  19
ENDBRANCH  12  18
ENDBRANCH   1  15
BRANCH  10  22
ATOM     22  C   UNL     1      -7.934  -5.527  -5.472  0.00  0.00    +0.077 C 
BRANCH  22  23
ATOM     23  C   UNL     1      -8.892  -5.878  -6.612  0.00  0.00    -0.068 C 
BRANCH  23  24
ATOM     24  N   UNL     1      -8.498  -5.148  -7.825  0.00  0.00    +0.388 N 
ATOM     25  C   UNL     1      -7.163  -5.596  -8.246  0.00  0.00    -0.072 C 
ATOM     26  C   UNL     1      -6.619  -4.614  -9.299  0.00  0.00    +0.024 C 
ATOM     27  C   UNL     1      -7.703  -4.380 -10.300  0.00  0.00    -0.010 A 
ATOM     28  C   UNL     1      -9.016  -4.717 -10.163  0.00  0.00    -0.047 A 
ATOM     29  C   UNL     1      -9.852  -4.407 -11.233  0.00  0.00    +0.010 A 
ATOM     30  C   UNL     1      -9.347  -3.798 -12.332  0.00  0.00    +0.045 A 
ATOM     31  S   UNL     1      -7.621  -3.629 -11.900  0.00  0.00    -0.101 S 
ATOM     32  C   UNL     1      -9.488  -5.395  -8.880  0.00  0.00    -0.006 C 
ATOM     33  H   UNL     1      -8.467  -4.160  -7.623  0.00  0.00    -0.080 HD
BRANCH  32  34
ATOM     34  C   UNL     1     -10.820  -4.824  -8.467  0.00  0.00    -0.057 A 
ATOM     35  C   UNL     1     -10.878  -3.602  -7.823  0.00  0.00    +0.002 A 
ATOM     36  C   UNL     1     -12.100  -3.078  -7.444  0.00  0.00    +0.000 A 
ATOM     37  C   UNL     1     -13.263  -3.776  -7.709  0.00  0.00    +0.000 A 
ATOM     38  C   UNL     1     -13.205  -4.998  -8.354  0.00  0.00    +0.000 A 
ATOM     39  C   UNL     1     -11.983  -5.520  -8.736  0.00  0.00    +0.002 A 
ENDBRANCH  32  34
ENDBRANCH  23  24
ENDBRANCH  22  23
ENDBRANCH  10  22
TORSDOF 8
