REMARK  Name = ZINC13222185
REMARK  12 active torsions:
REMARK  status: ('A' for Active; 'I' for Inactive)
REMARK    1  A    between atoms: C_1  and  C_2
REMARK    2  A    between atoms: C_4  and  C_15
REMARK    3  A    between atoms: C_5  and  C_14
REMARK    4  A    between atoms: N_6  and  C_7
REMARK    5  A    between atoms: C_15  and  C_17
REMARK    6  A    between atoms: C_17  and  C_19
REMARK    7  A    between atoms: C_17  and  S_20
REMARK    8  A    between atoms: S_20  and  C_21
REMARK    9  A    between atoms: C_25  and  C_34
REMARK   10  A    between atoms: C_26  and  C_31
REMARK   11  A    between atoms: C_27  and  C_30
REMARK   12  A    between atoms: C_31  and  C_32
REMARK                            x       y       z     vdW  Elec       q    Type
REMARK                         _______ _______ _______ _____ _____    ______ ____
ROOT
ATOM      1  C   UNL     1      -1.033   3.742   0.028  0.00  0.00    +0.122 C 
ATOM      2  C   UNL     1      -0.860   4.243  -1.408  0.00  0.00    +0.028 C 
ENDROOT
BRANCH   1   3
ATOM      3  C   UNL     1      -1.197   2.244   0.020  0.00  0.00    +0.178 C 
ATOM      4  O   UNL     1      -2.308   1.756   0.023  0.00  0.00    -0.291 OA
BRANCH   3   8
ATOM      5  C   UNL     1       3.630   0.614  -0.030  0.00  0.00    +0.064 C 
ATOM      6  C   UNL     1       2.124   0.675  -0.015  0.00  0.00    +0.022 A 
ATOM      7  C   UNL     1       1.391   1.800  -0.002  0.00  0.00    +0.034 A 
ATOM      8  C   UNL     1      -0.017   1.378   0.010  0.00  0.00    +0.040 A 
ATOM      9  C   UNL     1       0.002  -0.004   0.002  0.00  0.00    +0.031 A 
ATOM     10  N   UNL     1       1.288  -0.406  -0.012  0.00  0.00    -0.317 N 
ATOM     11  C   UNL     1      -1.206  -0.905   0.009  0.00  0.00    +0.064 C 
BRANCH  10  12
ATOM     12  C   UNL     1       1.708  -1.743  -0.024  0.00  0.00    +0.047 A 
ATOM     13  C   UNL     1       1.447  -2.564   1.065  0.00  0.00    +0.027 A 
ATOM     14  C   UNL     1       1.858  -3.882   1.048  0.00  0.00    +0.022 A 
ATOM     15  C   UNL     1       2.538  -4.383  -0.048  0.00  0.00    +0.041 A 
ATOM     16  C   UNL     1       2.804  -3.566  -1.132  0.00  0.00    +0.022 A 
ATOM     17  C   UNL     1       2.391  -2.248  -1.123  0.00  0.00    +0.027 A 
ATOM     18 CL   UNL     1       3.059  -6.039  -0.062  0.00  0.00    -0.084 Cl
ENDBRANCH  10  12
ENDBRANCH   3   8
ENDBRANCH   1   3
BRANCH   1  19
ATOM     19  S   UNL     1      -2.504   4.508   0.762  0.00  0.00    -0.073 S 
BRANCH  19  20
ATOM     20  C   UNL     1      -2.101   6.222   0.834  0.00  0.00    +0.212 A 
ATOM     21  N   UNL     1      -0.955   6.761   0.423  0.00  0.00    -0.183 NA
ATOM     22  C   UNL     1      -0.981   8.075   0.620  0.00  0.00    +0.254 A 
ATOM     23  N   UNL     1      -0.088   9.041   0.377  0.00  0.00    -0.216 NA
ATOM     24  C   UNL     1      -0.354  10.294   0.668  0.00  0.00    +0.047 A 
ATOM     25  C   UNL     1      -1.584  10.640   1.240  0.00  0.00    +0.006 A 
ATOM     26  C   UNL     1      -2.497   9.666   1.490  0.00  0.00    +0.049 A 
ATOM     27  N   UNL     1      -2.191   8.379   1.178  0.00  0.00    -0.200 N 
ATOM     28  N   UNL     1      -2.890   7.171   1.298  0.00  0.00    -0.137 NA
ATOM     29  C   UNL     1      -3.830  10.007   2.105  0.00  0.00    +0.066 C 
ATOM     30  C   UNL     1       0.669  11.364   0.385  0.00  0.00    +0.066 C 
BRANCH  25  31
ATOM     31  C   UNL     1      -1.891  12.077   1.574  0.00  0.00    +0.163 C 
BRANCH  31  32
ATOM     32  C   UNL     1      -2.545  12.740   0.389  0.00  0.00    +0.360 C 
ATOM     33  O   UNL     1      -2.741  12.110  -0.623  0.00  0.00    -0.246 OA
ATOM     34  O   UNL     1      -2.910  14.030   0.459  0.00  0.00    -0.246 OA
ENDBRANCH  31  32
ENDBRANCH  25  31
ENDBRANCH  19  20
ENDBRANCH   1  19
TORSDOF 7
