REMARK  Name = ZINC03766007
REMARK  9 active torsions:
REMARK  status: ('A' for Active; 'I' for Inactive)
REMARK    1  A    between atoms: C_1  and  C_2
REMARK    2  A    between atoms: C_7  and  C_8
REMARK    3  A    between atoms: C_8  and  N_9
REMARK    4  A    between atoms: N_9  and  C_10
REMARK    5  A    between atoms: C_10  and  C_12
REMARK    6  A    between atoms: C_10  and  C_13
REMARK    7  A    between atoms: N_15  and  C_16
REMARK    8  A    between atoms: C_25  and  C_27
REMARK    9  A    between atoms: C_27  and  N_28
REMARK                            x       y       z     vdW  Elec       q    Type
REMARK                         _______ _______ _______ _____ _____    ______ ____
ROOT
ATOM      1  N   UNL     1      -1.430   0.186   3.077  0.00  0.00    -0.285 N 
ATOM      2  C   UNL     1      -1.975   1.401   2.870  0.00  0.00    +0.234 C 
ATOM      3  O   UNL     1      -3.010   1.704   3.425  0.00  0.00    -0.274 OA
ENDROOT
BRANCH   1   4
ATOM      4  C   UNL     1      -2.143  -0.808   3.883  0.00  0.00    +0.159 C 
ATOM      5  C   UNL     1      -2.286  -2.105   3.084  0.00  0.00    +0.038 C 
BRANCH   4   6
ATOM      6  C   UNL     1      -1.366  -1.080   5.146  0.00  0.00    +0.237 C 
ATOM      7  O   UNL     1      -0.321  -0.500   5.352  0.00  0.00    -0.273 OA
ATOM      8  N   UNL     1      -1.834  -1.968   6.046  0.00  0.00    -0.284 N 
ATOM      9  H   UNL     1      -2.631  -2.484   5.850  0.00  0.00    +0.155 HD
BRANCH   8  10
ATOM     10  C   UNL     1      -1.168  -2.144   7.266  0.00  0.00    +0.037 A 
ATOM     11  C   UNL     1      -1.153  -3.392   7.875  0.00  0.00    +0.027 A 
ATOM     12  C   UNL     1      -0.497  -3.568   9.078  0.00  0.00    +0.051 A 
ATOM     13  C   UNL     1       0.148  -2.500   9.681  0.00  0.00    +0.166 A 
ATOM     14  C   UNL     1       0.135  -1.247   9.073  0.00  0.00    +0.168 A 
ATOM     15  C   UNL     1      -0.518  -1.073   7.864  0.00  0.00    +0.072 A 
ATOM     16  O   UNL     1       0.832  -0.374   9.857  0.00  0.00    -0.453 OA
ATOM     17  C   UNL     1       0.923  -1.005  11.148  0.00  0.00    +0.466 C 
ATOM     18  O   UNL     1       0.854  -2.411  10.847  0.00  0.00    -0.453 OA
ENDBRANCH   8  10
ENDBRANCH   4   6
ENDBRANCH   1   4
BRANCH   1  19
ATOM     19  C   UNL     1      -0.126  -0.141   2.495  0.00  0.00    +0.144 C 
BRANCH  19  26
ATOM     20  C   UNL     1       2.123  -1.188   1.014  0.00  0.00    +0.044 C 
ATOM     21  C   UNL     1       0.762  -1.124   0.371  0.00  0.00    -0.046 A 
ATOM     22  C   UNL     1       0.588  -1.572  -0.925  0.00  0.00    +0.003 A 
ATOM     23  C   UNL     1      -0.661  -1.514  -1.515  0.00  0.00    +0.000 A 
ATOM     24  C   UNL     1      -1.736  -1.008  -0.808  0.00  0.00    +0.000 A 
ATOM     25  C   UNL     1      -1.562  -0.561   0.488  0.00  0.00    +0.005 A 
ATOM     26  C   UNL     1      -0.314  -0.623   1.080  0.00  0.00    -0.027 A 
ENDBRANCH  19  26
ENDBRANCH   1  19
BRANCH   2  27
ATOM     27  C   UNL     1      -1.298   2.384   1.950  0.00  0.00    +0.210 C 
BRANCH  27  28
ATOM     28  N   UNL     1      -2.017   3.660   1.984  0.00  0.00    -0.255 N 
ATOM     29  C   UNL     1      -3.073   3.987   1.136  0.00  0.00    +0.048 A 
ATOM     30  C   UNL     1      -3.688   3.273   0.116  0.00  0.00    +0.024 A 
ATOM     31  C   UNL     1      -4.736   3.831  -0.590  0.00  0.00    +0.002 A 
ATOM     32  C   UNL     1      -5.188   5.106  -0.294  0.00  0.00    +0.001 A 
ATOM     33  C   UNL     1      -4.592   5.834   0.715  0.00  0.00    +0.014 A 
ATOM     34  C   UNL     1      -3.534   5.280   1.435  0.00  0.00    +0.048 A 
ATOM     35  C   UNL     1      -2.700   5.779   2.544  0.00  0.00    +0.250 C 
ATOM     36  O   UNL     1      -2.773   6.856   3.098  0.00  0.00    -0.282 OA
ATOM     37  C   UNL     1      -1.746   4.660   2.840  0.00  0.00    +0.292 C 
ATOM     38  O   UNL     1      -0.885   4.659   3.694  0.00  0.00    -0.266 OA
ENDBRANCH  27  28
ENDBRANCH   2  27
TORSDOF 7
