REMARK  Name = ZINC10407536
REMARK  7 active torsions:
REMARK  status: ('A' for Active; 'I' for Inactive)
REMARK    1  A    between atoms: C_1  and  C_2
REMARK    2  A    between atoms: C_9  and  C_11
REMARK    3  A    between atoms: N_13  and  N_14
REMARK    4  A    between atoms: C_15  and  C_17
REMARK    5  A    between atoms: C_21  and  C_23
REMARK    6  A    between atoms: C_23  and  S_24
REMARK    7  A    between atoms: S_24  and  C_26
REMARK                            x       y       z     vdW  Elec       q    Type
REMARK                         _______ _______ _______ _____ _____    ______ ____
ROOT
ATOM      1  C   UNL     1      -2.579   1.250   0.021  0.00  0.00    +0.267 C 
ATOM      2  O   UNL     1      -2.774   0.049   0.016  0.00  0.00    -0.268 OA
ATOM      3  N   UNL     1      -3.623   2.102   0.031  0.00  0.00    -0.230 N 
ATOM      4  H   UNL     1      -3.467   3.060   0.035  0.00  0.00    +0.173 HD
ENDROOT
BRANCH   1  12
ATOM      5  C   UNL     1       4.985   1.579   0.268  0.00  0.00    +0.008 C 
ATOM      6  C   UNL     1       3.584   2.167   0.444  0.00  0.00    -0.009 C 
ATOM      7  C   UNL     1       3.460   3.446  -0.389  0.00  0.00    +0.009 C 
ATOM      8  C   UNL     1       2.162   4.167   0.002  0.00  0.00    +0.043 C 
ATOM      9  C   UNL     1       1.049   3.164   0.008  0.00  0.00    -0.006 A 
ATOM     10  C   UNL     1       1.166   1.804   0.001  0.00  0.00    -0.036 A 
ATOM     11  C   UNL     1      -0.013   1.076   0.008  0.00  0.00    +0.024 A 
ATOM     12  C   UNL     1      -1.208   1.770   0.017  0.00  0.00    +0.076 A 
ATOM     13  S   UNL     1      -0.647   3.464   0.026  0.00  0.00    -0.088 S 
ATOM     14  C   UNL     1       2.543   1.145  -0.014  0.00  0.00    +0.039 C 
ENDBRANCH   1  12
BRANCH   3  15
ATOM     15  N   UNL     1      -4.933   1.606   0.035  0.00  0.00    -0.230 N 
ATOM     16  C   UNL     1      -5.977   2.458   0.044  0.00  0.00    +0.260 C 
ATOM     17  O   UNL     1      -5.782   3.658   0.049  0.00  0.00    -0.269 OA
ATOM     18  H   UNL     1      -5.088   0.648   0.030  0.00  0.00    +0.173 HD
BRANCH  16  19
ATOM     19  C   UNL     1      -7.359   1.934   0.048  0.00  0.00    +0.038 A 
ATOM     20  C   UNL     1      -7.587   0.556   0.042  0.00  0.00    +0.013 A 
ATOM     21  C   UNL     1      -8.879   0.074   0.046  0.00  0.00    +0.001 A 
ATOM     22  C   UNL     1      -9.948   0.952   0.056  0.00  0.00    +0.004 A 
ATOM     23  C   UNL     1      -9.730   2.318   0.062  0.00  0.00    -0.034 A 
ATOM     24  C   UNL     1      -8.442   2.813   0.063  0.00  0.00    +0.017 A 
BRANCH  23  25
ATOM     25  C   UNL     1     -10.901   3.266   0.073  0.00  0.00    +0.138 C 
BRANCH  25  26
ATOM     26  S   UNL     1     -11.362   3.638   1.787  0.00  0.00    +0.023 S 
ATOM     27  O   UNL     1     -11.789   2.446   2.432  0.00  0.00    -0.257 OA
ATOM     28  C   UNL     1     -12.766   4.776   1.627  0.00  0.00    +0.122 C 
ENDBRANCH  25  26
ENDBRANCH  23  25
ENDBRANCH  16  19
ENDBRANCH   3  15
TORSDOF 5
