REMARK  Name = ZINC04904542
REMARK  7 active torsions:
REMARK  status: ('A' for Active; 'I' for Inactive)
REMARK    1  A    between atoms: C_1  and  C_2
REMARK    2  A    between atoms: C_2  and  N_3
REMARK    3  A    between atoms: N_3  and  N_4
REMARK    4  A    between atoms: C_5  and  C_7
REMARK    5  A    between atoms: C_16  and  O_17
REMARK    6  A    between atoms: C_18  and  C_19
REMARK    7  A    between atoms: N_21  and  C_22
REMARK                            x       y       z     vdW  Elec       q    Type
REMARK                         _______ _______ _______ _____ _____    ______ ____
ROOT
ATOM      1  N   UNL     1      -0.492   2.092  -2.631  0.00  0.00    -0.268 N 
ATOM      2  H   UNL     1      -1.147   2.461  -3.244  0.00  0.00    +0.170 HD
ENDROOT
BRANCH   1   3
ATOM      3  N   UNL     1       0.841   1.943  -3.036  0.00  0.00    -0.233 N 
ATOM      4  C   UNL     1       1.235   2.405  -4.239  0.00  0.00    +0.264 C 
ATOM      5  O   UNL     1       0.417   2.869  -5.011  0.00  0.00    -0.269 OA
ATOM      6  H   UNL     1       1.480   1.507  -2.451  0.00  0.00    +0.173 HD
BRANCH   4   7
ATOM      7  C   UNL     1       2.657   2.349  -4.620  0.00  0.00    +0.080 A 
ATOM      8  C   UNL     1       3.584   1.711  -3.775  0.00  0.00    +0.017 A 
ATOM      9  C   UNL     1       4.897   1.646  -4.103  0.00  0.00    +0.009 A 
ATOM     10  C   UNL     1       5.357   2.221  -5.304  0.00  0.00    -0.014 A 
ATOM     11  C   UNL     1       6.715   2.163  -5.660  0.00  0.00    +0.008 A 
ATOM     12  C   UNL     1       7.131   2.727  -6.827  0.00  0.00    +0.001 A 
ATOM     13  C   UNL     1       6.230   3.364  -7.677  0.00  0.00    +0.001 A 
ATOM     14  C   UNL     1       4.907   3.440  -7.364  0.00  0.00    +0.012 A 
ATOM     15  C   UNL     1       4.441   2.868  -6.169  0.00  0.00    +0.024 A 
ATOM     16  C   UNL     1       3.076   2.923  -5.818  0.00  0.00    +0.137 A 
BRANCH  16  17
ATOM     17  O   UNL     1       2.184   3.532  -6.635  0.00  0.00    -0.505 OA
ATOM     18  H   UNL     1       2.066   4.475  -6.455  0.00  0.00    +0.292 HD
ENDBRANCH  16  17
ENDBRANCH   4   7
ENDBRANCH   1   3
BRANCH   1  20
ATOM     19  C   UNL     1       0.170   1.271  -0.375  0.00  0.00    +0.062 C 
ATOM     20  C   UNL     1      -0.869   1.718  -1.371  0.00  0.00    +0.024 C 
ATOM     21  C   UNL     1      -2.171   1.750  -1.020  0.00  0.00    +0.087 C 
BRANCH  21  22
ATOM     22  C   UNL     1      -3.132   2.279  -1.913  0.00  0.00    +0.239 C 
ATOM     23  O   UNL     1      -2.802   2.606  -3.039  0.00  0.00    -0.271 OA
ATOM     24  N   UNL     1      -4.412   2.421  -1.518  0.00  0.00    -0.308 N 
ATOM     25  H   UNL     1      -4.675   2.160  -0.621  0.00  0.00    +0.149 HD
BRANCH  24  26
ATOM     26  C   UNL     1      -5.408   2.969  -2.443  0.00  0.00    +0.079 C 
ATOM     27  C   UNL     1      -5.373   4.497  -2.382  0.00  0.00    +0.010 C 
ATOM     28  C   UNL     1      -6.413   5.069  -3.348  0.00  0.00    +0.009 C 
ATOM     29  C   UNL     1      -7.805   4.574  -2.951  0.00  0.00    -0.010 C 
ATOM     30  C   UNL     1      -8.123   5.036  -1.528  0.00  0.00    +0.007 C 
ATOM     31  C   UNL     1      -7.084   4.464  -0.562  0.00  0.00    -0.010 C 
ATOM     32  C   UNL     1      -5.692   4.958  -0.959  0.00  0.00    +0.009 C 
ATOM     33  C   UNL     1      -7.118   2.935  -0.622  0.00  0.00    +0.009 C 
ATOM     34  C   UNL     1      -6.800   2.474  -2.046  0.00  0.00    +0.010 C 
ATOM     35  C   UNL     1      -7.840   3.046  -3.011  0.00  0.00    +0.009 C 
ENDBRANCH  24  26
ENDBRANCH  21  22
ENDBRANCH   1  20
TORSDOF 6
