REMARK  Name = ZINC12661275
REMARK  6 active torsions:
REMARK  status: ('A' for Active; 'I' for Inactive)
REMARK    1  A    between atoms: C_1  and  C_2
REMARK    2  A    between atoms: C_15  and  O_34
REMARK    3  A    between atoms: C_18  and  C_31
REMARK    4  A    between atoms: C_23  and  C_25
REMARK    5  A    between atoms: C_25  and  C_30
REMARK    6  A    between atoms: N_32  and  O_33
REMARK                            x       y       z     vdW  Elec       q    Type
REMARK                         _______ _______ _______ _____ _____    ______ ____
ROOT
ATOM      1  C   UNL     1       2.148   0.595  -1.058  0.00  0.00    +0.012 C 
ATOM      2  C   UNL     1       1.469   1.494  -0.002  0.00  0.00    -0.023 C 
ATOM      3  C   UNL     1       1.700   2.957  -0.364  0.00  0.00    +0.012 C 
ATOM      4  C   UNL     1       3.207   3.246  -0.435  0.00  0.00    +0.065 C 
ATOM      5  C   UNL     1       3.776   3.034   0.972  0.00  0.00    +0.170 C 
ATOM      6  C   UNL     1       3.584   1.577   1.390  0.00  0.00    +0.069 C 
ATOM      7  C   UNL     1       2.111   1.185   1.350  0.00  0.00    +0.000 C 
ATOM      8  C   UNL     1       1.349   1.940   2.443  0.00  0.00    +0.004 C 
ATOM      9  C   UNL     1      -0.047   1.334   2.548  0.00  0.00    +0.004 C 
ATOM     10  C   UNL     1      -0.808   1.485   1.231  0.00  0.00    -0.001 C 
ATOM     11  C   UNL     1      -0.011   1.139   0.009  0.00  0.00    +0.027 C 
ATOM     12  C   UNL     1      -0.705   1.482  -1.297  0.00  0.00    +0.119 C 
ATOM     13  C   UNL     1      -1.479   2.791  -1.271  0.00  0.00    +0.045 C 
ATOM     14  C   UNL     1      -2.449   2.898  -0.105  0.00  0.00    +0.022 C 
ATOM     15  C   UNL     1      -1.637   2.729   1.201  0.00  0.00    +0.005 C 
ATOM     16  C   UNL     1      -0.874   4.065   1.278  0.00  0.00    +0.005 C 
ATOM     17  C   UNL     1      -2.014   5.084   0.996  0.00  0.00    +0.010 C 
ATOM     18  C   UNL     1      -2.959   4.354   0.016  0.00  0.00    +0.060 C 
ATOM     19  O   UNL     1       5.174   3.364   0.984  0.00  0.00    -0.346 OA
ATOM     20  C   UNL     1       5.210   4.764   1.351  0.00  0.00    +0.191 C 
ATOM     21  C   UNL     1       4.067   4.845   2.393  0.00  0.00    +0.191 C 
ATOM     22  O   UNL     1       3.099   3.898   1.895  0.00  0.00    -0.346 OA
ENDROOT
BRANCH  18  23
ATOM     23  C   UNL     1      -2.998   5.077  -1.332  0.00  0.00    +0.171 C 
ATOM     24  O   UNL     1      -1.675   5.124  -1.893  0.00  0.00    -0.346 OA
ATOM     25  C   UNL     1      -1.602   6.406  -2.562  0.00  0.00    +0.191 C 
ATOM     26  C   UNL     1      -2.431   7.305  -1.611  0.00  0.00    +0.191 C 
ATOM     27  O   UNL     1      -3.469   6.418  -1.146  0.00  0.00    -0.346 OA
ATOM     28  C   UNL     1      -3.932   4.332  -2.288  0.00  0.00    +0.074 C 
ENDBRANCH  18  23
BRANCH  14  29
ATOM     29  C   UNL     1      -3.588   1.918  -0.188  0.00  0.00    +0.133 C 
ATOM     30  N   UNL     1      -4.792   2.343  -0.277  0.00  0.00    -0.099 NA
BRANCH  30  31
ATOM     31  O   UNL     1      -5.864   1.421  -0.354  0.00  0.00    -0.409 OA
ATOM     32  H   UNL     1      -6.735   1.836  -0.419  0.00  0.00    +0.328 HD
ENDBRANCH  30  31
ENDBRANCH  14  29
BRANCH  12  33
ATOM     33  O   UNL     1      -1.577   0.405  -1.674  0.00  0.00    -0.391 OA
ATOM     34  H   UNL     1      -2.054   0.556  -2.501  0.00  0.00    +0.210 HD
ENDBRANCH  12  33
TORSDOF 4
