REMARK  Name = ZINC43199055
REMARK  23 active torsions:
REMARK  status: ('A' for Active; 'I' for Inactive)
REMARK    1  A    between atoms: C_1  and  C_2
REMARK    2  A    between atoms: C_2  and  C_33
REMARK    3  A    between atoms: C_4  and  C_26
REMARK    4  A    between atoms: C_6  and  C_8
REMARK    5  A    between atoms: C_6  and  C_15
REMARK    6  A    between atoms: C_8  and  O_10
REMARK    7  A    between atoms: O_10  and  C_11
REMARK    8  A    between atoms: C_11  and  C_12
REMARK    9  A    between atoms: C_11  and  C_13
REMARK   10  A    between atoms: C_11  and  C_14
REMARK   11  A    between atoms: C_15  and  C_16
REMARK   12  A    between atoms: C_15  and  C_18
REMARK   13  A    between atoms: C_15  and  O_25
REMARK   14  A    between atoms: C_18  and  O_20
REMARK   15  A    between atoms: O_20  and  C_21
REMARK   16  A    between atoms: C_21  and  C_22
REMARK   17  A    between atoms: C_21  and  C_23
REMARK   18  A    between atoms: C_21  and  C_24
REMARK   19  A    between atoms: C_26  and  O_28
REMARK   20  A    between atoms: O_28  and  C_29
REMARK   21  A    between atoms: C_29  and  C_30
REMARK   22  A    between atoms: C_29  and  C_31
REMARK   23  A    between atoms: C_29  and  C_32
REMARK                            x       y       z     vdW  Elec       q    Type
REMARK                         _______ _______ _______ _____ _____    ______ ____
ROOT
ATOM      1  C   UNL     1      -0.645   1.570  -0.321  0.00  0.00    +0.074 C 
ATOM      2  C   UNL     1       0.199   0.743   0.651  0.00  0.00    +0.167 C 
ATOM      3  O   UNL     1       0.567  -0.518   0.051  0.00  0.00    -0.331 OA
ATOM      4  C   UNL     1       0.867  -1.379   1.169  0.00  0.00    +0.276 C 
ATOM      5  C   UNL     1       0.094  -0.773   2.357  0.00  0.00    +0.244 C 
ATOM      6  O   UNL     1      -0.580   0.382   1.812  0.00  0.00    -0.325 OA
ATOM      7  C   UNL     1       1.448   1.522   1.068  0.00  0.00    +0.074 C 
ENDROOT
BRANCH   5   8
ATOM      8  C   UNL     1       1.049  -0.357   3.446  0.00  0.00    +0.347 C 
ATOM      9  O   UNL     1       1.014   0.770   3.882  0.00  0.00    -0.247 OA
BRANCH   8  10
ATOM     10  O   UNL     1       1.938  -1.237   3.932  0.00  0.00    -0.457 OA
BRANCH  10  11
ATOM     11  C   UNL     1       3.178  -0.712   4.407  0.00  0.00    +0.105 C 
ATOM     12  C   UNL     1       2.906   0.368   5.457  0.00  0.00    +0.055 C 
ATOM     13  C   UNL     1       4.002  -1.837   5.035  0.00  0.00    +0.055 C 
ATOM     14  C   UNL     1       3.955  -0.102   3.239  0.00  0.00    +0.055 C 
ENDBRANCH  10  11
ENDBRANCH   8  10
ENDBRANCH   5   8
BRANCH   4  15
ATOM     15  C   UNL     1       0.390  -2.782   0.893  0.00  0.00    +0.340 C 
ATOM     16  O   UNL     1      -0.723  -2.968   0.462  0.00  0.00    -0.248 OA
BRANCH  15  17
ATOM     17  O   UNL     1       1.203  -3.825   1.125  0.00  0.00    -0.457 OA
BRANCH  17  18
ATOM     18  C   UNL     1       0.763  -5.105   0.667  0.00  0.00    +0.105 C 
ATOM     19  C   UNL     1       0.401  -5.019  -0.817  0.00  0.00    +0.055 C 
ATOM     20  C   UNL     1       1.883  -6.129   0.860  0.00  0.00    +0.055 C 
ATOM     21  C   UNL     1      -0.467  -5.538   1.467  0.00  0.00    +0.055 C 
ENDBRANCH  17  18
ENDBRANCH  15  17
ENDBRANCH   4  15
BRANCH   5  22
ATOM     22  C   UNL     1      -0.926  -1.777   2.897  0.00  0.00    +0.215 C 
BRANCH  22  23
ATOM     23  C   UNL     1      -1.409  -1.322   4.276  0.00  0.00    +0.130 C 
ATOM     24 BR   UNL     1       0.047  -1.524   5.581  0.00  0.00    -0.088 Br
ENDBRANCH  22  23
BRANCH  22  25
ATOM     25  C   UNL     1      -2.099  -1.859   1.955  0.00  0.00    +0.344 C 
ATOM     26  O   UNL     1      -2.280  -0.986   1.139  0.00  0.00    -0.247 OA
BRANCH  25  27
ATOM     27  O   UNL     1      -2.943  -2.900   2.022  0.00  0.00    -0.457 OA
BRANCH  27  28
ATOM     28  C   UNL     1      -4.050  -2.898   1.118  0.00  0.00    +0.105 C 
ATOM     29  C   UNL     1      -3.532  -2.849  -0.321  0.00  0.00    +0.055 C 
ATOM     30  C   UNL     1      -4.876  -4.170   1.320  0.00  0.00    +0.055 C 
ATOM     31  C   UNL     1      -4.925  -1.673   1.387  0.00  0.00    +0.055 C 
ENDBRANCH  27  28
ENDBRANCH  25  27
ENDBRANCH  22  25
BRANCH  22  32
ATOM     32  O   UNL     1      -0.314  -3.064   3.008  0.00  0.00    -0.374 OA
ATOM     33  H   UNL     1      -0.494  -3.651   2.261  0.00  0.00    +0.211 HD
ENDBRANCH  22  32
ENDBRANCH   5  22
TORSDOF 12
