REMARK  Name = ZINC23360108
REMARK  14 active torsions:
REMARK  status: ('A' for Active; 'I' for Inactive)
REMARK    1  A    between atoms: C_1  and  C_2
REMARK    2  A    between atoms: C_3  and  C_10
REMARK    3  A    between atoms: C_4  and  C_8
REMARK    4  A    between atoms: C_4  and  C_9
REMARK    5  A    between atoms: C_10  and  C_11
REMARK    6  A    between atoms: C_11  and  N_12
REMARK    7  A    between atoms: N_12  and  C_13
REMARK    8  A    between atoms: C_16  and  C_28
REMARK    9  A    between atoms: N_18  and  C_20
REMARK   10  A    between atoms: C_20  and  C_21
REMARK   11  A    between atoms: N_30  and  C_31
REMARK   12  A    between atoms: C_31  and  C_32
REMARK   13  A    between atoms: C_32  and  O_33
REMARK   14  A    between atoms: O_33  and  C_34
REMARK                            x       y       z     vdW  Elec       q    Type
REMARK                         _______ _______ _______ _____ _____    ______ ____
ROOT
ATOM      1  C   UNL     1      -4.624   1.366  -2.799  0.00  0.00    +0.036 C 
ATOM      2  C   UNL     1      -5.584   0.212  -3.190  0.00  0.00    +0.010 C 
ATOM      3  C   UNL     1      -6.476   0.895  -4.257  0.00  0.00    +0.021 C 
ATOM      4  N   UNL     1      -6.657   2.278  -3.768  0.00  0.00    +0.391 N 
ATOM      5  C   UNL     1      -5.526   2.616  -2.880  0.00  0.00    -0.059 C 
ATOM      6  H   UNL     1      -7.524   2.347  -3.257  0.00  0.00    -0.080 HD
ENDROOT
BRANCH   3   7
ATOM      7  C   UNL     1      -7.806   0.193  -4.356  0.00  0.00    +0.200 C 
ATOM      8  O   UNL     1      -8.829   0.793  -4.106  0.00  0.00    -0.278 OA
ATOM      9  N   UNL     1      -7.858  -1.103  -4.723  0.00  0.00    -0.314 N 
ATOM     10  H   UNL     1      -7.039  -1.584  -4.924  0.00  0.00    +0.149 HD
BRANCH   9  11
ATOM     11  C   UNL     1      -9.150  -1.786  -4.820  0.00  0.00    +0.132 C 
BRANCH  11  12
ATOM     12  C   UNL     1      -8.930  -3.237  -5.253  0.00  0.00    +0.178 C 
BRANCH  12  13
ATOM     13  O   UNL     1      -8.210  -3.933  -4.234  0.00  0.00    -0.381 OA
ATOM     14  C   UNL     1      -7.950  -5.305  -4.540  0.00  0.00    +0.194 C 
ENDBRANCH  12  13
ENDBRANCH  11  12
ENDBRANCH   9  11
ENDBRANCH   3   7
BRANCH   1  15
ATOM     15  N   UNL     1      -4.117   1.180  -1.433  0.00  0.00    -0.315 NA
ATOM     16  H   UNL     1      -4.821   0.767  -0.839  0.00  0.00    +0.122 HD
BRANCH  15  17
ATOM     17  C   UNL     1      -2.889   0.373  -1.433  0.00  0.00    +0.085 C 
BRANCH  17  18
ATOM     18  C   UNL     1      -2.393   0.201   0.004  0.00  0.00    +0.046 C 
BRANCH  18  21
ATOM     19  C   UNL     1      -0.018   1.503   0.010  0.00  0.00    +0.039 C 
ATOM     20  C   UNL     1       0.002  -0.004   0.002  0.00  0.00    -0.073 C 
ATOM     21  C   UNL     1      -1.133  -0.626   0.004  0.00  0.00    -0.064 C 
ATOM     22  C   UNL     1      -1.272  -2.121   0.007  0.00  0.00    -0.014 C 
ATOM     23  C   UNL     1       0.045  -2.774  -0.416  0.00  0.00    +0.011 C 
ATOM     24  C   UNL     1       1.181  -2.154   0.408  0.00  0.00    +0.005 C 
ATOM     25  C   UNL     1       1.337  -0.690  -0.014  0.00  0.00    +0.030 C 
ATOM     26  C   UNL     1      -1.643  -2.592   1.415  0.00  0.00    +0.015 C 
ATOM     27  C   UNL     1      -2.378  -2.529  -0.969  0.00  0.00    +0.015 C 
ENDBRANCH  18  21
ENDBRANCH  17  18
ENDBRANCH  15  17
ENDBRANCH   1  15
BRANCH   4  28
ATOM     28  C   UNL     1      -6.681   3.206  -4.907  0.00  0.00    -0.042 C 
BRANCH  28  29
ATOM     29  C   UNL     1      -6.988   4.597  -4.415  0.00  0.00    -0.064 A 
ATOM     30  C   UNL     1      -8.300   5.025  -4.329  0.00  0.00    +0.003 A 
ATOM     31  C   UNL     1      -8.582   6.301  -3.878  0.00  0.00    +0.020 A 
ATOM     32  C   UNL     1      -7.551   7.149  -3.514  0.00  0.00    +0.041 A 
ATOM     33  C   UNL     1      -6.239   6.720  -3.601  0.00  0.00    +0.020 A 
ATOM     34  C   UNL     1      -5.958   5.442  -4.046  0.00  0.00    +0.003 A 
ATOM     35 CL   UNL     1      -7.905   8.752  -2.948  0.00  0.00    -0.084 Cl
ENDBRANCH  28  29
ENDBRANCH   4  28
TORSDOF 10
