REMARK  Name = ZINC01782601
REMARK  5 active torsions:
REMARK  status: ('A' for Active; 'I' for Inactive)
REMARK    1  A    between atoms: N_12  and  C_16
REMARK    2  A    between atoms: C_16  and  C_17
REMARK    3  A    between atoms: C_17  and  C_18
REMARK    4  A    between atoms: N_23  and  C_24
REMARK    5  A    between atoms: C_24  and  C_25
REMARK                            x       y       z     vdW  Elec       q    Type
REMARK                         _______ _______ _______ _____ _____    ______ ____
ROOT
ATOM      1  C   UNL     1      -0.017   1.381   0.010  0.00  0.00    +0.017 A 
ATOM      2  C   UNL     1       1.162   2.101   0.002  0.00  0.00    +0.025 A 
ATOM      3  C   UNL     1       2.384   1.440  -0.013  0.00  0.00    +0.045 A 
ATOM      4  C   UNL     1       2.400   0.037  -0.021  0.00  0.00    +0.011 A 
ATOM      5  C   UNL     1       1.207  -0.680  -0.014  0.00  0.00    +0.025 A 
ATOM      6  C   UNL     1       0.002  -0.004   0.002  0.00  0.00    +0.019 A 
ATOM      7 BR   UNL     1      -1.623  -0.971   0.012  0.00  0.00    -0.050 Br
ATOM      8  C   UNL     1       3.822  -0.364  -0.036  0.00  0.00    +0.065 C 
ATOM      9  C   UNL     1       4.333  -1.648  -0.048  0.00  0.00    +0.089 C 
ATOM     10  C   UNL     1       5.749  -2.106  -0.058  0.00  0.00    +0.259 C 
ATOM     11  O   UNL     1       6.677  -1.321  -0.055  0.00  0.00    -0.269 OA
ATOM     12  N   UNL     1       5.941  -3.414  -0.069  0.00  0.00    -0.255 N 
ATOM     13  C   UNL     1       4.909  -4.281  -0.072  0.00  0.00    +0.121 C 
ATOM     14  S   UNL     1       4.959  -5.992  -0.086  0.00  0.00    -0.027 S 
ATOM     15  S   UNL     1       3.475  -3.216  -0.049  0.00  0.00    -0.060 S 
ATOM     16  C   UNL     1       4.578   0.904  -0.036  0.00  0.00    +0.253 C 
ATOM     17  O   UNL     1       5.790   1.016  -0.047  0.00  0.00    -0.270 OA
ATOM     18  N   UNL     1       3.691   1.914  -0.022  0.00  0.00    -0.256 N 
ENDROOT
BRANCH  12  19
ATOM     19  C   UNL     1       7.311  -3.935  -0.079  0.00  0.00    +0.126 C 
BRANCH  19  20
ATOM     20  C   UNL     1       7.793  -4.128   1.360  0.00  0.00    +0.144 C 
BRANCH  20  21
ATOM     21  C   UNL     1       9.202  -4.663   1.350  0.00  0.00    +0.358 C 
ATOM     22  O   UNL     1       9.767  -4.872   0.290  0.00  0.00    -0.246 OA
ATOM     23  O   UNL     1       9.776  -4.888   2.402  0.00  0.00    -0.246 OA
ENDBRANCH  20  21
ENDBRANCH  19  20
ENDBRANCH  12  19
BRANCH  18  24
ATOM     24  C   UNL     1       4.055   3.333  -0.019  0.00  0.00    +0.239 C 
BRANCH  24  25
ATOM     25  C   UNL     1       4.193   3.813   1.403  0.00  0.00    +0.373 C 
ATOM     26  O   UNL     1       4.004   3.041   2.328  0.00  0.00    -0.245 OA
ATOM     27  O   UNL     1       4.493   4.973   1.628  0.00  0.00    -0.245 OA
ENDBRANCH  24  25
ENDBRANCH  18  24
TORSDOF 5
