REMARK  Name = ZINC40133224
REMARK  4 active torsions:
REMARK  status: ('A' for Active; 'I' for Inactive)
REMARK    1  A    between atoms: C_1  and  C_2
REMARK    2  A    between atoms: N_4  and  C_7
REMARK    3  A    between atoms: C_10  and  C_13
REMARK    4  A    between atoms: N_15  and  C_16
REMARK                            x       y       z     vdW  Elec       q    Type
REMARK                         _______ _______ _______ _____ _____    ______ ____
ROOT
ATOM      1  C   UNL     1       0.121  -6.150  -4.710  0.00  0.00    +0.244 C 
ATOM      2  O   UNL     1       0.182  -7.318  -4.376  0.00  0.00    -0.270 OA
ATOM      3  N   UNL     1       0.064  -5.825  -6.016  0.00  0.00    -0.308 N 
ATOM      4  H   UNL     1       0.015  -4.894  -6.282  0.00  0.00    +0.149 HD
ENDROOT
BRANCH   3   5
ATOM      5  C   UNL     1       0.074  -6.878  -7.035  0.00  0.00    +0.077 C 
ATOM      6  C   UNL     1       0.500  -6.288  -8.405  0.00  0.00    +0.026 C 
ATOM      7  C   UNL     1      -0.864  -6.293  -9.211  0.00  0.00    -0.006 C 
ATOM      8  C   UNL     1      -1.312  -7.753  -8.776  0.00  0.00    +0.009 C 
ATOM      9  C   UNL     1      -1.346  -7.448  -7.220  0.00  0.00    +0.013 C 
ATOM     10  C   UNL     1      -2.399  -6.350  -7.277  0.00  0.00    -0.003 C 
ATOM     11  C   UNL     1      -1.672  -5.391  -8.330  0.00  0.00    -0.004 C 
ATOM     12  C   UNL     1      -2.515  -4.196  -8.450  0.00  0.00    +0.004 C 
ATOM     13  C   UNL     1      -3.062  -4.010  -6.993  0.00  0.00    +0.001 C 
ATOM     14  C   UNL     1      -2.586  -5.336  -6.156  0.00  0.00    +0.004 C 
ENDBRANCH   3   5
BRANCH   1  18
ATOM     15  C   UNL     1       0.091  -3.097  -1.758  0.00  0.00    +0.052 A 
ATOM     16  C   UNL     1       0.160  -4.434  -1.374  0.00  0.00    +0.025 A 
ATOM     17  C   UNL     1       0.170  -5.426  -2.329  0.00  0.00    +0.015 A 
ATOM     18  C   UNL     1       0.110  -5.090  -3.684  0.00  0.00    +0.037 A 
ATOM     19  C   UNL     1       0.040  -3.747  -4.066  0.00  0.00    +0.015 A 
ATOM     20  C   UNL     1       0.025  -2.760  -3.108  0.00  0.00    +0.025 A 
BRANCH  15  24
ATOM     21  C   UNL     1      -0.053   1.502   0.011  0.00  0.00    +0.062 C 
ATOM     22  C   UNL     1       0.015  -0.004   0.002  0.00  0.00    +0.036 C 
ATOM     23  N   UNL     1       0.009  -0.729  -1.041  0.00  0.00    -0.189 NA
ATOM     24  N   UNL     1       0.081  -2.098  -0.792  0.00  0.00    -0.224 N 
ATOM     25  C   UNL     1       0.145  -2.311   0.663  0.00  0.00    +0.138 C 
ATOM     26  C   UNL     1       0.108  -0.878   1.232  0.00  0.00    +0.073 C 
ENDBRANCH  15  24
ENDBRANCH   1  18
TORSDOF 3
