REMARK  Name = ZINC17242616
REMARK  12 active torsions:
REMARK  status: ('A' for Active; 'I' for Inactive)
REMARK    1  A    between atoms: C_1  and  C_2
REMARK    2  A    between atoms: C_2  and  C_38
REMARK    3  A    between atoms: C_6  and  C_23
REMARK    4  A    between atoms: C_12  and  S_14
REMARK    5  A    between atoms: S_14  and  C_15
REMARK    6  A    between atoms: C_15  and  C_16
REMARK    7  A    between atoms: C_25  and  O_33
REMARK    8  A    between atoms: C_26  and  O_31
REMARK    9  A    between atoms: C_27  and  O_29
REMARK   10  A    between atoms: O_29  and  C_30
REMARK   11  A    between atoms: O_31  and  C_32
REMARK   12  A    between atoms: O_33  and  C_34
REMARK                            x       y       z     vdW  Elec       q    Type
REMARK                         _______ _______ _______ _____ _____    ______ ____
ROOT
ATOM      1  C   UNL     1      -0.019   1.526   0.010  0.00  0.00    +0.011 C 
ATOM      2  C   UNL     1       0.002  -0.004   0.002  0.00  0.00    -0.023 C 
ATOM      3  C   UNL     1       0.729  -0.499  -1.250  0.00  0.00    +0.060 C 
ATOM      4  C   UNL     1       2.158  -0.012  -1.230  0.00  0.00    +0.028 C 
ATOM      5  C   UNL     1       2.799   0.191  -0.022  0.00  0.00    +0.041 C 
ATOM      6  C   UNL     1       4.234   0.679  -0.058  0.00  0.00    +0.162 C 
ATOM      7  N   UNL     1       4.808   0.891  -1.392  0.00  0.00    -0.208 N 
ATOM      8  C   UNL     1       4.031   0.642  -2.497  0.00  0.00    +0.215 C 
ATOM      9  N   UNL     1       2.780   0.216  -2.377  0.00  0.00    -0.330 N 
ATOM     10  N   UNL     1       4.774   0.909  -3.578  0.00  0.00    -0.192 NA
ATOM     11  C   UNL     1       5.980   1.313  -3.219  0.00  0.00    +0.174 C 
ATOM     12  N   UNL     1       6.055   1.321  -1.853  0.00  0.00    -0.239 N 
ATOM     13  C   UNL     1       2.171  -0.035   1.192  0.00  0.00    +0.164 C 
ATOM     14  O   UNL     1       2.779   0.155   2.228  0.00  0.00    -0.292 OA
ATOM     15  C   UNL     1       0.743  -0.513   1.242  0.00  0.00    +0.086 C 
ATOM     16  C   UNL     1      -1.433  -0.536   0.008  0.00  0.00    +0.011 C 
ATOM     17  H   UNL     1       2.281   0.058  -3.194  0.00  0.00    +0.168 HD
ATOM     18  H   UNL     1       6.821   1.573  -1.313  0.00  0.00    +0.172 HD
ENDROOT
BRANCH   6  19
ATOM     19  C   UNL     1       5.091  -0.330   0.663  0.00  0.00    -0.014 A 
ATOM     20  C   UNL     1       5.491  -1.483   0.015  0.00  0.00    +0.055 A 
ATOM     21  C   UNL     1       6.280  -2.414   0.675  0.00  0.00    +0.165 A 
ATOM     22  C   UNL     1       6.668  -2.185   1.990  0.00  0.00    +0.204 A 
ATOM     23  C   UNL     1       6.264  -1.024   2.638  0.00  0.00    +0.165 A 
ATOM     24  C   UNL     1       5.480  -0.096   1.969  0.00  0.00    +0.055 A 
BRANCH  23  25
ATOM     25  O   UNL     1       6.641  -0.795   3.924  0.00  0.00    -0.491 OA
ATOM     26  C   UNL     1       6.190   0.419   4.527  0.00  0.00    +0.277 C 
ENDBRANCH  23  25
BRANCH  22  27
ATOM     27  O   UNL     1       7.441  -3.096   2.642  0.00  0.00    -0.488 OA
ATOM     28  C   UNL     1       8.857  -2.936   2.539  0.00  0.00    +0.277 C 
ENDBRANCH  22  27
BRANCH  21  29
ATOM     29  O   UNL     1       6.672  -3.549   0.037  0.00  0.00    -0.491 OA
ATOM     30  C   UNL     1       6.235  -3.718  -1.313  0.00  0.00    +0.277 C 
ENDBRANCH  21  29
ENDBRANCH   6  19
BRANCH  11  31
ATOM     31  S   UNL     1       7.279   1.769  -4.319  0.00  0.00    -0.084 S 
BRANCH  31  32
ATOM     32  C   UNL     1       6.556   1.545  -5.968  0.00  0.00    +0.115 C 
BRANCH  32  33
ATOM     33  C   UNL     1       7.576   1.905  -7.017  0.00  0.00    -0.002 A 
ATOM     34  C   UNL     1       7.664   3.205  -7.479  0.00  0.00    +0.007 A 
ATOM     35  C   UNL     1       8.600   3.535  -8.441  0.00  0.00    +0.000 A 
ATOM     36  C   UNL     1       9.449   2.566  -8.942  0.00  0.00    +0.003 A 
ATOM     37  C   UNL     1       9.364   1.266  -8.482  0.00  0.00    +0.038 A 
ATOM     38  C   UNL     1       8.430   0.935  -7.514  0.00  0.00    +0.127 A 
ATOM     39  F   UNL     1       8.349  -0.334  -7.059  0.00  0.00    -0.205 F 
ENDBRANCH  32  33
ENDBRANCH  31  32
ENDBRANCH  11  31
TORSDOF 7
