REMARK  Name = ZINC35523497
REMARK  6 active torsions:
REMARK  status: ('A' for Active; 'I' for Inactive)
REMARK    1  A    between atoms: C_1  and  C_2
REMARK    2  A    between atoms: C_5  and  N_8
REMARK    3  A    between atoms: C_9  and  C_11
REMARK    4  A    between atoms: C_14  and  C_16
REMARK    5  A    between atoms: C_16  and  N_17
REMARK    6  A    between atoms: C_25  and  C_27
REMARK                            x       y       z     vdW  Elec       q    Type
REMARK                         _______ _______ _______ _____ _____    ______ ____
ROOT
ATOM      1  N   UNL     1      -0.837 -10.057  -0.787  0.00  0.00    +0.394 N 
ATOM      2  C   UNL     1      -1.398 -10.573   0.468  0.00  0.00    -0.055 C 
ATOM      3  C   UNL     1      -2.905 -10.809   0.307  0.00  0.00    +0.103 C 
ATOM      4  N   UNL     1      -3.112 -11.612  -0.904  0.00  0.00    -0.353 N 
ATOM      5  C   UNL     1      -4.218 -12.305  -1.274  0.00  0.00    +0.086 A 
ATOM      6  C   UNL     1      -3.964 -12.902  -2.459  0.00  0.00    +0.019 A 
ATOM      7  C   UNL     1      -2.647 -12.561  -2.832  0.00  0.00    +0.021 A 
ATOM      8  C   UNL     1      -2.151 -11.771  -1.868  0.00  0.00    +0.009 A 
ATOM      9  C   UNL     1      -0.786 -11.132  -1.793  0.00  0.00    +0.014 C 
ATOM     10  H   UNL     1      -1.419  -9.306  -1.129  0.00  0.00    -0.080 HD
ENDROOT
BRANCH   9  11
ATOM     11  C   UNL     1      -0.420 -10.555  -3.136  0.00  0.00    -0.020 A 
ATOM     12  C   UNL     1      -0.588  -9.204  -3.376  0.00  0.00    +0.008 A 
ATOM     13  C   UNL     1      -0.252  -8.673  -4.607  0.00  0.00    +0.039 A 
ATOM     14  C   UNL     1       0.252  -9.494  -5.602  0.00  0.00    +0.126 A 
ATOM     15  C   UNL     1       0.420 -10.847  -5.363  0.00  0.00    +0.077 A 
ATOM     16  C   UNL     1       0.089 -11.376  -4.127  0.00  0.00    +0.128 A 
ATOM     17  F   UNL     1       0.258 -12.696  -3.890  0.00  0.00    -0.205 F 
ATOM     18  F   UNL     1       0.579  -8.975  -6.806  0.00  0.00    -0.205 F 
ENDBRANCH   9  11
BRANCH   1  19
ATOM     19  C   UNL     1       0.520  -9.551  -0.544  0.00  0.00    -0.002 C 
BRANCH  19  23
ATOM     20  C   UNL     1       0.305  -6.308   1.122  0.00  0.00    +0.190 A 
ATOM     21  C   UNL     1       0.425  -7.115   2.217  0.00  0.00    +0.055 A 
ATOM     22  C   UNL     1       0.521  -8.431   1.740  0.00  0.00    +0.043 A 
ATOM     23  C   UNL     1       0.456  -8.371   0.391  0.00  0.00    +0.090 A 
ATOM     24  O   UNL     1       0.321  -7.091   0.023  0.00  0.00    -0.457 OA
BRANCH  20  26
ATOM     25  N   UNL     1       0.059  -4.169  -0.021  0.00  0.00    -0.279 N 
ATOM     26  C   UNL     1       0.175  -4.848   1.138  0.00  0.00    +0.284 C 
ATOM     27  O   UNL     1       0.173  -4.248   2.197  0.00  0.00    -0.266 OA
ATOM     28  H   UNL     1      -0.017  -4.650  -0.860  0.00  0.00    +0.155 HD
BRANCH  25  33
ATOM     29  C   UNL     1       0.006   1.503   0.009  0.00  0.00    +0.044 C 
ATOM     30  C   UNL     1       0.020  -0.004   0.001  0.00  0.00    -0.050 A 
ATOM     31  C   UNL     1      -0.724  -0.696  -0.937  0.00  0.00    +0.005 A 
ATOM     32  C   UNL     1      -0.713  -2.077  -0.947  0.00  0.00    +0.023 A 
ATOM     33  C   UNL     1       0.046  -2.771  -0.014  0.00  0.00    +0.034 A 
ATOM     34  C   UNL     1       0.792  -2.073   0.927  0.00  0.00    +0.023 A 
ATOM     35  C   UNL     1       0.781  -0.692   0.929  0.00  0.00    +0.005 A 
ENDBRANCH  25  33
ENDBRANCH  20  26
ENDBRANCH  19  23
ENDBRANCH   1  19
TORSDOF 5
