REMARK  Name = ZINC35069924
REMARK  11 active torsions:
REMARK  status: ('A' for Active; 'I' for Inactive)
REMARK    1  A    between atoms: C_1  and  C_2
REMARK    2  A    between atoms: C_2  and  C_3
REMARK    3  A    between atoms: C_6  and  N_9
REMARK    4  A    between atoms: N_12  and  C_13
REMARK    5  A    between atoms: N_12  and  C_19
REMARK    6  A    between atoms: C_13  and  C_14
REMARK    7  A    between atoms: C_19  and  C_21
REMARK    8  A    between atoms: C_19  and  C_22
REMARK    9  A    between atoms: N_32  and  C_33
REMARK   10  A    between atoms: C_36  and  C_40
REMARK   11  A    between atoms: C_37  and  C_39
REMARK                            x       y       z     vdW  Elec       q    Type
REMARK                         _______ _______ _______ _____ _____    ______ ____
ROOT
ATOM      1  C   UNL     1       4.881  -1.960  -5.226  0.00  0.00    +0.141 C 
ATOM      2  C   UNL     1       5.374  -0.666  -5.878  0.00  0.00    +0.036 C 
ENDROOT
BRANCH   1   3
ATOM      3  C   UNL     1       5.470  -3.143  -5.949  0.00  0.00    +0.138 A 
ATOM      4  N   UNL     1       5.308  -3.223  -7.235  0.00  0.00    -0.231 NA
ATOM      5  C   UNL     1       5.811  -4.259  -7.953  0.00  0.00    +0.078 A 
ATOM      6  C   UNL     1       5.637  -4.344  -9.336  0.00  0.00    +0.028 A 
ATOM      7  C   UNL     1       6.164  -5.413 -10.024  0.00  0.00    +0.002 A 
ATOM      8  C   UNL     1       6.868  -6.410  -9.360  0.00  0.00    +0.001 A 
ATOM      9  C   UNL     1       7.052  -6.349  -7.996  0.00  0.00    +0.015 A 
ATOM     10  C   UNL     1       6.527  -5.274  -7.281  0.00  0.00    +0.065 A 
ATOM     11  C   UNL     1       6.693  -5.155  -5.825  0.00  0.00    +0.266 A 
ATOM     12  O   UNL     1       7.299  -5.995  -5.187  0.00  0.00    -0.267 OA
ATOM     13  N   UNL     1       6.150  -4.071  -5.223  0.00  0.00    -0.263 N 
BRANCH  13  14
ATOM     14  C   UNL     1       6.283  -3.907  -3.838  0.00  0.00    +0.051 A 
ATOM     15  C   UNL     1       5.565  -4.717  -2.969  0.00  0.00    +0.026 A 
ATOM     16  C   UNL     1       5.699  -4.552  -1.604  0.00  0.00    +0.005 A 
ATOM     17  C   UNL     1       6.548  -3.582  -1.103  0.00  0.00    -0.047 A 
ATOM     18  C   UNL     1       7.265  -2.774  -1.966  0.00  0.00    -0.046 A 
ATOM     19  C   UNL     1       7.139  -2.937  -3.332  0.00  0.00    +0.030 A 
ATOM     20  C   UNL     1       8.188  -1.718  -1.416  0.00  0.00    +0.044 C 
ATOM     21  C   UNL     1       6.692  -3.406   0.386  0.00  0.00    +0.044 C 
ENDBRANCH  13  14
ENDBRANCH   1   3
BRANCH   1  25
ATOM     22  N   UNL     1       1.347  -2.255  -4.253  0.00  0.00    -0.269 N 
ATOM     23  C   UNL     1       2.692  -2.200  -4.183  0.00  0.00    +0.307 C 
ATOM     24  O   UNL     1       3.250  -2.314  -3.108  0.00  0.00    -0.252 OA
ATOM     25  N   UNL     1       3.419  -2.019  -5.303  0.00  0.00    -0.268 N 
ATOM     26  H   UNL     1       0.906  -2.236  -5.117  0.00  0.00    +0.156 HD
BRANCH  22  30
ATOM     27  C   UNL     1      -0.914  -2.502  -0.763  0.00  0.00    -0.048 A 
ATOM     28  C   UNL     1       0.272  -1.790  -0.768  0.00  0.00    +0.005 A 
ATOM     29  C   UNL     1       1.024  -1.706  -1.923  0.00  0.00    +0.023 A 
ATOM     30  C   UNL     1       0.588  -2.338  -3.081  0.00  0.00    +0.035 A 
ATOM     31  C   UNL     1      -0.603  -3.052  -3.072  0.00  0.00    +0.023 A 
ATOM     32  C   UNL     1      -1.348  -3.136  -1.912  0.00  0.00    +0.005 A 
BRANCH  27  34
ATOM     33  C   UNL     1      -1.287  -3.810   1.311  0.00  0.00    +0.009 C 
ATOM     34  C   UNL     1      -1.732  -2.591   0.500  0.00  0.00    +0.032 C 
ENDBRANCH  27  34
ENDBRANCH  22  30
BRANCH  25  35
ATOM     35  C   UNL     1       2.747  -1.881  -6.598  0.00  0.00    +0.184 C 
BRANCH  35  36
ATOM     36  C   UNL     1       2.322  -0.449  -6.793  0.00  0.00    +0.122 A 
ATOM     37  C   UNL     1       3.017   0.495  -7.453  0.00  0.00    +0.046 A 
ATOM     38  C   UNL     1       2.254   1.683  -7.392  0.00  0.00    +0.041 A 
ATOM     39  C   UNL     1       1.138   1.395  -6.699  0.00  0.00    +0.195 A 
ATOM     40  O   UNL     1       1.182   0.100  -6.344  0.00  0.00    -0.466 OA
ENDBRANCH  35  36
ENDBRANCH  25  35
ENDBRANCH   1  25
TORSDOF 7
