REMARK  Name = ZINC24670777
REMARK  9 active torsions:
REMARK  status: ('A' for Active; 'I' for Inactive)
REMARK    1  A    between atoms: C_1  and  C_2
REMARK    2  A    between atoms: C_2  and  C_3
REMARK    3  A    between atoms: C_3  and  N_4
REMARK    4  A    between atoms: C_14  and  S_15
REMARK    5  A    between atoms: S_15  and  C_16
REMARK    6  A    between atoms: C_16  and  C_17
REMARK    7  A    between atoms: N_19  and  C_20
REMARK    8  A    between atoms: C_23  and  C_29
REMARK    9  A    between atoms: C_25  and  N_26
REMARK                            x       y       z     vdW  Elec       q    Type
REMARK                         _______ _______ _______ _____ _____    ______ ____
ROOT
ATOM      1  S   UNL     1       0.948   3.683   1.015  0.00  0.00    -0.078 S 
ENDROOT
BRANCH   1  12
ATOM      2  N   UNL     1      -0.686   1.550   1.226  0.00  0.00    -0.287 N 
ATOM      3  C   UNL     1      -1.656   0.792   1.787  0.00  0.00    +0.262 A 
ATOM      4  O   UNL     1      -1.984  -0.275   1.301  0.00  0.00    -0.267 OA
ATOM      5  C   UNL     1      -2.300   1.304   3.005  0.00  0.00    +0.066 A 
ATOM      6  C   UNL     1      -3.309   0.596   3.657  0.00  0.00    +0.030 A 
ATOM      7  C   UNL     1      -3.878   1.124   4.796  0.00  0.00    +0.019 A 
ATOM      8  C   UNL     1      -3.454   2.350   5.294  0.00  0.00    +0.017 A 
ATOM      9  C   UNL     1      -2.467   3.059   4.671  0.00  0.00    +0.029 A 
ATOM     10  C   UNL     1      -1.871   2.550   3.514  0.00  0.00    +0.079 A 
ATOM     11  N   UNL     1      -0.890   3.223   2.868  0.00  0.00    -0.223 NA
ATOM     12  C   UNL     1      -0.327   2.743   1.786  0.00  0.00    +0.173 A 
ATOM     13 BR   UNL     1      -5.248   0.172   5.687  0.00  0.00    -0.050 Br
BRANCH   2  14
ATOM     14  C   UNL     1      -0.012   1.085   0.011  0.00  0.00    +0.127 C 
BRANCH  14  16
ATOM     15  C   UNL     1      -0.064   1.109  -2.487  0.00  0.00    +0.005 C 
ATOM     16  C   UNL     1      -0.768   1.594  -1.218  0.00  0.00    +0.018 C 
ENDBRANCH  14  16
ENDBRANCH   2  14
ENDBRANCH   1  12
BRANCH   1  17
ATOM     17  C   UNL     1       1.010   5.105   2.132  0.00  0.00    +0.173 C 
BRANCH  17  18
ATOM     18  C   UNL     1       2.062   6.073   1.655  0.00  0.00    +0.228 C 
ATOM     19  O   UNL     1       2.707   5.825   0.659  0.00  0.00    -0.275 OA
ATOM     20  N   UNL     1       2.287   7.213   2.337  0.00  0.00    -0.283 N 
ATOM     21  H   UNL     1       1.643   7.482   3.187  0.00  0.00    +0.155 HD
BRANCH  20  22
ATOM     22  C   UNL     1       3.340   8.056   1.964  0.00  0.00    +0.064 A 
ATOM     23  C   UNL     1       4.441   7.538   1.294  0.00  0.00    +0.026 A 
ATOM     24  C   UNL     1       5.479   8.372   0.927  0.00  0.00    +0.005 A 
ATOM     25  C   UNL     1       5.423   9.721   1.226  0.00  0.00    -0.048 A 
ATOM     26  C   UNL     1       4.329  10.239   1.893  0.00  0.00    +0.038 A 
ATOM     27  C   UNL     1       3.284   9.412   2.258  0.00  0.00    +0.148 A 
ATOM     28  C   UNL     1       6.557  10.628   0.824  0.00  0.00    +0.044 C 
BRANCH  27  29
ATOM     29  N   UNL     1       2.110   9.969   2.966  0.00  0.00    +0.058 N 
ATOM     30  O   UNL     1       2.020  11.170   3.144  0.00  0.00    -0.126 OA
ATOM     31  O   UNL     1       1.235   9.225   3.371  0.00  0.00    -0.126 OA
ENDBRANCH  27  29
ENDBRANCH  20  22
ENDBRANCH  17  18
ENDBRANCH   1  17
TORSDOF 7
