REMARK  Name = ZINC40015647
REMARK  10 active torsions:
REMARK  status: ('A' for Active; 'I' for Inactive)
REMARK    1  A    between atoms: C_1  and  C_2
REMARK    2  A    between atoms: C_2  and  C_3
REMARK    3  A    between atoms: C_3  and  O_4
REMARK    4  A    between atoms: O_4  and  C_5
REMARK    5  A    between atoms: C_8  and  C_11
REMARK    6  A    between atoms: C_12  and  C_13
REMARK    7  A    between atoms: C_21  and  C_22
REMARK    8  A    between atoms: C_26  and  O_28
REMARK    9  A    between atoms: O_28  and  C_29
REMARK   10  A    between atoms: C_29  and  C_30
REMARK                            x       y       z     vdW  Elec       q    Type
REMARK                         _______ _______ _______ _____ _____    ______ ____
ROOT
ATOM      1  C   UNL     1      -7.924  -6.764  -1.628  0.00  0.00    +0.176 A 
ATOM      2  N   UNL     1      -9.094  -6.135  -1.418  0.00  0.00    -0.201 NA
ATOM      3  C   UNL     1      -9.989  -7.006  -1.047  0.00  0.00    +0.200 A 
ATOM      4  N   UNL     1      -9.430  -8.253  -1.000  0.00  0.00    -0.169 N 
ATOM      5  N   UNL     1      -8.079  -8.047  -1.393  0.00  0.00    -0.142 NA
ATOM      6  C   UNL     1     -10.195  -9.292  -0.639  0.00  0.00    +0.288 A 
ATOM      7  O   UNL     1      -9.740 -10.419  -0.583  0.00  0.00    -0.265 OA
ATOM      8  C   UNL     1     -11.604  -9.022  -0.310  0.00  0.00    +0.082 A 
ATOM      9  C   UNL     1     -12.580  -9.882   0.079  0.00  0.00    +0.028 C 
ATOM     10  S   UNL     1     -11.681  -7.255  -0.563  0.00  0.00    -0.044 S 
ENDROOT
BRANCH   9  11
ATOM     11  C   UNL     1     -13.968  -9.414   0.195  0.00  0.00    -0.020 A 
ATOM     12  C   UNL     1     -14.358  -8.212  -0.407  0.00  0.00    +0.008 A 
ATOM     13  C   UNL     1     -15.662  -7.777  -0.295  0.00  0.00    +0.004 A 
ATOM     14  C   UNL     1     -16.587  -8.525   0.410  0.00  0.00    +0.046 A 
ATOM     15  C   UNL     1     -16.212  -9.720   1.012  0.00  0.00    +0.122 A 
ATOM     16  C   UNL     1     -14.908 -10.171   0.903  0.00  0.00    +0.053 A 
BRANCH  15  17
ATOM     17  O   UNL     1     -17.127 -10.449   1.704  0.00  0.00    -0.487 OA
BRANCH  17  18
ATOM     18  C   UNL     1     -18.455  -9.927   1.771  0.00  0.00    +0.264 C 
BRANCH  18  19
ATOM     19  C   UNL     1     -19.323 -10.863   2.572  0.00  0.00    -0.010 A 
ATOM     20  C   UNL     1     -19.999 -11.889   1.939  0.00  0.00    +0.010 A 
ATOM     21  C   UNL     1     -20.795 -12.749   2.673  0.00  0.00    +0.039 A 
ATOM     22  C   UNL     1     -20.914 -12.582   4.042  0.00  0.00    +0.123 A 
ATOM     23  C   UNL     1     -20.236 -11.554   4.675  0.00  0.00    +0.039 A 
ATOM     24  C   UNL     1     -19.437 -10.699   3.940  0.00  0.00    +0.010 A 
ATOM     25  F   UNL     1     -21.692 -13.421   4.760  0.00  0.00    -0.205 F 
ENDBRANCH  18  19
ENDBRANCH  17  18
ENDBRANCH  15  17
ENDBRANCH   9  11
BRANCH   1  27
ATOM     26  C   UNL     1      -6.637  -4.792  -2.267  0.00  0.00    +0.011 C 
ATOM     27  C   UNL     1      -6.672  -6.119  -2.058  0.00  0.00    +0.050 C 
BRANCH  26  31
ATOM     28  C   UNL     1      -3.028  -2.933  -3.505  0.00  0.00    +0.121 A 
ATOM     29  C   UNL     1      -4.172  -2.167  -3.317  0.00  0.00    +0.046 A 
ATOM     30  C   UNL     1      -5.346  -2.767  -2.915  0.00  0.00    +0.011 A 
ATOM     31  C   UNL     1      -5.385  -4.147  -2.697  0.00  0.00    -0.025 A 
ATOM     32  C   UNL     1      -4.231  -4.913  -2.888  0.00  0.00    +0.011 A 
ATOM     33  C   UNL     1      -3.063  -4.305  -3.295  0.00  0.00    +0.046 A 
BRANCH  28  34
ATOM     34  O   UNL     1      -1.873  -2.337  -3.901  0.00  0.00    -0.492 OA
BRANCH  34  35
ATOM     35  C   UNL     1      -1.907  -0.923  -4.100  0.00  0.00    +0.229 C 
BRANCH  35  37
ATOM     36  C   UNL     1      -0.561   1.079  -4.753  0.00  0.00    +0.007 C 
ATOM     37  C   UNL     1      -0.525  -0.436  -4.541  0.00  0.00    +0.038 C 
ENDBRANCH  35  37
ENDBRANCH  34  35
ENDBRANCH  28  34
ENDBRANCH  26  31
ENDBRANCH   1  27
TORSDOF 9
