REMARK  Name = ZINC12042137
REMARK  11 active torsions:
REMARK  status: ('A' for Active; 'I' for Inactive)
REMARK    1  A    between atoms: C_1  and  C_2
REMARK    2  A    between atoms: C_2  and  C_3
REMARK    3  A    between atoms: C_2  and  C_4
REMARK    4  A    between atoms: C_4  and  C_5
REMARK    5  A    between atoms: C_5  and  C_7
REMARK    6  A    between atoms: C_5  and  N_26
REMARK    7  A    between atoms: C_16  and  C_17
REMARK    8  A    between atoms: C_16  and  N_66
REMARK    9  A    between atoms: C_17  and  C_25
REMARK   10  A    between atoms: C_18  and  C_19
REMARK   11  A    between atoms: C_27  and  C_29
REMARK                            x       y       z     vdW  Elec       q    Type
REMARK                         _______ _______ _______ _____ _____    ______ ____
ROOT
ATOM      1  C   UNL     1      -1.611  -4.398  -0.629  0.00  0.00    +0.154 A 
ATOM      2  N   UNL     1      -0.517  -5.091  -0.453  0.00  0.00    -0.132 NA
ATOM      3  N   UNL     1      -0.565  -6.167  -1.160  0.00  0.00    -0.134 NA
ATOM      4  C   UNL     1      -1.691  -6.209  -1.811  0.00  0.00    +0.132 A 
ATOM      5  N   UNL     1      -2.381  -5.085  -1.500  0.00  0.00    -0.315 N 
ATOM      6  C   UNL     1      -3.690  -4.704  -2.030  0.00  0.00    +0.106 C 
ATOM      7  C   UNL     1      -4.471  -5.969  -2.400  0.00  0.00    -0.056 C 
ATOM      8  C   UNL     1      -2.762  -6.658  -3.990  0.00  0.00    -0.071 C 
ATOM      9  C   UNL     1      -2.184  -7.296  -2.731  0.00  0.00    +0.058 C 
ATOM     10  N   UNL     1      -4.192  -6.321  -3.811  0.00  0.00    +0.384 N 
ATOM     11  H   UNL     1      -4.419  -5.514  -4.404  0.00  0.00    -0.081 HD
ENDROOT
BRANCH   1  12
ATOM     12  C   UNL     1      -1.951  -3.082   0.021  0.00  0.00    +0.142 C 
BRANCH  12  13
ATOM     13  N   UNL     1      -0.787  -2.194  -0.035  0.00  0.00    -0.299 N 
ATOM     14  C   UNL     1      -0.957  -0.858   0.004  0.00  0.00    +0.280 C 
ATOM     15  O   UNL     1      -2.076  -0.388   0.085  0.00  0.00    -0.267 OA
ATOM     16  H   UNL     1       0.106  -2.568  -0.100  0.00  0.00    +0.150 HD
BRANCH  14  17
ATOM     17  C   UNL     1       0.209   0.031  -0.052  0.00  0.00    +0.189 A 
ATOM     18  C   UNL     1       0.179   1.396  -0.022  0.00  0.00    +0.054 A 
ATOM     19  C   UNL     1       1.511   1.831  -0.099  0.00  0.00    +0.042 A 
ATOM     20  C   UNL     1       2.286   0.726  -0.172  0.00  0.00    +0.196 A 
ATOM     21  O   UNL     1       1.498  -0.356  -0.144  0.00  0.00    -0.458 OA
ENDBRANCH  14  17
ENDBRANCH  12  13
BRANCH  12  22
ATOM     22  C   UNL     1      -2.340  -3.321   1.482  0.00  0.00    +0.033 C 
BRANCH  22  24
ATOM     23  C   UNL     1      -4.088  -1.537   1.418  0.00  0.00    +0.007 C 
ATOM     24  C   UNL     1      -2.805  -2.004   2.108  0.00  0.00    -0.015 C 
ATOM     25  C   UNL     1      -3.075  -2.216   3.599  0.00  0.00    +0.007 C 
ENDBRANCH  22  24
ENDBRANCH  12  22
ENDBRANCH   1  12
BRANCH  10  26
ATOM     26  C   UNL     1      -5.030  -7.463  -4.218  0.00  0.00    -0.048 C 
BRANCH  26  27
ATOM     27  C   UNL     1      -4.881  -7.663  -5.705  0.00  0.00    -0.089 C 
ATOM     28  C   UNL     1      -4.019  -8.555  -6.171  0.00  0.00    +0.005 C 
ATOM     29  C   UNL     1      -5.714  -6.848  -6.661  0.00  0.00    +0.037 C 
BRANCH  28  30
ATOM     30  C   UNL     1      -3.748  -8.633  -7.622  0.00  0.00    -0.025 A 
ATOM     31  C   UNL     1      -3.458  -9.863  -8.215  0.00  0.00    +0.008 A 
ATOM     32  C   UNL     1      -3.213  -9.930  -9.571  0.00  0.00    +0.001 A 
ATOM     33  C   UNL     1      -3.242  -8.780 -10.341  0.00  0.00    +0.000 A 
ATOM     34  C   UNL     1      -3.524  -7.558  -9.758  0.00  0.00    +0.001 A 
ATOM     35  C   UNL     1      -3.777  -7.478  -8.404  0.00  0.00    +0.008 A 
ENDBRANCH  28  30
ENDBRANCH  26  27
ENDBRANCH  10  26
TORSDOF 8
