REMARK  Name = ZINC64182064
REMARK  5 active torsions:
REMARK  status: ('A' for Active; 'I' for Inactive)
REMARK    1  A    between atoms: C_8  and  C_13
REMARK    2  A    between atoms: C_13  and  C_14
REMARK    3  A    between atoms: C_14  and  C_15
REMARK    4  A    between atoms: N_17  and  N_18
REMARK    5  A    between atoms: C_19  and  C_21
REMARK                            x       y       z     vdW  Elec       q    Type
REMARK                         _______ _______ _______ _____ _____    ______ ____
ROOT
ATOM      1  C   UNL     1       3.085  -2.887  -4.547  0.00  0.00    +0.229 C 
ATOM      2  O   UNL     1       2.098  -2.288  -4.918  0.00  0.00    -0.274 OA
ATOM      3  N   UNL     1       3.968  -3.357  -5.451  0.00  0.00    -0.234 N 
ATOM      4  H   UNL     1       4.758  -3.836  -5.154  0.00  0.00    +0.173 HD
ENDROOT
BRANCH   3   5
ATOM      5  N   UNL     1       3.745  -3.152  -6.819  0.00  0.00    -0.231 N 
ATOM      6  C   UNL     1       4.628  -3.622  -7.723  0.00  0.00    +0.258 C 
ATOM      7  O   UNL     1       5.619  -4.223  -7.351  0.00  0.00    -0.269 OA
ATOM      8  H   UNL     1       2.956  -2.673  -7.116  0.00  0.00    +0.173 HD
BRANCH   6   9
ATOM      9  C   UNL     1       4.395  -3.408  -9.155  0.00  0.00    +0.044 C 
ATOM     10  C   UNL     1       5.191  -3.825 -10.199  0.00  0.00    +0.008 A 
ATOM     11  C   UNL     1       6.411  -4.546 -10.252  0.00  0.00    +0.010 A 
ATOM     12  C   UNL     1       6.985  -4.824 -11.443  0.00  0.00    +0.001 A 
ATOM     13  C   UNL     1       6.420  -4.424 -12.664  0.00  0.00    +0.002 A 
ATOM     14  C   UNL     1       5.261  -3.733 -12.724  0.00  0.00    +0.026 A 
ATOM     15  C   UNL     1       4.568  -3.389 -11.473  0.00  0.00    +0.043 A 
ATOM     16  N   UNL     1       3.460  -2.743 -11.241  0.00  0.00    -0.380 N 
ATOM     17  C   UNL     1       3.227  -2.689  -9.794  0.00  0.00    +0.154 C 
ATOM     18  H   UNL     1       2.879  -2.363 -11.918  0.00  0.00    +0.160 HD
ENDBRANCH   6   9
ENDBRANCH   3   5
BRANCH   1  19
ATOM     19  C   UNL     1       3.325  -3.107  -3.076  0.00  0.00    +0.098 C 
BRANCH  19  20
ATOM     20  C   UNL     1       2.182  -2.480  -2.274  0.00  0.00    +0.022 C 
BRANCH  20  28
ATOM     21  C   UNL     1      -0.017   1.378   0.010  0.00  0.00    +0.000 A 
ATOM     22  C   UNL     1       1.170   2.088   0.002  0.00  0.00    +0.002 A 
ATOM     23  C   UNL     1       2.377   1.418  -0.021  0.00  0.00    +0.023 A 
ATOM     24  C   UNL     1       2.400   0.030  -0.041  0.00  0.00    +0.037 A 
ATOM     25  C   UNL     1       1.207  -0.680  -0.016  0.00  0.00    -0.025 A 
ATOM     26  C   UNL     1       0.002  -0.004   0.002  0.00  0.00    +0.005 A 
ATOM     27  C   UNL     1       1.224  -2.187   0.013  0.00  0.00    +0.049 C 
ATOM     28  C   UNL     1       2.425  -2.703  -0.780  0.00  0.00    +0.080 C 
ATOM     29  C   UNL     1       3.668  -1.963  -0.360  0.00  0.00    +0.221 C 
ATOM     30  O   UNL     1       4.723  -2.557  -0.283  0.00  0.00    -0.275 OA
ATOM     31  N   UNL     1       3.620  -0.651  -0.071  0.00  0.00    -0.285 N 
ATOM     32  H   UNL     1       4.441  -0.172   0.119  0.00  0.00    +0.155 HD
ENDBRANCH  20  28
ENDBRANCH  19  20
ENDBRANCH   1  19
TORSDOF 5
