REMARK  Name = ZINC14742495
REMARK  8 active torsions:
REMARK  status: ('A' for Active; 'I' for Inactive)
REMARK    1  A    between atoms: C_1  and  C_2
REMARK    2  A    between atoms: C_2  and  N_3
REMARK    3  A    between atoms: C_6  and  C_8
REMARK    4  A    between atoms: C_17  and  N_67
REMARK    5  A    between atoms: C_21  and  C_22
REMARK    6  A    between atoms: C_21  and  N_67
REMARK    7  A    between atoms: C_22  and  C_23
REMARK    8  A    between atoms: C_22  and  C_29
REMARK                            x       y       z     vdW  Elec       q    Type
REMARK                         _______ _______ _______ _____ _____    ______ ____
ROOT
ATOM      1  N   UNL     1       0.168   2.132  -7.610  0.00  0.00    -0.268 N 
ATOM      2  C   UNL     1       0.071   2.180  -6.271  0.00  0.00    +0.043 A 
ATOM      3  C   UNL     1      -1.249   2.156  -5.962  0.00  0.00    +0.004 A 
ATOM      4  C   UNL     1      -1.931   2.093  -7.189  0.00  0.00    +0.151 A 
ATOM      5  N   UNL     1      -1.008   2.082  -8.135  0.00  0.00    -0.166 NA
ATOM      6  C   UNL     1      -1.800   2.190  -4.564  0.00  0.00    +0.023 C 
ATOM      7  C   UNL     1      -0.664   1.847  -3.590  0.00  0.00    -0.067 C 
ATOM      8  C   UNL     1       0.562   2.705  -3.912  0.00  0.00    -0.009 C 
ATOM      9  C   UNL     1       1.173   2.253  -5.245  0.00  0.00    +0.054 C 
ENDROOT
BRANCH   4  10
ATOM     10  C   UNL     1      -3.394   2.049  -7.383  0.00  0.00    +0.267 C 
ATOM     11  O   UNL     1      -4.133   1.958  -6.422  0.00  0.00    -0.268 OA
ATOM     12  N   UNL     1      -3.911   2.109  -8.627  0.00  0.00    -0.292 N 
ATOM     13  C   UNL     1      -5.366   2.152  -8.841  0.00  0.00    +0.136 C 
ATOM     14  C   UNL     1      -5.677   3.325  -9.784  0.00  0.00    +0.179 C 
ATOM     15  O   UNL     1      -4.867   3.212 -10.956  0.00  0.00    -0.377 OA
ATOM     16  C   UNL     1      -3.461   3.296 -10.707  0.00  0.00    +0.179 C 
ATOM     17  C   UNL     1      -3.037   2.127  -9.810  0.00  0.00    +0.136 C 
ENDBRANCH   4  10
BRANCH   7  18
ATOM     18  N   UNL     1      -1.109   2.123  -2.211  0.00  0.00    +0.382 N 
ATOM     19  H   UNL     1      -2.109   1.908  -2.128  0.00  0.00    -0.085 HD
ATOM     20  H   UNL     1      -0.954   3.116  -1.997  0.00  0.00    -0.085 HD
BRANCH  18  21
ATOM     21  C   UNL     1      -0.351   1.296  -1.253  0.00  0.00    -0.069 C 
BRANCH  21  22
ATOM     22  C   UNL     1      -0.834   1.603   0.166  0.00  0.00    +0.032 C 
BRANCH  22  23
ATOM     23  C   UNL     1      -2.271   1.175   0.312  0.00  0.00    -0.042 A 
ATOM     24  C   UNL     1      -3.212   2.064   0.796  0.00  0.00    +0.004 A 
ATOM     25  C   UNL     1      -4.531   1.673   0.926  0.00  0.00    +0.000 A 
ATOM     26  C   UNL     1      -4.908   0.388   0.581  0.00  0.00    +0.000 A 
ATOM     27  C   UNL     1      -3.966  -0.503   0.101  0.00  0.00    +0.000 A 
ATOM     28  C   UNL     1      -2.648  -0.110  -0.033  0.00  0.00    +0.004 A 
ENDBRANCH  22  23
BRANCH  22  29
ATOM     29  C   UNL     1       0.017   0.854   1.159  0.00  0.00    -0.042 A 
ATOM     30  C   UNL     1       0.207  -0.508   1.017  0.00  0.00    +0.004 A 
ATOM     31  C   UNL     1       0.992  -1.194   1.925  0.00  0.00    +0.000 A 
ATOM     32  C   UNL     1       1.577  -0.521   2.981  0.00  0.00    +0.000 A 
ATOM     33  C   UNL     1       1.383   0.840   3.126  0.00  0.00    +0.000 A 
ATOM     34  C   UNL     1       0.603   1.528   2.215  0.00  0.00    +0.004 A 
ENDBRANCH  22  29
ENDBRANCH  21  22
ENDBRANCH  18  21
ENDBRANCH   7  18
BRANCH   1  36
ATOM     35  C   UNL     1       1.900   0.697  -8.569  0.00  0.00    +0.029 C 
ATOM     36  C   UNL     1       1.425   2.136  -8.362  0.00  0.00    +0.140 C 
ENDBRANCH   1  36
TORSDOF 7
