REMARK  Name = ZINC13499154
REMARK  13 active torsions:
REMARK  status: ('A' for Active; 'I' for Inactive)
REMARK    1  A    between atoms: C_1  and  C_2
REMARK    2  A    between atoms: C_7  and  C_15
REMARK    3  A    between atoms: C_13  and  C_14
REMARK    4  A    between atoms: C_15  and  N_16
REMARK    5  A    between atoms: N_16  and  C_17
REMARK    6  A    between atoms: N_16  and  C_24
REMARK    7  A    between atoms: C_17  and  C_18
REMARK    8  A    between atoms: C_24  and  C_26
REMARK    9  A    between atoms: C_24  and  C_37
REMARK   10  A    between atoms: N_30  and  C_31
REMARK   11  A    between atoms: C_31  and  C_32
REMARK   12  A    between atoms: C_37  and  C_38
REMARK   13  A    between atoms: C_37  and  C_39
REMARK                            x       y       z     vdW  Elec       q    Type
REMARK                         _______ _______ _______ _____ _____    ______ ____
ROOT
ATOM      1  N   UNL     1       1.461  -7.655   1.722  0.00  0.00    -0.284 NA
ENDROOT
BRANCH   1   2
ATOM      2  C   UNL     1       0.643  -6.670   1.002  0.00  0.00    +0.126 C 
BRANCH   2   9
ATOM      3  C   UNL     1       5.316  -1.008  -2.115  0.00  0.00    +0.044 C 
ATOM      4  C   UNL     1       4.457  -2.185  -1.732  0.00  0.00    -0.046 A 
ATOM      5  C   UNL     1       4.243  -3.206  -2.649  0.00  0.00    +0.004 A 
ATOM      6  C   UNL     1       3.467  -4.282  -2.322  0.00  0.00    +0.010 A 
ATOM      7  C   UNL     1       2.884  -4.356  -1.053  0.00  0.00    -0.001 A 
ATOM      8  C   UNL     1       2.048  -5.495  -0.669  0.00  0.00    +0.020 A 
ATOM      9  C   UNL     1       1.508  -5.513   0.575  0.00  0.00    +0.031 A 
ATOM     10  C   UNL     1       1.755  -4.451   1.472  0.00  0.00    +0.254 A 
ATOM     11  O   UNL     1       1.261  -4.487   2.585  0.00  0.00    -0.268 OA
ATOM     12  N   UNL     1       2.521  -3.401   1.128  0.00  0.00    -0.322 N 
ATOM     13  H   UNL     1       2.670  -2.688   1.769  0.00  0.00    +0.169 HD
ATOM     14  C   UNL     1       3.098  -3.323  -0.121  0.00  0.00    +0.052 A 
ATOM     15  C   UNL     1       3.896  -2.240  -0.475  0.00  0.00    -0.024 A 
ATOM     16  C   UNL     1       4.143  -1.128   0.512  0.00  0.00    +0.046 C 
ENDBRANCH   2   9
ENDBRANCH   1   2
BRANCH   1  17
ATOM     17  C   UNL     1       1.877  -7.136   3.032  0.00  0.00    +0.120 C 
BRANCH  17  18
ATOM     18  C   UNL     1       3.034  -7.950   3.551  0.00  0.00    -0.033 A 
ATOM     19  C   UNL     1       2.798  -9.140   4.214  0.00  0.00    +0.005 A 
ATOM     20  C   UNL     1       3.859  -9.888   4.691  0.00  0.00    +0.000 A 
ATOM     21  C   UNL     1       5.155  -9.445   4.503  0.00  0.00    +0.000 A 
ATOM     22  C   UNL     1       5.391  -8.256   3.840  0.00  0.00    +0.000 A 
ATOM     23  C   UNL     1       4.330  -7.511   3.360  0.00  0.00    +0.005 A 
ENDBRANCH  17  18
ENDBRANCH   1  17
BRANCH   1  24
ATOM     24  C   UNL     1       0.747  -8.930   1.864  0.00  0.00    +0.130 C 
BRANCH  24  25
ATOM     25  C   UNL     1      -0.689  -8.664   2.234  0.00  0.00    +0.169 A 
ATOM     26  N   UNL     1      -1.565  -7.988   1.531  0.00  0.00    -0.112 NA
ATOM     27  N   UNL     1      -2.678  -7.983   2.181  0.00  0.00    -0.023 NA
ATOM     28  N   UNL     1      -2.534  -8.638   3.280  0.00  0.00    -0.043 NA
ATOM     29  N   UNL     1      -1.323  -9.078   3.346  0.00  0.00    -0.220 N 
BRANCH  29  30
ATOM     30  C   UNL     1      -0.746  -9.876   4.431  0.00  0.00    +0.221 C 
BRANCH  30  31
ATOM     31  C   UNL     1      -0.454  -8.985   5.610  0.00  0.00    +0.126 A 
ATOM     32  C   UNL     1      -1.247  -8.815   6.683  0.00  0.00    +0.046 A 
ATOM     33  C   UNL     1      -0.591  -7.899   7.537  0.00  0.00    +0.041 A 
ATOM     34  C   UNL     1       0.565  -7.565   6.935  0.00  0.00    +0.195 A 
ATOM     35  O   UNL     1       0.645  -8.230   5.771  0.00  0.00    -0.466 OA
ENDBRANCH  30  31
ENDBRANCH  29  30
ENDBRANCH  24  25
BRANCH  24  36
ATOM     36  C   UNL     1       0.799  -9.694   0.539  0.00  0.00    +0.008 C 
ATOM     37  C   UNL     1       2.257  -9.989   0.177  0.00  0.00    +0.009 C 
ATOM     38  C   UNL     1       0.033 -11.011   0.679  0.00  0.00    +0.009 C 
ENDBRANCH  24  36
ENDBRANCH   1  24
TORSDOF 9
