REMARK  Name = ZINC09109334
REMARK  3 active torsions:
REMARK  status: ('A' for Active; 'I' for Inactive)
REMARK    1  A    between atoms: C_4  and  C_7
REMARK    2  A    between atoms: C_7  and  C_8
REMARK    3  A    between atoms: C_8  and  N_9
REMARK                            x       y       z     vdW  Elec       q    Type
REMARK                         _______ _______ _______ _____ _____    ______ ____
ROOT
ATOM      1  N   UNL     1      -4.204  -0.039   1.464  0.00  0.00    -0.224 N 
ATOM      2  C   UNL     1      -5.362   0.635   1.479  0.00  0.00    +0.241 C 
ATOM      3  O   UNL     1      -5.339   1.847   1.495  0.00  0.00    -0.274 OA
ATOM      4  C   UNL     1      -6.689  -0.069   1.471  0.00  0.00    +0.150 C 
ATOM      5  C   UNL     1      -7.488   0.350   0.232  0.00  0.00    +0.072 C 
ATOM      6  C   UNL     1      -8.009   1.752   0.405  0.00  0.00    +0.057 A 
ATOM      7  C   UNL     1      -8.021   2.394   1.637  0.00  0.00    +0.109 A 
ATOM      8  N   UNL     1      -8.514   3.634   1.723  0.00  0.00    -0.329 N 
ATOM      9  C   UNL     1      -8.982   4.274   0.657  0.00  0.00    +0.119 A 
ATOM     10  C   UNL     1      -9.491   5.579   0.798  0.00  0.00    +0.045 A 
ATOM     11  C   UNL     1      -9.963   6.237  -0.297  0.00  0.00    +0.005 A 
ATOM     12  C   UNL     1      -9.935   5.604  -1.549  0.00  0.00    +0.018 A 
ATOM     13  C   UNL     1      -9.446   4.350  -1.665  0.00  0.00    +0.096 A 
ATOM     14  N   UNL     1      -8.974   3.682  -0.575  0.00  0.00    -0.269 N 
ATOM     15  C   UNL     1      -8.497   2.428  -0.714  0.00  0.00    +0.263 A 
ATOM     16  O   UNL     1      -8.493   1.889  -1.810  0.00  0.00    -0.267 OA
ATOM     17  N   UNL     1      -7.525   1.805   2.776  0.00  0.00    -0.307 N 
ATOM     18  C   UNL     1      -7.495   0.346   2.705  0.00  0.00    +0.129 C 
ATOM     19  C   UNL     1      -6.888  -0.227   3.955  0.00  0.00    -0.022 A 
ATOM     20  C   UNL     1      -6.405  -1.526   3.928  0.00  0.00    +0.006 A 
ATOM     21  C   UNL     1      -5.848  -2.087   5.060  0.00  0.00    +0.000 A 
ATOM     22  C   UNL     1      -5.772  -1.348   6.227  0.00  0.00    +0.000 A 
ATOM     23  C   UNL     1      -6.250  -0.054   6.254  0.00  0.00    +0.004 A 
ATOM     24  C   UNL     1      -6.807   0.512   5.117  0.00  0.00    -0.041 A 
ATOM     25  C   UNL     1      -7.300   1.935   5.192  0.00  0.00    +0.054 C 
ATOM     26  C   UNL     1      -8.202   2.252   3.998  0.00  0.00    +0.112 C 
ATOM     27  C   UNL     1      -6.501  -1.559   1.468  0.00  0.00    +0.238 C 
ATOM     28  O   UNL     1      -7.479  -2.276   1.472  0.00  0.00    -0.274 OA
ATOM     29  N   UNL     1      -5.283  -2.119   1.461  0.00  0.00    -0.239 N 
ATOM     30  C   UNL     1      -4.163  -1.380   1.457  0.00  0.00    +0.315 C 
ATOM     31  O   UNL     1      -3.085  -1.940   1.446  0.00  0.00    -0.252 OA
ATOM     32  H   UNL     1      -5.181  -3.214   1.458  0.00  0.00    +0.159 HD
ATOM     33  H   UNL     1      -8.539   4.150   2.695  0.00  0.00    +0.168 HD
ENDROOT
BRANCH   1  34
ATOM     34  C   UNL     1      -2.945   0.711   1.462  0.00  0.00    +0.122 C 
BRANCH  34  35
ATOM     35  C   UNL     1      -2.514   0.980   0.019  0.00  0.00    +0.054 C 
BRANCH  35  39
ATOM     36  C   UNL     1       1.156   3.165   0.008  0.00  0.00    +0.000 A 
ATOM     37  C   UNL     1       1.175   1.783   0.000  0.00  0.00    +0.000 A 
ATOM     38  C   UNL     1      -0.013   1.076   0.008  0.00  0.00    +0.004 A 
ATOM     39  C   UNL     1      -1.219   1.751   0.017  0.00  0.00    -0.046 A 
ATOM     40  C   UNL     1      -1.238   3.133   0.030  0.00  0.00    +0.004 A 
ATOM     41  C   UNL     1      -0.050   3.840   0.022  0.00  0.00    +0.000 A 
ENDBRANCH  35  39
ENDBRANCH  34  35
ENDBRANCH   1  34
TORSDOF 3
