REMARK  Name = ZINC33957452
REMARK  10 active torsions:
REMARK  status: ('A' for Active; 'I' for Inactive)
REMARK    1  A    between atoms: C_1  and  C_2
REMARK    2  A    between atoms: C_2  and  O_3
REMARK    3  A    between atoms: O_3  and  C_4
REMARK    4  A    between atoms: C_7  and  N_10
REMARK    5  A    between atoms: N_10  and  C_11
REMARK    6  A    between atoms: N_10  and  S_22
REMARK    7  A    between atoms: C_11  and  C_12
REMARK    8  A    between atoms: N_14  and  N_15
REMARK    9  A    between atoms: C_16  and  C_17
REMARK   10  A    between atoms: S_22  and  C_25
REMARK                            x       y       z     vdW  Elec       q    Type
REMARK                         _______ _______ _______ _____ _____    ______ ____
ROOT
ATOM      1  N   UNL     1       1.102  -5.937  -1.834  0.00  0.00    -0.194 N 
ENDROOT
BRANCH   1   5
ATOM      2  C   UNL     1       1.249  -1.919  -0.736  0.00  0.00    +0.121 A 
ATOM      3  C   UNL     1       1.333  -2.906   0.235  0.00  0.00    +0.047 A 
ATOM      4  C   UNL     1       1.284  -4.237  -0.128  0.00  0.00    +0.028 A 
ATOM      5  C   UNL     1       1.151  -4.588  -1.465  0.00  0.00    +0.052 A 
ATOM      6  C   UNL     1       1.067  -3.599  -2.436  0.00  0.00    +0.028 A 
ATOM      7  C   UNL     1       1.110  -2.267  -2.071  0.00  0.00    +0.047 A 
BRANCH   2   8
ATOM      8  O   UNL     1       1.297  -0.607  -0.377  0.00  0.00    -0.492 OA
BRANCH   8  10
ATOM      9  C   UNL     1       1.476   1.195   1.223  0.00  0.00    +0.048 C 
ATOM     10  C   UNL     1       1.441  -0.320   1.015  0.00  0.00    +0.225 C 
ENDBRANCH   8  10
ENDBRANCH   2   8
ENDBRANCH   1   5
BRANCH   1  11
ATOM     11  S   UNL     1       2.252  -6.560  -2.849  0.00  0.00    +0.075 S 
ATOM     12  O   UNL     1       1.681  -7.714  -3.451  0.00  0.00    -0.150 OA
ATOM     13  O   UNL     1       2.753  -5.471  -3.613  0.00  0.00    -0.150 OA
BRANCH  11  14
ATOM     14  C   UNL     1       3.584  -7.124  -1.843  0.00  0.00    +0.109 A 
ATOM     15  C   UNL     1       4.619  -6.265  -1.522  0.00  0.00    +0.030 A 
ATOM     16  C   UNL     1       5.664  -6.707  -0.732  0.00  0.00    +0.017 A 
ATOM     17  C   UNL     1       5.674  -8.008  -0.263  0.00  0.00    +0.018 A 
ATOM     18  C   UNL     1       4.638  -8.867  -0.585  0.00  0.00    +0.017 A 
ATOM     19  C   UNL     1       3.591  -8.423  -1.371  0.00  0.00    +0.030 A 
ATOM     20 BR   UNL     1       7.104  -8.614   0.817  0.00  0.00    -0.050 Br
ENDBRANCH  11  14
ENDBRANCH   1  11
BRANCH   1  21
ATOM     21  C   UNL     1       0.033  -6.798  -1.323  0.00  0.00    +0.228 C 
BRANCH  21  22
ATOM     22  C   UNL     1      -1.185  -6.662  -2.201  0.00  0.00    +0.251 C 
ATOM     23  O   UNL     1      -1.161  -5.920  -3.160  0.00  0.00    -0.272 OA
ATOM     24  N   UNL     1      -2.299  -7.366  -1.920  0.00  0.00    -0.206 N 
ATOM     25  H   UNL     1      -2.318  -7.960  -1.153  0.00  0.00    +0.177 HD
BRANCH  24  26
ATOM     26  N   UNL     1      -3.431  -7.241  -2.737  0.00  0.00    -0.185 NA
ATOM     27  C   UNL     1      -4.507  -7.920  -2.466  0.00  0.00    +0.176 C 
BRANCH  27  28
ATOM     28  C   UNL     1      -5.691  -7.789  -3.320  0.00  0.00    +0.147 A 
ATOM     29  C   UNL     1      -6.880  -8.436  -3.148  0.00  0.00    +0.051 A 
ATOM     30  C   UNL     1      -7.725  -8.015  -4.191  0.00  0.00    +0.042 A 
ATOM     31  C   UNL     1      -7.023  -7.142  -4.942  0.00  0.00    +0.196 A 
ATOM     32  O   UNL     1      -5.798  -7.003  -4.410  0.00  0.00    -0.462 OA
ENDBRANCH  27  28
ENDBRANCH  24  26
ENDBRANCH  21  22
ENDBRANCH   1  21
TORSDOF 9
