REMARK  Name = ZINC08960132
REMARK  11 active torsions:
REMARK  status: ('A' for Active; 'I' for Inactive)
REMARK    1  A    between atoms: C_1  and  C_2
REMARK    2  A    between atoms: C_2  and  C_3
REMARK    3  A    between atoms: C_3  and  N_57
REMARK    4  A    between atoms: C_9  and  N_15
REMARK    5  A    between atoms: C_10  and  C_11
REMARK    6  A    between atoms: C_11  and  O_13
REMARK    7  A    between atoms: O_13  and  C_14
REMARK    8  A    between atoms: C_16  and  C_18
REMARK    9  A    between atoms: C_24  and  O_27
REMARK   10  A    between atoms: O_27  and  C_28
REMARK   11  A    between atoms: C_28  and  C_29
REMARK                            x       y       z     vdW  Elec       q    Type
REMARK                         _______ _______ _______ _____ _____    ______ ____
ROOT
ATOM      1  C   UNL     1       2.016   2.977  -3.634  0.00  0.00    -0.074 C 
ATOM      2  C   UNL     1       1.329   2.045  -2.631  0.00  0.00    +0.018 C 
ATOM      3  C   UNL     1       1.879   2.354  -1.243  0.00  0.00    -0.025 A 
ATOM      4  C   UNL     1       3.036   3.041  -1.109  0.00  0.00    -0.021 A 
ATOM      5  S   UNL     1       3.285   3.171   0.637  0.00  0.00    -0.079 S 
ATOM      6  C   UNL     1       1.872   2.330   1.185  0.00  0.00    +0.087 A 
ATOM      7  C   UNL     1       1.243   1.962   0.001  0.00  0.00    +0.091 A 
ATOM      8  C   UNL     1       3.894   3.562  -2.220  0.00  0.00    -0.035 C 
ATOM      9  N   UNL     1       3.481   2.879  -3.470  0.00  0.00    +0.383 N 
ATOM     10  H   UNL     1       3.746   1.889  -3.414  0.00  0.00    -0.081 HD
ENDROOT
BRANCH   6  11
ATOM     11  N   UNL     1       1.469   2.082   2.486  0.00  0.00    -0.273 N 
ATOM     12  C   UNL     1       2.216   2.522   3.518  0.00  0.00    +0.284 C 
ATOM     13  O   UNL     1       3.245   3.136   3.306  0.00  0.00    -0.266 OA
ATOM     14  H   UNL     1       0.649   1.593   2.655  0.00  0.00    +0.156 HD
BRANCH  12  15
ATOM     15  C   UNL     1       1.788   2.259   4.899  0.00  0.00    +0.191 A 
ATOM     16  C   UNL     1       2.458   2.652   6.013  0.00  0.00    +0.063 A 
ATOM     17  C   UNL     1       1.669   2.176   7.149  0.00  0.00    +0.025 A 
ATOM     18  C   UNL     1       1.815   2.255   8.537  0.00  0.00    +0.012 A 
ATOM     19  C   UNL     1       0.875   1.691   9.352  0.00  0.00    +0.004 A 
ATOM     20  C   UNL     1      -0.225   1.038   8.812  0.00  0.00    +0.049 A 
ATOM     21  C   UNL     1      -0.389   0.948   7.443  0.00  0.00    +0.163 A 
ATOM     22  C   UNL     1       0.559   1.518   6.593  0.00  0.00    +0.177 A 
ATOM     23  O   UNL     1       0.667   1.596   5.252  0.00  0.00    -0.447 OA
BRANCH  21  24
ATOM     24  O   UNL     1      -1.470   0.306   6.927  0.00  0.00    -0.489 OA
BRANCH  24  25
ATOM     25  C   UNL     1      -2.399  -0.253   7.858  0.00  0.00    +0.226 C 
ATOM     26  C   UNL     1      -3.541  -0.929   7.096  0.00  0.00    +0.048 C 
ENDBRANCH  24  25
ENDBRANCH  21  24
ENDBRANCH  12  15
ENDBRANCH   6  11
BRANCH   7  27
ATOM     27  C   UNL     1      -0.014   1.212   0.009  0.00  0.00    +0.342 C 
ATOM     28  O   UNL     1       0.002  -0.004   0.002  0.00  0.00    -0.245 OA
BRANCH  27  29
ATOM     29  O   UNL     1      -1.192   1.871   0.018  0.00  0.00    -0.464 OA
ATOM     30  C   UNL     1      -2.398   1.063   0.019  0.00  0.00    +0.280 C 
ENDBRANCH  27  29
ENDBRANCH   7  27
BRANCH   9  31
ATOM     31  C   UNL     1       4.162   3.494  -4.630  0.00  0.00    -0.079 C 
BRANCH  31  33
ATOM     32  C   UNL     1       6.369   4.243  -5.529  0.00  0.00    +0.002 C 
ATOM     33  C   UNL     1       5.654   3.630  -4.323  0.00  0.00    -0.022 C 
ENDBRANCH  31  33
ENDBRANCH   9  31
TORSDOF 8
