REMARK  Name = ZINC32926971
REMARK  6 active torsions:
REMARK  status: ('A' for Active; 'I' for Inactive)
REMARK    1  A    between atoms: C_1  and  S_2
REMARK    2  A    between atoms: S_2  and  N_5
REMARK    3  A    between atoms: N_5  and  C_6
REMARK    4  A    between atoms: C_6  and  C_7
REMARK    5  A    between atoms: C_21  and  C_23
REMARK    6  A    between atoms: C_23  and  N_24
REMARK                            x       y       z     vdW  Elec       q    Type
REMARK                         _______ _______ _______ _____ _____    ______ ____
ROOT
ATOM      1  C   UNL     1      -6.675   4.133   1.155  0.00  0.00    +0.090 C 
ATOM      2  C   UNL     1      -8.139   4.108   0.710  0.00  0.00    +0.024 C 
ATOM      3  C   UNL     1      -8.294   4.936  -0.568  0.00  0.00    +0.003 C 
ATOM      4  C   UNL     1      -7.809   6.365  -0.303  0.00  0.00    +0.019 C 
ATOM      5  C   UNL     1      -6.355   6.325   0.171  0.00  0.00    +0.107 C 
ATOM      6  N   UNL     1      -6.260   5.521   1.397  0.00  0.00    -0.310 N 
ATOM      7  C   UNL     1      -4.982   5.571   1.925  0.00  0.00    +0.134 A 
ATOM      8  C   UNL     1      -4.758   6.121   3.218  0.00  0.00    +0.051 A 
ATOM      9  C   UNL     1      -5.731   6.686   4.154  0.00  0.00    -0.025 A 
ATOM     10  C   UNL     1      -5.253   7.145   5.329  0.00  0.00    -0.004 A 
ATOM     11  S   UNL     1      -3.505   6.858   5.262  0.00  0.00    -0.073 S 
ATOM     12  C   UNL     1      -3.417   6.119   3.652  0.00  0.00    +0.114 A 
ATOM     13  N   UNL     1      -2.449   5.636   2.897  0.00  0.00    -0.227 NA
ATOM     14  C   UNL     1      -2.719   5.139   1.706  0.00  0.00    +0.116 A 
ATOM     15  N   UNL     1      -3.952   5.113   1.233  0.00  0.00    -0.219 NA
ATOM     16  C   UNL     1      -6.035   7.765   6.447  0.00  0.00    +0.043 C 
ATOM     17  C   UNL     1      -7.425   8.144   5.914  0.00  0.00    +0.005 C 
ATOM     18  C   UNL     1      -7.996   6.953   5.140  0.00  0.00    +0.005 C 
ATOM     19  C   UNL     1      -7.221   6.762   3.836  0.00  0.00    +0.037 C 
ENDROOT
BRANCH   1  20
ATOM     20  C   UNL     1      -6.520   3.323   2.443  0.00  0.00    +0.128 C 
BRANCH  20  21
ATOM     21  N   UNL     1      -6.801   1.911   2.169  0.00  0.00    -0.193 NA
ATOM     22  H   UNL     1      -7.464   1.634   1.336  0.00  0.00    +0.148 HD
BRANCH  21  24
ATOM     23  C   UNL     1      -7.264   1.110   4.761  0.00  0.00    +0.214 C 
ATOM     24  S   UNL     1      -6.329   0.748   3.249  0.00  0.00    +0.027 S 
ATOM     25  O   UNL     1      -6.773  -0.476   2.681  0.00  0.00    -0.158 OA
ATOM     26  O   UNL     1      -4.945   0.989   3.460  0.00  0.00    -0.158 OA
ENDBRANCH  21  24
ENDBRANCH  20  21
ENDBRANCH   1  20
BRANCH  14  27
ATOM     27  C   UNL     1      -1.595   4.594   0.863  0.00  0.00    -0.001 C 
BRANCH  27  28
ATOM     28  N   UNL     1      -1.500   3.140   1.054  0.00  0.00    +0.384 N 
ATOM     29  C   UNL     1      -0.666   2.526   0.013  0.00  0.00    -0.078 C 
ATOM     30  C   UNL     1      -0.708   1.003   0.157  0.00  0.00    -0.019 C 
ATOM     31  C   UNL     1      -0.194   0.612   1.545  0.00  0.00    -0.004 C 
ATOM     32  C   UNL     1      -1.048   1.303   2.612  0.00  0.00    -0.019 C 
ATOM     33  C   UNL     1      -0.998   2.817   2.396  0.00  0.00    -0.078 C 
ATOM     34  H   UNL     1      -2.512   2.719   0.965  0.00  0.00    -0.081 HD
ENDBRANCH  27  28
ENDBRANCH  14  27
TORSDOF 5
