REMARK  Name = ZINC35809704
REMARK  15 active torsions:
REMARK  status: ('A' for Active; 'I' for Inactive)
REMARK    1  A    between atoms: C_1  and  O_2
REMARK    2  A    between atoms: O_2  and  C_3
REMARK    3  A    between atoms: C_6  and  C_13
REMARK    4  A    between atoms: C_7  and  O_11
REMARK    5  A    between atoms: C_8  and  O_9
REMARK    6  A    between atoms: O_9  and  C_10
REMARK    7  A    between atoms: O_11  and  C_12
REMARK    8  A    between atoms: N_23  and  C_24
REMARK    9  A    between atoms: C_24  and  C_25
REMARK   10  A    between atoms: C_27  and  O_35
REMARK   11  A    between atoms: C_28  and  O_33
REMARK   12  A    between atoms: C_30  and  O_31
REMARK   13  A    between atoms: O_31  and  C_32
REMARK   14  A    between atoms: O_33  and  C_34
REMARK   15  A    between atoms: O_35  and  C_36
REMARK                            x       y       z     vdW  Elec       q    Type
REMARK                         _______ _______ _______ _____ _____    ______ ____
ROOT
ATOM      1  C   UNL     1      -5.038  -2.717  -0.087  0.00  0.00    +0.014 C 
ATOM      2  C   UNL     1      -5.288  -3.212   1.317  0.00  0.00    +0.010 A 
ATOM      3  C   UNL     1      -4.367  -3.718   2.159  0.00  0.00    +0.021 A 
ATOM      4  C   UNL     1      -5.031  -4.068   3.351  0.00  0.00    +0.019 A 
ATOM      5  C   UNL     1      -6.335  -3.759   3.193  0.00  0.00    +0.086 A 
ATOM      6  N   UNL     1      -6.498  -3.226   1.951  0.00  0.00    -0.352 N 
ATOM      7  C   UNL     1      -7.752  -2.728   1.374  0.00  0.00    +0.119 C 
ATOM      8  C   UNL     1      -7.892  -3.267  -0.052  0.00  0.00    +0.003 C 
ATOM      9  C   UNL     1      -7.212  -2.316  -1.030  0.00  0.00    -0.075 C 
ATOM     10  N   UNL     1      -6.034  -1.691  -0.425  0.00  0.00    +0.391 N 
ATOM     11  H   UNL     1      -6.309  -1.202   0.413  0.00  0.00    -0.080 HD
ENDROOT
BRANCH   1  15
ATOM     12  C   UNL     1      -1.114  -1.025  -0.321  0.00  0.00    +0.165 A 
ATOM     13  C   UNL     1      -2.080  -0.440   0.484  0.00  0.00    +0.050 A 
ATOM     14  C   UNL     1      -3.346  -0.989   0.557  0.00  0.00    +0.010 A 
ATOM     15  C   UNL     1      -3.655  -2.122  -0.171  0.00  0.00    -0.010 A 
ATOM     16  C   UNL     1      -2.696  -2.713  -0.978  0.00  0.00    +0.167 A 
ATOM     17  C   UNL     1      -1.423  -2.161  -1.060  0.00  0.00    +0.204 A 
BRANCH  12  19
ATOM     18  C   UNL     1       0.379   0.683   0.394  0.00  0.00    +0.277 C 
ATOM     19  O   UNL     1       0.132  -0.484  -0.392  0.00  0.00    -0.491 OA
ENDBRANCH  12  19
BRANCH  17  20
ATOM     20  O   UNL     1      -0.479  -2.735  -1.855  0.00  0.00    -0.488 OA
ATOM     21  C   UNL     1       0.344  -3.741  -1.263  0.00  0.00    +0.277 C 
ENDBRANCH  17  20
BRANCH  16  22
ATOM     22  O   UNL     1      -3.001  -3.829  -1.694  0.00  0.00    -0.491 OA
ATOM     23  C   UNL     1      -3.519  -3.633  -3.011  0.00  0.00    +0.277 C 
ENDBRANCH  16  22
ENDBRANCH   1  15
BRANCH  10  24
ATOM     24  C   UNL     1      -5.447  -0.736  -1.374  0.00  0.00    -0.038 C 
BRANCH  24  25
ATOM     25  C   UNL     1      -6.440   0.361  -1.662  0.00  0.00    -0.019 A 
ATOM     26  C   UNL     1      -7.196   0.322  -2.819  0.00  0.00    +0.054 A 
ATOM     27  C   UNL     1      -8.109   1.329  -3.085  0.00  0.00    +0.162 A 
ATOM     28  C   UNL     1      -8.266   2.380  -2.187  0.00  0.00    +0.165 A 
ATOM     29  C   UNL     1      -7.509   2.417  -1.028  0.00  0.00    +0.095 A 
ATOM     30  C   UNL     1      -6.599   1.404  -0.762  0.00  0.00    +0.125 A 
BRANCH  30  31
ATOM     31  O   UNL     1      -5.859   1.437   0.378  0.00  0.00    -0.495 OA
ATOM     32  C   UNL     1      -6.074   2.541   1.259  0.00  0.00    +0.277 C 
ENDBRANCH  30  31
BRANCH  28  33
ATOM     33  O   UNL     1      -9.162   3.369  -2.446  0.00  0.00    -0.491 OA
ATOM     34  C   UNL     1      -9.271   4.416  -1.480  0.00  0.00    +0.277 C 
ENDBRANCH  28  33
BRANCH  27  35
ATOM     35  O   UNL     1      -8.852   1.290  -4.225  0.00  0.00    -0.491 OA
ATOM     36  C   UNL     1      -8.638   0.182  -5.101  0.00  0.00    +0.277 C 
ENDBRANCH  27  35
ENDBRANCH  24  25
ENDBRANCH  10  24
TORSDOF 9
