REMARK  Name = ZINC17878224
REMARK  3 active torsions:
REMARK  status: ('A' for Active; 'I' for Inactive)
REMARK    1  A    between atoms: C_1  and  C_2
REMARK    2  A    between atoms: C_8  and  C_12
REMARK    3  A    between atoms: C_8  and  O_20
REMARK                            x       y       z     vdW  Elec       q    Type
REMARK                         _______ _______ _______ _____ _____    ______ ____
ROOT
ATOM      1  C   UNL     1      -0.018   1.503   0.010  0.00  0.00    +0.044 C 
ATOM      2  C   UNL     1       0.002  -0.004   0.002  0.00  0.00    -0.050 A 
ATOM      3  C   UNL     1       0.006  -0.691  -1.198  0.00  0.00    +0.005 A 
ATOM      4  C   UNL     1       0.025  -2.070  -1.213  0.00  0.00    +0.024 A 
ATOM      5  C   UNL     1       0.040  -2.782  -0.015  0.00  0.00    +0.040 A 
ATOM      6  C   UNL     1       0.037  -2.081   1.184  0.00  0.00    +0.016 A 
ATOM      7  C   UNL     1       0.023  -0.704   1.196  0.00  0.00    +0.012 A 
ATOM      8  C   UNL     1       0.056  -3.118   2.283  0.00  0.00    +0.189 C 
ATOM      9  C   UNL     1       0.071  -4.439   1.543  0.00  0.00    +0.255 C 
ATOM     10  O   UNL     1       0.088  -5.544   2.042  0.00  0.00    -0.272 OA
ATOM     11  N   UNL     1       0.060  -4.156   0.229  0.00  0.00    -0.282 N 
ATOM     12  H   UNL     1       0.066  -4.829  -0.469  0.00  0.00    +0.155 HD
ENDROOT
BRANCH   8  13
ATOM     13  C   UNL     1       1.316  -2.969   3.138  0.00  0.00    +0.187 C 
ATOM     14  C   UNL     1       1.475  -4.137   4.105  0.00  0.00    +0.255 C 
ATOM     15  O   UNL     1       0.678  -4.395   4.986  0.00  0.00    -0.272 OA
ATOM     16  N   UNL     1       2.562  -4.833   3.885  0.00  0.00    -0.159 NA
ATOM     17  C   UNL     1       3.435  -4.564   2.932  0.00  0.00    +0.145 C 
ATOM     18  S   UNL     1       2.841  -3.204   2.135  0.00  0.00    -0.077 S 
ATOM     19  N   UNL     1       4.582  -5.247   2.651  0.00  0.00    -0.340 N 
ATOM     20  H   UNL     1       4.827  -6.022   3.181  0.00  0.00    +0.144 HD
ATOM     21  H   UNL     1       5.152  -4.957   1.923  0.00  0.00    +0.144 HD
ENDBRANCH   8  13
BRANCH   8  22
ATOM     22  O   UNL     1      -1.116  -3.011   3.094  0.00  0.00    -0.373 OA
ATOM     23  H   UNL     1      -1.943  -3.128   2.606  0.00  0.00    +0.211 HD
ENDBRANCH   8  22
TORSDOF 2
