REMARK  Name = ZINC38568377
REMARK  4 active torsions:
REMARK  status: ('A' for Active; 'I' for Inactive)
REMARK    1  A    between atoms: C_6  and  C_7
REMARK    2  A    between atoms: C_7  and  C_12
REMARK    3  A    between atoms: N_20  and  S_24
REMARK    4  A    between atoms: S_24  and  C_27
REMARK                            x       y       z     vdW  Elec       q    Type
REMARK                         _______ _______ _______ _____ _____    ______ ____
ROOT
ATOM      1  C   UNL     1      -2.782  -0.262   0.930  0.00  0.00    +0.226 C 
ATOM      2  O   UNL     1      -2.992  -1.215   1.651  0.00  0.00    -0.275 OA
ATOM      3  N   UNL     1      -3.028   0.986   1.375  0.00  0.00    -0.300 N 
ATOM      4  C   UNL     1      -2.880   2.142   0.480  0.00  0.00    +0.112 C 
ATOM      5  C   UNL     1      -4.184   2.946   0.494  0.00  0.00    +0.072 C 
ATOM      6  C   UNL     1      -4.543   3.304   1.937  0.00  0.00    +0.145 C 
ATOM      7  C   UNL     1      -4.747   2.030   2.757  0.00  0.00    +0.072 C 
ATOM      8  C   UNL     1      -3.454   1.217   2.762  0.00  0.00    +0.112 C 
ATOM      9  N   UNL     1      -3.464   4.108   2.530  0.00  0.00    -0.144 NA
ATOM     10  C   UNL     1      -4.067   5.414   2.877  0.00  0.00    +0.140 C 
ATOM     11  C   UNL     1      -5.319   5.464   1.964  0.00  0.00    +0.179 C 
ATOM     12  O   UNL     1      -5.750   4.083   1.952  0.00  0.00    -0.356 OA
ENDROOT
BRANCH   1  13
ATOM     13  C   UNL     1      -2.247  -0.474  -0.462  0.00  0.00    +0.072 C 
ATOM     14  C   UNL     1      -3.257   0.044  -1.501  0.00  0.00    +0.021 C 
ATOM     15  C   UNL     1      -3.656  -1.167  -2.369  0.00  0.00    +0.001 C 
ATOM     16  C   UNL     1      -3.370  -2.393  -1.467  0.00  0.00    +0.001 C 
ATOM     17  C   UNL     1      -2.068  -1.982  -0.736  0.00  0.00    +0.021 C 
BRANCH  13  23
ATOM     18  C   UNL     1      -0.216   0.632   0.494  0.00  0.00    +0.006 A 
ATOM     19  C   UNL     1       0.993   1.287   0.347  0.00  0.00    +0.020 A 
ATOM     20  C   UNL     1       1.488   1.549  -0.917  0.00  0.00    +0.041 A 
ATOM     21  C   UNL     1       0.774   1.155  -2.035  0.00  0.00    +0.020 A 
ATOM     22  C   UNL     1      -0.435   0.501  -1.887  0.00  0.00    +0.006 A 
ATOM     23  C   UNL     1      -0.929   0.240  -0.623  0.00  0.00    -0.032 A 
ATOM     24 CL   UNL     1       3.006   2.371  -1.102  0.00  0.00    -0.084 Cl
ENDBRANCH  13  23
ENDBRANCH   1  13
BRANCH   9  25
ATOM     25  S   UNL     1      -1.891   3.644   2.765  0.00  0.00    +0.063 S 
ATOM     26  O   UNL     1      -1.575   3.950   4.116  0.00  0.00    -0.153 OA
ATOM     27  O   UNL     1      -1.770   2.333   2.232  0.00  0.00    -0.153 OA
BRANCH  25  28
ATOM     28  C   UNL     1      -0.885   4.689   1.764  0.00  0.00    +0.106 A 
ATOM     29  C   UNL     1      -0.462   4.256   0.521  0.00  0.00    +0.030 A 
ATOM     30  C   UNL     1       0.327   5.075  -0.265  0.00  0.00    +0.022 A 
ATOM     31  C   UNL     1       0.693   6.328   0.193  0.00  0.00    +0.041 A 
ATOM     32  C   UNL     1       0.269   6.761   1.437  0.00  0.00    +0.022 A 
ATOM     33  C   UNL     1      -0.525   5.943   2.219  0.00  0.00    +0.030 A 
ATOM     34 CL   UNL     1       1.684   7.357  -0.793  0.00  0.00    -0.084 Cl
ENDBRANCH  25  28
ENDBRANCH   9  25
TORSDOF 4
