REMARK  Name = ZINC40282936
REMARK  8 active torsions:
REMARK  status: ('A' for Active; 'I' for Inactive)
REMARK    1  A    between atoms: C_6  and  C_7
REMARK    2  A    between atoms: C_7  and  O_33
REMARK    3  A    between atoms: C_13  and  C_15
REMARK    4  A    between atoms: C_18  and  C_20
REMARK    5  A    between atoms: C_20  and  O_21
REMARK    6  A    between atoms: O_21  and  C_22
REMARK    7  A    between atoms: C_25  and  O_28
REMARK    8  A    between atoms: O_28  and  C_29
REMARK                            x       y       z     vdW  Elec       q    Type
REMARK                         _______ _______ _______ _____ _____    ______ ____
ROOT
ATOM      1  C   UNL     1      -3.193  -5.400   0.277  0.00  0.00    +0.190 A 
ATOM      2  C   UNL     1      -3.585  -6.661   0.627  0.00  0.00    +0.055 A 
ATOM      3  C   UNL     1      -3.380  -7.474  -0.499  0.00  0.00    +0.049 A 
ATOM      4  C   UNL     1      -2.879  -6.683  -1.474  0.00  0.00    +0.143 A 
ATOM      5  O   UNL     1      -2.773  -5.434  -1.004  0.00  0.00    -0.452 OA
ENDROOT
BRANCH   1  12
ATOM      6  C   UNL     1      -2.523  -0.576  -0.627  0.00  0.00    +0.094 C 
ATOM      7  C   UNL     1      -2.511  -1.889  -1.414  0.00  0.00    +0.058 C 
ATOM      8  C   UNL     1      -1.927  -3.000  -0.536  0.00  0.00    +0.111 C 
ATOM      9  N   UNL     1      -2.684  -3.058   0.721  0.00  0.00    -0.295 N 
ATOM     10  C   UNL     1      -2.834  -1.829   1.512  0.00  0.00    +0.111 C 
ATOM     11  C   UNL     1      -3.409  -0.730   0.612  0.00  0.00    +0.058 C 
ATOM     12  C   UNL     1      -3.230  -4.216   1.141  0.00  0.00    +0.282 C 
ATOM     13  O   UNL     1      -3.754  -4.279   2.238  0.00  0.00    -0.267 OA
BRANCH   6  19
ATOM     14  C   UNL     1      -2.208   1.272  -2.284  0.00  0.00    +0.008 A 
ATOM     15  C   UNL     1      -2.706   2.284  -3.084  0.00  0.00    +0.020 A 
ATOM     16  C   UNL     1      -4.063   2.550  -3.098  0.00  0.00    +0.041 A 
ATOM     17  C   UNL     1      -4.922   1.803  -2.311  0.00  0.00    +0.020 A 
ATOM     18  C   UNL     1      -4.423   0.792  -1.512  0.00  0.00    +0.008 A 
ATOM     19  C   UNL     1      -3.067   0.527  -1.498  0.00  0.00    -0.016 A 
ATOM     20 CL   UNL     1      -4.689   3.820  -4.102  0.00  0.00    -0.084 Cl
ENDBRANCH   6  19
BRANCH   6  21
ATOM     21  O   UNL     1      -1.192  -0.252  -0.223  0.00  0.00    -0.384 OA
ATOM     22  H   UNL     1      -0.574  -0.139  -0.958  0.00  0.00    +0.211 HD
ENDBRANCH   6  21
ENDBRANCH   1  12
BRANCH   4  23
ATOM     23  C   UNL     1      -2.505  -7.133  -2.863  0.00  0.00    +0.303 C 
BRANCH  23  24
ATOM     24  O   UNL     1      -3.637  -7.005  -3.726  0.00  0.00    -0.484 OA
BRANCH  24  25
ATOM     25  C   UNL     1      -3.469  -7.372  -5.024  0.00  0.00    +0.121 A 
ATOM     26  C   UNL     1      -2.240  -7.850  -5.456  0.00  0.00    +0.049 A 
ATOM     27  C   UNL     1      -2.069  -8.223  -6.775  0.00  0.00    +0.049 A 
ATOM     28  C   UNL     1      -3.125  -8.119  -7.668  0.00  0.00    +0.130 A 
ATOM     29  C   UNL     1      -4.354  -7.642  -7.236  0.00  0.00    +0.049 A 
ATOM     30  C   UNL     1      -4.526  -7.274  -5.916  0.00  0.00    +0.049 A 
BRANCH  28  31
ATOM     31  O   UNL     1      -2.956  -8.485  -8.966  0.00  0.00    -0.406 OA
BRANCH  31  32
ATOM     32  C   UNL     1      -4.087  -8.352  -9.830  0.00  0.00    +0.575 C 
ATOM     33  F   UNL     1      -4.491  -7.013  -9.866  0.00  0.00    -0.133 F 
ATOM     34  F   UNL     1      -3.740  -8.769 -11.120  0.00  0.00    -0.133 F 
ATOM     35  F   UNL     1      -5.136  -9.143  -9.350  0.00  0.00    -0.133 F 
ENDBRANCH  31  32
ENDBRANCH  28  31
ENDBRANCH  24  25
ENDBRANCH  23  24
ENDBRANCH   4  23
TORSDOF 8
