REMARK  Name = ZINC12570640
REMARK  7 active torsions:
REMARK  status: ('A' for Active; 'I' for Inactive)
REMARK    1  A    between atoms: C_1  and  C_2
REMARK    2  A    between atoms: C_2  and  C_31
REMARK    3  A    between atoms: C_4  and  N_64
REMARK    4  A    between atoms: C_9  and  C_10
REMARK    5  A    between atoms: C_9  and  N_64
REMARK    6  A    between atoms: N_18  and  C_21
REMARK    7  A    between atoms: C_21  and  C_22
REMARK                            x       y       z     vdW  Elec       q    Type
REMARK                         _______ _______ _______ _____ _____    ______ ____
ROOT
ATOM      1  C   UNL     1      -1.367  -4.612   0.442  0.00  0.00    +0.001 A 
ATOM      2  C   UNL     1      -1.697  -3.300   0.549  0.00  0.00    +0.017 A 
ATOM      3  C   UNL     1      -0.686  -2.295   0.222  0.00  0.00    +0.003 A 
ATOM      4  C   UNL     1      -0.971  -0.927   0.315  0.00  0.00    +0.059 A 
ATOM      5  C   UNL     1       0.002  -0.004   0.002  0.00  0.00    +0.167 A 
ATOM      6  C   UNL     1       1.272  -0.429  -0.409  0.00  0.00    +0.168 A 
ATOM      7  C   UNL     1       1.562  -1.778  -0.504  0.00  0.00    +0.076 A 
ATOM      8  C   UNL     1       0.591  -2.721  -0.191  0.00  0.00    +0.056 A 
ATOM      9  N   UNL     1       0.863  -4.072  -0.279  0.00  0.00    -0.308 N 
ATOM     10  C   UNL     1      -0.074  -4.987   0.024  0.00  0.00    +0.253 A 
ATOM     11  O   UNL     1       0.202  -6.171  -0.064  0.00  0.00    -0.267 OA
ATOM     12  O   UNL     1       2.038   0.673  -0.656  0.00  0.00    -0.453 OA
ATOM     13  C   UNL     1       1.366   1.765  -0.002  0.00  0.00    +0.466 C 
ATOM     14  O   UNL     1      -0.016   1.362   0.009  0.00  0.00    -0.453 OA
ENDROOT
BRANCH   1  15
ATOM     15  C   UNL     1      -2.386  -5.672   0.772  0.00  0.00    -0.041 C 
BRANCH  15  16
ATOM     16  N   UNL     1      -3.058  -6.099  -0.470  0.00  0.00    +0.384 N 
ATOM     17  H   UNL     1      -3.523  -5.290  -0.899  0.00  0.00    -0.085 HD
ATOM     18  H   UNL     1      -2.360  -6.477  -1.121  0.00  0.00    -0.085 HD
BRANCH  16  22
ATOM     19  C   UNL     1      -6.832  -8.024   0.332  0.00  0.00    +0.041 C 
ATOM     20  C   UNL     1      -6.133  -8.257  -1.009  0.00  0.00    +0.063 C 
ATOM     21  C   UNL     1      -5.137  -7.125  -1.269  0.00  0.00    +0.019 C 
ATOM     22  C   UNL     1      -4.063  -7.138  -0.177  0.00  0.00    -0.067 C 
ATOM     23  C   UNL     1      -3.388  -8.514  -0.157  0.00  0.00    +0.012 C 
ATOM     24  C   UNL     1      -4.452  -9.592   0.061  0.00  0.00    +0.159 C 
ATOM     25  O   UNL     1      -5.436  -9.504  -0.972  0.00  0.00    -0.374 OA
ATOM     26  C   UNL     1      -7.175  -8.288  -2.129  0.00  0.00    +0.041 C 
ENDBRANCH  16  22
ENDBRANCH  15  16
ENDBRANCH   1  15
BRANCH   9  27
ATOM     27  C   UNL     1       2.192  -4.514  -0.709  0.00  0.00    +0.129 C 
BRANCH  27  28
ATOM     28  C   UNL     1       3.099  -4.668   0.513  0.00  0.00    +0.009 C 
ATOM     29  C   UNL     1       3.318  -3.299   1.161  0.00  0.00    +0.005 C 
ATOM     30  C   UNL     1       4.225  -3.453   2.384  0.00  0.00    +0.000 C 
ATOM     31  C   UNL     1       5.573  -4.033   1.949  0.00  0.00    +0.000 C 
ATOM     32  C   UNL     1       5.354  -5.401   1.301  0.00  0.00    +0.000 C 
ATOM     33  C   UNL     1       4.446  -5.248   0.079  0.00  0.00    +0.005 C 
ENDBRANCH  27  28
ENDBRANCH   9  27
TORSDOF 5
