REMARK  Name = ZINC08718784
REMARK  10 active torsions:
REMARK  status: ('A' for Active; 'I' for Inactive)
REMARK    1  A    between atoms: C_1  and  C_2
REMARK    2  A    between atoms: C_2  and  C_3
REMARK    3  A    between atoms: N_11  and  C_15
REMARK    4  A    between atoms: C_15  and  C_16
REMARK    5  A    between atoms: N_18  and  C_19
REMARK    6  A    between atoms: C_22  and  C_25
REMARK    7  A    between atoms: N_27  and  C_28
REMARK    8  A    between atoms: C_31  and  O_34
REMARK    9  A    between atoms: O_34  and  C_35
REMARK   10  A    between atoms: C_35  and  C_36
REMARK                            x       y       z     vdW  Elec       q    Type
REMARK                         _______ _______ _______ _____ _____    ______ ____
ROOT
ATOM      1  C   UNL     1      -6.189  -1.890  -0.278  0.00  0.00    +0.235 C 
ATOM      2  O   UNL     1      -6.175  -0.680  -0.200  0.00  0.00    -0.274 OA
ATOM      3  N   UNL     1      -5.034  -2.582  -0.214  0.00  0.00    -0.284 N 
ATOM      4  H   UNL     1      -5.050  -3.552  -0.209  0.00  0.00    +0.155 HD
ENDROOT
BRANCH   3   5
ATOM      5  C   UNL     1      -3.817  -1.904  -0.156  0.00  0.00    +0.033 A 
ATOM      6  C   UNL     1      -3.725  -0.701   0.536  0.00  0.00    +0.024 A 
ATOM      7  C   UNL     1      -2.525  -0.028   0.595  0.00  0.00    +0.015 A 
ATOM      8  C   UNL     1      -1.399  -0.556  -0.042  0.00  0.00    +0.037 A 
ATOM      9  C   UNL     1      -1.496  -1.762  -0.741  0.00  0.00    +0.015 A 
ATOM     10  C   UNL     1      -2.697  -2.432  -0.791  0.00  0.00    +0.024 A 
BRANCH   8  11
ATOM     11  C   UNL     1      -0.111   0.162   0.019  0.00  0.00    +0.248 C 
ATOM     12  O   UNL     1      -0.029   1.214   0.623  0.00  0.00    -0.270 OA
ATOM     13  N   UNL     1       0.975  -0.348  -0.596  0.00  0.00    -0.281 N 
ATOM     14  H   UNL     1       0.928  -1.221  -1.017  0.00  0.00    +0.155 HD
BRANCH  13  15
ATOM     15  C   UNL     1       2.171   0.379  -0.621  0.00  0.00    +0.034 A 
ATOM     16  C   UNL     1       3.003   0.310  -1.731  0.00  0.00    +0.027 A 
ATOM     17  C   UNL     1       4.180   1.031  -1.757  0.00  0.00    +0.047 A 
ATOM     18  C   UNL     1       4.538   1.816  -0.671  0.00  0.00    +0.121 A 
ATOM     19  C   UNL     1       3.710   1.882   0.440  0.00  0.00    +0.047 A 
ATOM     20  C   UNL     1       2.530   1.165   0.466  0.00  0.00    +0.027 A 
BRANCH  18  21
ATOM     21  O   UNL     1       5.699   2.522  -0.696  0.00  0.00    -0.492 OA
BRANCH  21  22
ATOM     22  C   UNL     1       6.503   2.408  -1.872  0.00  0.00    +0.225 C 
ATOM     23  C   UNL     1       7.760   3.267  -1.716  0.00  0.00    +0.048 C 
ENDBRANCH  21  22
ENDBRANCH  18  21
ENDBRANCH  13  15
ENDBRANCH   8  11
ENDBRANCH   3   5
BRANCH   1  24
ATOM     24  C   UNL     1      -7.497  -2.620  -0.445  0.00  0.00    +0.214 C 
BRANCH  24  33
ATOM     25  C   UNL     1     -11.109   1.013  -3.677  0.00  0.00    -0.011 C 
ATOM     26  C   UNL     1      -9.772   1.424  -3.055  0.00  0.00    +0.006 C 
ATOM     27  C   UNL     1      -9.854   1.282  -1.533  0.00  0.00    +0.035 C 
ATOM     28  C   UNL     1     -10.178  -0.164  -1.173  0.00  0.00    +0.113 C 
ATOM     29  C   UNL     1     -11.498  -0.593  -1.804  0.00  0.00    +0.035 C 
ATOM     30  C   UNL     1     -11.411  -0.445  -3.325  0.00  0.00    +0.006 C 
ATOM     31  C   UNL     1      -9.060  -1.080  -1.615  0.00  0.00    +0.247 C 
ATOM     32  O   UNL     1      -8.665  -1.263  -2.747  0.00  0.00    -0.273 OA
ATOM     33  N   UNL     1      -8.595  -1.651  -0.485  0.00  0.00    -0.215 N 
ATOM     34  C   UNL     1      -9.264  -1.227   0.594  0.00  0.00    +0.310 C 
ATOM     35  O   UNL     1      -9.031  -1.604   1.725  0.00  0.00    -0.252 OA
ATOM     36  N   UNL     1     -10.223  -0.334   0.284  0.00  0.00    -0.285 N 
ATOM     37  H   UNL     1     -10.828   0.107   0.902  0.00  0.00    +0.151 HD
BRANCH  25  39
ATOM     38  C   UNL     1     -12.404   0.875  -5.809  0.00  0.00    +0.004 C 
ATOM     39  C   UNL     1     -11.032   1.165  -5.197  0.00  0.00    -0.000 C 
ENDBRANCH  25  39
ENDBRANCH  24  33
ENDBRANCH   1  24
TORSDOF 8
