REMARK  Name = ZINC18244988
REMARK  9 active torsions:
REMARK  status: ('A' for Active; 'I' for Inactive)
REMARK    1  A    between atoms: C_1  and  C_2
REMARK    2  A    between atoms: C_6  and  N_9
REMARK    3  A    between atoms: C_7  and  C_8
REMARK    4  A    between atoms: C_10  and  C_12
REMARK    5  A    between atoms: C_12  and  O_13
REMARK    6  A    between atoms: O_13  and  C_14
REMARK    7  A    between atoms: C_14  and  C_16
REMARK    8  A    between atoms: C_20  and  N_22
REMARK    9  A    between atoms: C_29  and  C_36
REMARK                            x       y       z     vdW  Elec       q    Type
REMARK                         _______ _______ _______ _____ _____    ______ ____
ROOT
ATOM      1  C   UNL     1      -0.381  -8.579   4.284  0.00  0.00    +0.061 A 
ATOM      2  C   UNL     1      -0.359  -9.111   2.992  0.00  0.00    +0.015 A 
ATOM      3  C   UNL     1      -0.437 -10.475   2.807  0.00  0.00    +0.003 A 
ATOM      4  C   UNL     1      -0.538 -11.321   3.896  0.00  0.00    +0.024 A 
ATOM      5  C   UNL     1      -0.561 -10.803   5.184  0.00  0.00    +0.045 A 
ATOM      6  C   UNL     1      -0.477  -9.434   5.382  0.00  0.00    +0.039 A 
ENDROOT
BRANCH   5   7
ATOM      7  N   UNL     1      -0.664 -11.666   6.285  0.00  0.00    -0.210 N 
ATOM      8  C   UNL     1      -0.698 -11.231   7.574  0.00  0.00    +0.230 C 
ATOM      9  O   UNL     1      -0.861 -10.092   7.955  0.00  0.00    -0.275 OA
ATOM     10  C   UNL     1      -0.494 -12.444   8.423  0.00  0.00    +0.088 C 
ATOM     11  C   UNL     1      -1.171 -12.538   9.770  0.00  0.00    +0.014 C 
ATOM     12  C   UNL     1      -0.807 -13.915  10.354  0.00  0.00    +0.009 C 
ATOM     13  C   UNL     1      -1.199 -15.056   9.422  0.00  0.00    +0.020 C 
ATOM     14  C   UNL     1      -0.631 -14.859   8.002  0.00  0.00    +0.021 C 
ATOM     15  C   UNL     1      -1.149 -13.527   7.514  0.00  0.00    +0.088 C 
ATOM     16  C   UNL     1      -0.745 -13.019   6.168  0.00  0.00    +0.230 C 
ATOM     17  O   UNL     1      -0.530 -13.679   5.175  0.00  0.00    -0.275 OA
BRANCH  13  18
ATOM     18  C   UNL     1      -2.702 -15.130   9.341  0.00  0.00    -0.044 A 
ATOM     19  C   UNL     1      -3.309 -15.691   8.233  0.00  0.00    +0.004 A 
ATOM     20  C   UNL     1      -4.687 -15.758   8.160  0.00  0.00    +0.000 A 
ATOM     21  C   UNL     1      -5.460 -15.265   9.195  0.00  0.00    +0.000 A 
ATOM     22  C   UNL     1      -4.853 -14.705  10.303  0.00  0.00    +0.000 A 
ATOM     23  C   UNL     1      -3.474 -14.641  10.379  0.00  0.00    +0.004 A 
ENDBRANCH  13  18
ENDBRANCH   5   7
BRANCH   1  24
ATOM     24  C   UNL     1      -0.298  -7.118   4.486  0.00  0.00    +0.340 C 
ATOM     25  O   UNL     1      -0.313  -6.659   5.611  0.00  0.00    -0.245 OA
BRANCH  24  26
ATOM     26  O   UNL     1      -0.206  -6.295   3.424  0.00  0.00    -0.452 OA
BRANCH  26  27
ATOM     27  C   UNL     1      -0.129  -4.894   3.693  0.00  0.00    +0.328 C 
BRANCH  27  29
ATOM     28  N   UNL     1       0.051  -2.792   2.402  0.00  0.00    -0.282 N 
ATOM     29  C   UNL     1      -0.032  -4.137   2.393  0.00  0.00    +0.255 C 
ATOM     30  O   UNL     1      -0.029  -4.739   1.340  0.00  0.00    -0.272 OA
ATOM     31  H   UNL     1       0.130  -2.316   3.243  0.00  0.00    +0.155 HD
BRANCH  28  37
ATOM     32  C   UNL     1       1.205   1.243  -0.160  0.00  0.00    +0.044 C 
ATOM     33  C   UNL     1       0.576  -0.124  -0.073  0.00  0.00    -0.046 A 
ATOM     34  C   UNL     1      -0.028  -0.678  -1.187  0.00  0.00    +0.004 A 
ATOM     35  C   UNL     1      -0.606  -1.932  -1.113  0.00  0.00    +0.002 A 
ATOM     36  C   UNL     1      -0.581  -2.635   0.076  0.00  0.00    +0.023 A 
ATOM     37  C   UNL     1       0.025  -2.082   1.196  0.00  0.00    +0.037 A 
ATOM     38  C   UNL     1       0.609  -0.825   1.116  0.00  0.00    -0.026 A 
ATOM     39  C   UNL     1       1.273  -0.223   2.328  0.00  0.00    +0.046 C 
ENDBRANCH  28  37
ENDBRANCH  27  29
ENDBRANCH  26  27
ENDBRANCH  24  26
ENDBRANCH   1  24
TORSDOF 7
