REMARK  Name = ZINC39940649
REMARK  5 active torsions:
REMARK  status: ('A' for Active; 'I' for Inactive)
REMARK    1  A    between atoms: C_7  and  C_10
REMARK    2  A    between atoms: N_11  and  N_12
REMARK    3  A    between atoms: C_13  and  C_15
REMARK    4  A    between atoms: C_15  and  N_16
REMARK    5  A    between atoms: C_24  and  C_26
REMARK                            x       y       z     vdW  Elec       q    Type
REMARK                         _______ _______ _______ _____ _____    ______ ____
ROOT
ATOM      1  N   UNL     1       0.564  -9.126  -0.043  0.00  0.00    -0.296 N 
ATOM      2  C   UNL     1       0.981  -9.827  -1.183  0.00  0.00    +0.053 A 
ATOM      3  C   UNL     1       0.814  -9.536  -2.533  0.00  0.00    +0.025 A 
ATOM      4  C   UNL     1       1.321 -10.390  -3.494  0.00  0.00    +0.002 A 
ATOM      5  C   UNL     1       1.995 -11.537  -3.117  0.00  0.00    +0.002 A 
ATOM      6  C   UNL     1       2.166 -11.834  -1.779  0.00  0.00    +0.025 A 
ATOM      7  C   UNL     1       1.660 -10.981  -0.805  0.00  0.00    +0.050 A 
ATOM      8  N   UNL     1       1.706 -11.067   0.594  0.00  0.00    -0.319 N 
ATOM      9  C   UNL     1       1.016  -9.887   1.127  0.00  0.00    +0.216 C 
ATOM     10  H   UNL     1       2.121 -11.774   1.112  0.00  0.00    +0.148 HD
ENDROOT
BRANCH   9  11
ATOM     11  C   UNL     1      -0.167 -10.312   1.960  0.00  0.00    +0.164 A 
ATOM     12  C   UNL     1      -0.364 -10.015   3.376  0.00  0.00    +0.187 A 
ATOM     13  N   UNL     1      -1.497 -10.544   3.754  0.00  0.00    -0.034 NA
ATOM     14  O   UNL     1      -2.067 -11.188   2.628  0.00  0.00    -0.241 OA
ATOM     15  N   UNL     1      -1.184 -10.999   1.537  0.00  0.00    -0.048 NA
ATOM     16  N   UNL     1       0.507  -9.293   4.186  0.00  0.00    -0.339 N 
ATOM     17  H   UNL     1       1.289  -8.870   3.799  0.00  0.00    +0.144 HD
ATOM     18  H   UNL     1       0.332  -9.214   5.136  0.00  0.00    +0.144 HD
ENDBRANCH   9  11
BRANCH   1  19
ATOM     19  C   UNL     1      -0.181  -7.864  -0.024  0.00  0.00    +0.204 C 
BRANCH  19  21
ATOM     20  N   UNL     1       0.327  -5.443  -0.004  0.00  0.00    -0.206 N 
ATOM     21  C   UNL     1       0.788  -6.710  -0.021  0.00  0.00    +0.250 C 
ATOM     22  O   UNL     1       1.982  -6.920  -0.033  0.00  0.00    -0.272 OA
ATOM     23  H   UNL     1      -0.628  -5.275   0.006  0.00  0.00    +0.177 HD
BRANCH  20  25
ATOM     24  C   UNL     1       0.779  -3.140   0.016  0.00  0.00    +0.136 C 
ATOM     25  N   UNL     1       1.227  -4.370  -0.000  0.00  0.00    -0.188 NA
BRANCH  24  32
ATOM     26  C   UNL     1       0.145   1.349   0.068  0.00  0.00    +0.001 A 
ATOM     27  C   UNL     1       1.335   2.082   0.065  0.00  0.00    +0.002 A 
ATOM     28  C   UNL     1       2.547   1.478   0.049  0.00  0.00    +0.026 A 
ATOM     29  C   UNL     1       2.630   0.060   0.033  0.00  0.00    +0.043 A 
ATOM     30  N   UNL     1       3.665  -0.752   0.015  0.00  0.00    -0.380 N 
ATOM     31  C   UNL     1       3.192  -2.139   0.005  0.00  0.00    +0.150 C 
ATOM     32  C   UNL     1       1.681  -2.066   0.019  0.00  0.00    +0.000 C 
ATOM     33  C   UNL     1       1.372  -0.708   0.036  0.00  0.00    +0.004 A 
ATOM     34  C   UNL     1       0.145  -0.008   0.054  0.00  0.00    +0.010 A 
ATOM     35  H   UNL     1       4.595  -0.476   0.010  0.00  0.00    +0.160 HD
ENDBRANCH  24  32
ENDBRANCH  20  25
ENDBRANCH  19  21
ENDBRANCH   1  19
TORSDOF 5
