REMARK  Name = ZINC40741681
REMARK  9 active torsions:
REMARK  status: ('A' for Active; 'I' for Inactive)
REMARK    1  A    between atoms: C_1  and  C_2
REMARK    2  A    between atoms: C_2  and  O_3
REMARK    3  A    between atoms: O_3  and  C_4
REMARK    4  A    between atoms: C_6  and  C_21
REMARK    5  A    between atoms: C_9  and  O_10
REMARK    6  A    between atoms: O_10  and  C_11
REMARK    7  A    between atoms: C_11  and  C_12
REMARK    8  A    between atoms: C_21  and  N_22
REMARK    9  A    between atoms: N_22  and  C_23
REMARK                            x       y       z     vdW  Elec       q    Type
REMARK                         _______ _______ _______ _____ _____    ______ ____
ROOT
ATOM      1  C   UNL     1       0.802  -1.825   1.306  0.00  0.00    +0.163 A 
ATOM      2  C   UNL     1       0.260  -2.673   0.352  0.00  0.00    +0.051 A 
ATOM      3  C   UNL     1       0.371  -4.043   0.502  0.00  0.00    -0.060 A 
ATOM      4  C   UNL     1       1.022  -4.571   1.602  0.00  0.00    +0.021 A 
ATOM      5  C   UNL     1       1.565  -3.730   2.557  0.00  0.00    +0.063 A 
ATOM      6  C   UNL     1       1.462  -2.356   2.409  0.00  0.00    +0.176 A 
ATOM      7 BR   UNL     1       2.453  -4.456   4.061  0.00  0.00    -0.046 Br
ENDROOT
BRANCH   1   8
ATOM      8  O   UNL     1       0.693  -0.477   1.160  0.00  0.00    -0.489 OA
BRANCH   8  10
ATOM      9  C   UNL     1      -0.019   1.526   0.010  0.00  0.00    +0.048 C 
ATOM     10  C   UNL     1       0.002  -0.004   0.002  0.00  0.00    +0.226 C 
ENDBRANCH   8  10
ENDBRANCH   1   8
BRANCH   6  11
ATOM     11  O   UNL     1       2.000  -1.528   3.345  0.00  0.00    -0.483 OA
BRANCH  11  12
ATOM     12  C   UNL     1       1.161  -1.151   4.438  0.00  0.00    +0.264 C 
BRANCH  12  13
ATOM     13  C   UNL     1       1.922  -0.238   5.365  0.00  0.00    -0.009 A 
ATOM     14  C   UNL     1       2.658  -0.770   6.408  0.00  0.00    +0.008 A 
ATOM     15  C   UNL     1       3.356   0.065   7.259  0.00  0.00    +0.022 A 
ATOM     16  C   UNL     1       3.318   1.435   7.067  0.00  0.00    +0.059 A 
ATOM     17  C   UNL     1       2.582   1.968   6.023  0.00  0.00    +0.060 A 
ATOM     18  C   UNL     1       1.888   1.129   5.169  0.00  0.00    +0.028 A 
ATOM     19 CL   UNL     1       2.534   3.686   5.782  0.00  0.00    -0.082 Cl
ATOM     20 CL   UNL     1       4.195   2.485   8.137  0.00  0.00    -0.082 Cl
ENDBRANCH  12  13
ENDBRANCH  11  12
ENDBRANCH   6  11
BRANCH   3  21
ATOM     21  C   UNL     1      -0.219  -4.963  -0.535  0.00  0.00    -0.046 C 
BRANCH  21  22
ATOM     22  N   UNL     1       0.785  -5.241  -1.571  0.00  0.00    +0.384 N 
ATOM     23  H   UNL     1       1.066  -4.376  -2.008  0.00  0.00    -0.085 HD
ATOM     24  H   UNL     1       1.589  -5.681  -1.149  0.00  0.00    -0.085 HD
BRANCH  22  25
ATOM     25  C   UNL     1       0.210  -6.138  -2.582  0.00  0.00    -0.071 C 
ATOM     26  C   UNL     1      -0.101  -7.494  -1.944  0.00  0.00    -0.016 C 
ATOM     27  C   UNL     1      -1.044  -8.281  -2.855  0.00  0.00    -0.002 C 
ATOM     28  C   UNL     1      -2.151  -7.357  -3.366  0.00  0.00    -0.000 C 
ATOM     29  C   UNL     1      -1.994  -7.159  -4.876  0.00  0.00    -0.000 C 
ATOM     30  C   UNL     1      -0.839  -6.192  -5.145  0.00  0.00    -0.000 C 
ATOM     31  C   UNL     1       0.492  -6.917  -4.939  0.00  0.00    -0.002 C 
ATOM     32  C   UNL     1       1.211  -6.328  -3.723  0.00  0.00    -0.016 C 
ENDBRANCH  22  25
ENDBRANCH  21  22
ENDBRANCH   3  21
TORSDOF 8
