REMARK  Name = ZINC21962619
REMARK  4 active torsions:
REMARK  status: ('A' for Active; 'I' for Inactive)
REMARK    1  A    between atoms: C_1  and  C_2
REMARK    2  A    between atoms: C_5  and  C_7
REMARK    3  A    between atoms: N_9  and  C_10
REMARK    4  A    between atoms: C_14  and  C_15
REMARK                            x       y       z     vdW  Elec       q    Type
REMARK                         _______ _______ _______ _____ _____    ______ ____
ROOT
ATOM      1  C   UNL     1      -1.122  -2.094  -0.100  0.00  0.00    +0.221 C 
ATOM      2  O   UNL     1      -0.049  -2.659  -0.114  0.00  0.00    -0.275 OA
ATOM      3  N   UNL     1      -1.176  -0.752   0.010  0.00  0.00    -0.284 N 
ATOM      4  H   UNL     1      -2.148  -0.245   0.088  0.00  0.00    +0.155 HD
ENDROOT
BRANCH   3   5
ATOM      5  C   UNL     1       0.003  -0.006   0.023  0.00  0.00    +0.055 A 
ATOM      6  C   UNL     1       1.162  -0.494   0.590  0.00  0.00    +0.032 A 
ATOM      7  C   UNL     1       2.280   0.273   0.576  0.00  0.00    +0.048 A 
ATOM      8  S   UNL     1       1.767   1.719  -0.231  0.00  0.00    -0.088 S 
ATOM      9  C   UNL     1       0.067   1.271  -0.535  0.00  0.00    +0.121 A 
BRANCH   9  10
ATOM     10  C   UNL     1      -0.949   2.014  -1.180  0.00  0.00    +0.395 C 
ATOM     11  O   UNL     1      -2.064   1.541  -1.304  0.00  0.00    -0.240 OA
ATOM     12  O   UNL     1      -0.683   3.248  -1.657  0.00  0.00    -0.240 OA
ENDBRANCH   9  10
ENDBRANCH   3   5
BRANCH   1  16
ATOM     13  C   UNL     1      -0.859  -5.005  -0.333  0.00  0.00    +0.008 C 
ATOM     14  C   UNL     1      -2.269  -4.412  -0.327  0.00  0.00    -0.002 C 
ATOM     15  C   UNL     1      -2.768  -3.789   0.978  0.00  0.00    +0.017 C 
ATOM     16  C   UNL     1      -2.396  -2.893  -0.205  0.00  0.00    +0.078 C 
ENDBRANCH   1  16
TORSDOF 3
