REMARK  Name = ZINC28289094
REMARK  11 active torsions:
REMARK  status: ('A' for Active; 'I' for Inactive)
REMARK    1  A    between atoms: C_1  and  C_2
REMARK    2  A    between atoms: C_8  and  C_14
REMARK    3  A    between atoms: C_12  and  C_13
REMARK    4  A    between atoms: N_16  and  C_17
REMARK    5  A    between atoms: C_17  and  C_18
REMARK    6  A    between atoms: C_18  and  C_20
REMARK    7  A    between atoms: C_18  and  N_30
REMARK    8  A    between atoms: C_23  and  C_26
REMARK    9  A    between atoms: C_26  and  C_27
REMARK   10  A    between atoms: C_26  and  C_28
REMARK   11  A    between atoms: C_26  and  C_29
REMARK                            x       y       z     vdW  Elec       q    Type
REMARK                         _______ _______ _______ _____ _____    ______ ____
ROOT
ATOM      1  C   UNL     1      -1.192   3.653   0.062  0.00  0.00    +0.094 C 
ENDROOT
BRANCH   1   4
ATOM      2  C   UNL     1       0.746   3.775  -1.410  0.00  0.00    +0.279 C 
ATOM      3  O   UNL     1       1.395   3.205  -0.555  0.00  0.00    -0.267 OA
ATOM      4  N   UNL     1      -0.556   4.048  -1.198  0.00  0.00    -0.310 N 
ATOM      5  H   UNL     1      -1.142   4.568  -1.970  0.00  0.00    +0.149 HD
BRANCH   2  13
ATOM      6  C   UNL     1       2.715   6.491  -8.575  0.00  0.00    +0.044 C 
ATOM      7  C   UNL     1       2.172   6.036  -7.245  0.00  0.00    -0.047 A 
ATOM      8  C   UNL     1       2.999   5.396  -6.349  0.00  0.00    +0.019 A 
ATOM      9  C   UNL     1       2.489   4.978  -5.120  0.00  0.00    +0.064 A 
ATOM     10  C   UNL     1       3.341   4.289  -4.131  0.00  0.00    +0.193 A 
ATOM     11  O   UNL     1       4.517   4.061  -4.350  0.00  0.00    -0.287 OA
ATOM     12  C   UNL     1       2.702   3.897  -2.865  0.00  0.00    +0.103 A 
ATOM     13  C   UNL     1       1.389   4.175  -2.684  0.00  0.00    +0.193 A 
ATOM     14  O   UNL     1       0.649   4.803  -3.610  0.00  0.00    -0.450 OA
ATOM     15  C   UNL     1       1.141   5.207  -4.797  0.00  0.00    +0.140 A 
ATOM     16  C   UNL     1       0.324   5.854  -5.718  0.00  0.00    +0.050 A 
ATOM     17  C   UNL     1       0.840   6.263  -6.928  0.00  0.00    -0.044 A 
ATOM     18  C   UNL     1      -0.052   6.965  -7.920  0.00  0.00    +0.044 C 
ENDBRANCH   2  13
ENDBRANCH   1   4
BRANCH   1  19
ATOM     19  C   UNL     1      -2.624   4.191   0.102  0.00  0.00    -0.020 C 
BRANCH  19  20
ATOM     20  C   UNL     1      -2.593   5.697   0.139  0.00  0.00    -0.059 A 
ATOM     21  C   UNL     1      -2.355   6.355   1.331  0.00  0.00    +0.002 A 
ATOM     22  C   UNL     1      -2.322   7.736   1.364  0.00  0.00    +0.004 A 
ATOM     23  C   UNL     1      -2.537   8.461   0.207  0.00  0.00    -0.042 A 
ATOM     24  C   UNL     1      -2.780   7.804  -0.985  0.00  0.00    +0.004 A 
ATOM     25  C   UNL     1      -2.808   6.422  -1.019  0.00  0.00    +0.002 A 
BRANCH  23  26
ATOM     26  C   UNL     1      -2.506   9.967   0.244  0.00  0.00    -0.013 C 
ATOM     27  C   UNL     1      -3.859  10.516  -0.211  0.00  0.00    +0.015 C 
ATOM     28  C   UNL     1      -2.219  10.436   1.672  0.00  0.00    +0.015 C 
ATOM     29  C   UNL     1      -1.408  10.478  -0.691  0.00  0.00    +0.015 C 
ENDBRANCH  23  26
ENDBRANCH  19  20
BRANCH  19  30
ATOM     30  N   UNL     1      -3.304   3.686   1.302  0.00  0.00    +0.385 N 
ATOM     31  C   UNL     1      -4.699   4.189   1.375  0.00  0.00    -0.078 C 
ATOM     32  C   UNL     1      -5.388   3.187   2.334  0.00  0.00    -0.020 C 
ATOM     33  C   UNL     1      -4.739   1.838   1.949  0.00  0.00    -0.020 C 
ATOM     34  C   UNL     1      -3.409   2.211   1.270  0.00  0.00    -0.078 C 
ATOM     35  H   UNL     1      -2.700   4.028   2.155  0.00  0.00    -0.081 HD
ENDBRANCH  19  30
ENDBRANCH   1  19
TORSDOF 6
