REMARK  Name = ZINC24138069
REMARK  8 active torsions:
REMARK  status: ('A' for Active; 'I' for Inactive)
REMARK    1  A    between atoms: C_1  and  C_2
REMARK    2  A    between atoms: N_13  and  C_16
REMARK    3  A    between atoms: C_16  and  C_17
REMARK    4  A    between atoms: N_19  and  C_20
REMARK    5  A    between atoms: C_20  and  C_22
REMARK    6  A    between atoms: C_20  and  C_32
REMARK    7  A    between atoms: C_32  and  C_33
REMARK    8  A    between atoms: C_32  and  C_34
REMARK                            x       y       z     vdW  Elec       q    Type
REMARK                         _______ _______ _______ _____ _____    ______ ____
ROOT
ATOM      1  C   UNL     1      -5.643  -0.864   1.476  0.00  0.00    +0.233 C 
ATOM      2  O   UNL     1      -5.749  -2.048   1.237  0.00  0.00    -0.274 OA
ATOM      3  N   UNL     1      -4.647  -0.149   0.915  0.00  0.00    -0.307 N 
ATOM      4  H   UNL     1      -4.552   0.925   1.132  0.00  0.00    +0.149 HD
ENDROOT
BRANCH   1   5
ATOM      5  C   UNL     1      -6.626  -0.191   2.399  0.00  0.00    +0.222 C 
BRANCH   5  17
ATOM      6  C   UNL     1      -8.320  -6.382   9.013  0.00  0.00    +0.008 C 
ATOM      7  C   UNL     1      -8.120  -5.657   7.681  0.00  0.00    -0.009 C 
ATOM      8  C   UNL     1      -7.509  -4.276   7.935  0.00  0.00    +0.008 C 
ATOM      9  C   UNL     1      -7.074  -3.649   6.610  0.00  0.00    +0.037 C 
ATOM     10  C   UNL     1      -8.254  -3.678   5.641  0.00  0.00    -0.023 A 
ATOM     11  C   UNL     1      -9.297  -4.508   5.852  0.00  0.00    -0.004 A 
ATOM     12  S   UNL     1     -10.406  -4.202   4.502  0.00  0.00    -0.073 S 
ATOM     13  C   UNL     1      -9.460  -2.959   3.658  0.00  0.00    +0.116 A 
ATOM     14  C   UNL     1      -8.313  -2.824   4.456  0.00  0.00    +0.076 A 
ATOM     15  C   UNL     1      -7.351  -1.864   4.001  0.00  0.00    +0.263 A 
ATOM     16  O   UNL     1      -6.322  -1.674   4.626  0.00  0.00    -0.267 OA
ATOM     17  N   UNL     1      -7.603  -1.175   2.873  0.00  0.00    -0.290 N 
ATOM     18  C   UNL     1      -8.747  -1.369   2.167  0.00  0.00    +0.203 A 
ATOM     19  N   UNL     1      -9.640  -2.241   2.553  0.00  0.00    -0.230 NA
ATOM     20  C   UNL     1      -9.475  -5.475   6.982  0.00  0.00    +0.046 C 
ENDBRANCH   5  17
ENDBRANCH   1   5
BRANCH   3  21
ATOM     21  C   UNL     1      -3.692  -0.803   0.018  0.00  0.00    +0.106 C 
BRANCH  21  22
ATOM     22  C   UNL     1      -2.397  -0.033   0.016  0.00  0.00    -0.023 A 
ATOM     23  C   UNL     1      -2.415   1.349   0.025  0.00  0.00    +0.009 A 
ATOM     24  C   UNL     1      -1.229   2.059   0.019  0.00  0.00    +0.050 A 
ATOM     25  C   UNL     1      -0.017   1.385   0.010  0.00  0.00    +0.162 A 
ATOM     26  C   UNL     1       0.002  -0.004   0.002  0.00  0.00    +0.162 A 
ATOM     27  C   UNL     1      -1.192  -0.710   0.004  0.00  0.00    +0.055 A 
ATOM     28  O   UNL     1       1.181  -0.685  -0.007  0.00  0.00    -0.485 OA
ATOM     29  C   UNL     1       2.347   0.053  -0.387  0.00  0.00    +0.270 C 
ATOM     30  C   UNL     1       2.334   1.392   0.364  0.00  0.00    +0.270 C 
ATOM     31  O   UNL     1       1.143   2.098   0.002  0.00  0.00    -0.485 OA
ENDBRANCH  21  22
BRANCH  21  32
ATOM     32  C   UNL     1      -4.266  -0.838  -1.400  0.00  0.00    +0.008 C 
ATOM     33  C   UNL     1      -3.269  -1.521  -2.338  0.00  0.00    +0.009 C 
ATOM     34  C   UNL     1      -5.582  -1.620  -1.398  0.00  0.00    +0.009 C 
ENDBRANCH  21  32
ENDBRANCH   3  21
TORSDOF 5
