REMARK  Name = ZINC35071435
REMARK  12 active torsions:
REMARK  status: ('A' for Active; 'I' for Inactive)
REMARK    1  A    between atoms: C_1  and  C_2
REMARK    2  A    between atoms: C_2  and  C_3
REMARK    3  A    between atoms: C_3  and  C_5
REMARK    4  A    between atoms: C_3  and  N_24
REMARK    5  A    between atoms: N_15  and  C_16
REMARK    6  A    between atoms: C_21  and  C_22
REMARK    7  A    between atoms: N_24  and  C_25
REMARK    8  A    between atoms: C_25  and  C_26
REMARK    9  A    between atoms: C_26  and  N_27
REMARK   10  A    between atoms: N_27  and  C_28
REMARK   11  A    between atoms: N_27  and  C_29
REMARK   12  A    between atoms: C_30  and  C_32
REMARK                            x       y       z     vdW  Elec       q    Type
REMARK                         _______ _______ _______ _____ _____    ______ ____
ROOT
ATOM      1  C   UNL     1      -1.198  -1.154   0.394  0.00  0.00    +0.138 A 
ATOM      2  N   UNL     1      -0.582  -2.224  -0.007  0.00  0.00    -0.231 NA
ATOM      3  C   UNL     1      -1.171  -3.446   0.045  0.00  0.00    +0.078 A 
ATOM      4  C   UNL     1      -0.508  -4.597  -0.386  0.00  0.00    +0.028 A 
ATOM      5  C   UNL     1      -1.143  -5.816  -0.316  0.00  0.00    +0.002 A 
ATOM      6  C   UNL     1      -2.437  -5.917   0.179  0.00  0.00    +0.001 A 
ATOM      7  C   UNL     1      -3.112  -4.795   0.610  0.00  0.00    +0.015 A 
ATOM      8  C   UNL     1      -2.486  -3.552   0.547  0.00  0.00    +0.065 A 
ATOM      9  C   UNL     1      -3.157  -2.321   0.993  0.00  0.00    +0.266 A 
ATOM     10  O   UNL     1      -4.290  -2.344   1.436  0.00  0.00    -0.267 OA
ATOM     11  N   UNL     1      -2.463  -1.164   0.896  0.00  0.00    -0.263 N 
ENDROOT
BRANCH  11  12
ATOM     12  C   UNL     1      -3.054   0.037   1.312  0.00  0.00    +0.054 A 
ATOM     13  C   UNL     1      -3.867   0.750   0.441  0.00  0.00    +0.028 A 
ATOM     14  C   UNL     1      -4.448   1.933   0.853  0.00  0.00    +0.022 A 
ATOM     15  C   UNL     1      -4.220   2.408   2.132  0.00  0.00    +0.041 A 
ATOM     16  C   UNL     1      -3.410   1.700   3.002  0.00  0.00    +0.025 A 
ATOM     17  C   UNL     1      -2.832   0.513   2.597  0.00  0.00    -0.025 A 
ATOM     18  C   UNL     1      -1.954  -0.262   3.547  0.00  0.00    +0.046 C 
ATOM     19 CL   UNL     1      -4.952   3.896   2.647  0.00  0.00    -0.084 Cl
ENDBRANCH  11  12
BRANCH   1  20
ATOM     20  C   UNL     1      -0.474   0.164   0.304  0.00  0.00    +0.142 C 
BRANCH  20  21
ATOM     21  N   UNL     1      -1.034   0.955  -0.795  0.00  0.00    -0.293 N 
ATOM     22  C   UNL     1      -1.043   0.457  -2.047  0.00  0.00    +0.219 C 
ATOM     23  O   UNL     1      -0.648  -0.671  -2.254  0.00  0.00    -0.275 OA
BRANCH  22  24
ATOM     24  C   UNL     1      -1.544   1.301  -3.190  0.00  0.00    +0.075 C 
ATOM     25  C   UNL     1      -3.077   1.180  -3.305  0.00  0.00    +0.013 C 
ATOM     26  C   UNL     1      -3.346   1.195  -4.830  0.00  0.00    +0.001 C 
ATOM     27  C   UNL     1      -2.162   0.373  -5.395  0.00  0.00    +0.001 C 
ATOM     28  C   UNL     1      -0.961   0.788  -4.519  0.00  0.00    +0.013 C 
ENDBRANCH  22  24
BRANCH  21  29
ATOM     29  C   UNL     1      -1.584   2.287  -0.532  0.00  0.00    +0.090 C 
BRANCH  29  30
ATOM     30  C   UNL     1      -0.479   3.334  -0.685  0.00  0.00    -0.060 C 
BRANCH  30  31
ATOM     31  N   UNL     1      -1.031   4.670  -0.422  0.00  0.00    +0.377 N 
ATOM     32  C   UNL     1       0.052   5.662  -0.451  0.00  0.00    -0.097 C 
ATOM     33  C   UNL     1      -2.025   5.001  -1.452  0.00  0.00    -0.097 C 
ATOM     34  H   UNL     1      -1.471   4.680   0.485  0.00  0.00    -0.083 HD
ENDBRANCH  30  31
ENDBRANCH  29  30
ENDBRANCH  21  29
ENDBRANCH  20  21
BRANCH  20  36
ATOM     35  C   UNL     1       1.764   1.246   0.052  0.00  0.00    +0.006 C 
ATOM     36  C   UNL     1       1.013  -0.087   0.046  0.00  0.00    +0.027 C 
ENDBRANCH  20  36
ENDBRANCH   1  20
TORSDOF 8
