REMARK  Name = ZINC63374414
REMARK  8 active torsions:
REMARK  status: ('A' for Active; 'I' for Inactive)
REMARK    1  A    between atoms: C_1  and  C_2
REMARK    2  A    between atoms: C_2  and  C_3
REMARK    3  A    between atoms: C_2  and  C_4
REMARK    4  A    between atoms: C_4  and  C_5
REMARK    5  A    between atoms: C_5  and  C_7
REMARK    6  A    between atoms: C_5  and  N_17
REMARK    7  A    between atoms: N_9  and  C_10
REMARK    8  A    between atoms: C_20  and  C_36
REMARK                            x       y       z     vdW  Elec       q    Type
REMARK                         _______ _______ _______ _____ _____    ______ ____
ROOT
ATOM      1  N   UNL     1       2.572   1.141  -1.157  0.00  0.00    -0.212 N 
ATOM      2  C   UNL     1       3.083   1.792  -0.091  0.00  0.00    +0.249 C 
ATOM      3  O   UNL     1       3.404   1.312   0.975  0.00  0.00    -0.273 OA
ATOM      4  C   UNL     1       3.173   3.246  -0.503  0.00  0.00    +0.136 C 
ATOM      5  C   UNL     1       2.287   4.107   0.406  0.00  0.00    +0.139 C 
ATOM      6  C   UNL     1       1.995   5.388  -0.365  0.00  0.00    -0.034 C 
ATOM      7  C   UNL     1       2.422   6.389   0.398  0.00  0.00    -0.001 A 
ATOM      8  C   UNL     1       2.360   7.849   0.220  0.00  0.00    +0.010 A 
ATOM      9  C   UNL     1       2.914   8.597   1.210  0.00  0.00    +0.001 A 
ATOM     10  C   UNL     1       3.516   8.046   2.345  0.00  0.00    +0.002 A 
ATOM     11  C   UNL     1       3.613   6.716   2.593  0.00  0.00    +0.026 A 
ATOM     12  C   UNL     1       3.063   5.826   1.624  0.00  0.00    +0.043 A 
ATOM     13  N   UNL     1       3.003   4.515   1.617  0.00  0.00    -0.375 N 
ATOM     14  C   UNL     1       1.397   5.402  -1.751  0.00  0.00    +0.052 C 
ATOM     15  C   UNL     1       2.251   4.462  -2.625  0.00  0.00    +0.115 C 
ATOM     16  N   UNL     1       2.549   3.256  -1.845  0.00  0.00    -0.269 N 
ATOM     17  C   UNL     1       2.300   1.980  -2.165  0.00  0.00    +0.313 C 
ATOM     18  O   UNL     1       1.873   1.624  -3.246  0.00  0.00    -0.252 OA
ATOM     19  C   UNL     1       4.621   3.741  -0.539  0.00  0.00    +0.044 C 
ATOM     20  H   UNL     1       3.367   3.918   2.289  0.00  0.00    +0.160 HD
ENDROOT
BRANCH   1  21
ATOM     21  C   UNL     1       2.347  -0.305  -1.206  0.00  0.00    +0.172 C 
BRANCH  21  22
ATOM     22  C   UNL     1       3.242  -0.916  -2.254  0.00  0.00    +0.238 C 
ATOM     23  O   UNL     1       3.993  -0.213  -2.896  0.00  0.00    -0.273 OA
ATOM     24  N   UNL     1       3.207  -2.245  -2.478  0.00  0.00    -0.284 N 
ATOM     25  H   UNL     1       2.555  -2.797  -2.019  0.00  0.00    +0.155 HD
BRANCH  24  26
ATOM     26  C   UNL     1       4.113  -2.828  -3.373  0.00  0.00    +0.034 A 
ATOM     27  C   UNL     1       3.726  -3.917  -4.143  0.00  0.00    +0.026 A 
ATOM     28  C   UNL     1       4.621  -4.490  -5.025  0.00  0.00    +0.040 A 
ATOM     29  C   UNL     1       5.903  -3.981  -5.141  0.00  0.00    +0.124 A 
ATOM     30  C   UNL     1       6.291  -2.895  -4.374  0.00  0.00    +0.040 A 
ATOM     31  C   UNL     1       5.397  -2.315  -3.495  0.00  0.00    +0.026 A 
ATOM     32  F   UNL     1       6.777  -4.544  -6.003  0.00  0.00    -0.205 F 
ENDBRANCH  24  26
ENDBRANCH  21  22
BRANCH  21  33
ATOM     33  C   UNL     1       0.885  -0.583  -1.560  0.00  0.00    +0.035 C 
BRANCH  33  35
ATOM     34  C   UNL     1      -1.484  -0.204  -0.861  0.00  0.00    +0.007 C 
ATOM     35  C   UNL     1      -0.019  -0.047  -0.448  0.00  0.00    -0.015 C 
ATOM     36  C   UNL     1       0.235  -0.833   0.840  0.00  0.00    +0.007 C 
ENDBRANCH  33  35
ENDBRANCH  21  33
ENDBRANCH   1  21
TORSDOF 5
