REMARK  Name = ZINC00647774
REMARK  9 active torsions:
REMARK  status: ('A' for Active; 'I' for Inactive)
REMARK    1  A    between atoms: C_1  and  C_2
REMARK    2  A    between atoms: C_5  and  S_8
REMARK    3  A    between atoms: S_8  and  N_11
REMARK    4  A    between atoms: N_11  and  C_12
REMARK    5  A    between atoms: N_11  and  C_24
REMARK    6  A    between atoms: C_12  and  C_13
REMARK    7  A    between atoms: N_15  and  C_16
REMARK    8  A    between atoms: C_18  and  C_23
REMARK    9  A    between atoms: C_21  and  C_22
REMARK                            x       y       z     vdW  Elec       q    Type
REMARK                         _______ _______ _______ _____ _____    ______ ____
ROOT
ATOM      1  N   UNL     1      -1.204  -0.724   0.005  0.00  0.00    -0.193 N 
ENDROOT
BRANCH   1   2
ATOM      2  C   UNL     1      -0.040   0.049   0.018  0.00  0.00    +0.070 A 
ATOM      3  C   UNL     1       1.203  -0.562  -0.085  0.00  0.00    +0.026 A 
ATOM      4  C   UNL     1       2.352   0.204  -0.071  0.00  0.00    +0.002 A 
ATOM      5  C   UNL     1       2.266   1.580   0.044  0.00  0.00    +0.002 A 
ATOM      6  C   UNL     1       1.031   2.192   0.147  0.00  0.00    +0.022 A 
ATOM      7  C   UNL     1      -0.123   1.431   0.135  0.00  0.00    +0.064 A 
ATOM      8 CL   UNL     1      -1.674   2.202   0.257  0.00  0.00    -0.082 Cl
ENDBRANCH   1   2
BRANCH   1   9
ATOM      9  S   UNL     1      -2.006  -0.988  -1.420  0.00  0.00    +0.075 S 
ATOM     10  O   UNL     1      -3.354  -1.281  -1.079  0.00  0.00    -0.150 OA
ATOM     11  O   UNL     1      -1.655   0.081  -2.288  0.00  0.00    -0.150 OA
BRANCH   9  16
ATOM     12  C   UNL     1       0.286  -6.011  -3.854  0.00  0.00    +0.044 C 
ATOM     13  C   UNL     1      -0.286  -4.756  -3.246  0.00  0.00    -0.050 A 
ATOM     14  C   UNL     1      -1.365  -4.835  -2.385  0.00  0.00    +0.005 A 
ATOM     15  C   UNL     1      -1.891  -3.684  -1.828  0.00  0.00    +0.029 A 
ATOM     16  C   UNL     1      -1.336  -2.455  -2.130  0.00  0.00    +0.109 A 
ATOM     17  C   UNL     1      -0.261  -2.375  -2.995  0.00  0.00    +0.029 A 
ATOM     18  C   UNL     1       0.268  -3.526  -3.549  0.00  0.00    +0.005 A 
ENDBRANCH   9  16
ENDBRANCH   1   9
BRANCH   1  19
ATOM     19  C   UNL     1      -1.715  -1.301   1.251  0.00  0.00    +0.227 C 
BRANCH  19  20
ATOM     20  C   UNL     1      -0.982  -2.584   1.548  0.00  0.00    +0.236 C 
ATOM     21  O   UNL     1      -0.067  -2.939   0.835  0.00  0.00    -0.274 OA
ATOM     22  N   UNL     1      -1.343  -3.337   2.606  0.00  0.00    -0.284 N 
ATOM     23  H   UNL     1      -2.022  -3.016   3.220  0.00  0.00    +0.155 HD
BRANCH  22  24
ATOM     24  C   UNL     1      -0.740  -4.581   2.818  0.00  0.00    +0.037 A 
ATOM     25  C   UNL     1      -0.181  -5.274   1.752  0.00  0.00    +0.027 A 
ATOM     26  C   UNL     1       0.418  -6.500   1.965  0.00  0.00    -0.049 A 
ATOM     27  C   UNL     1       0.454  -7.042   3.237  0.00  0.00    +0.004 A 
ATOM     28  C   UNL     1      -0.105  -6.356   4.300  0.00  0.00    +0.005 A 
ATOM     29  C   UNL     1      -0.702  -5.128   4.094  0.00  0.00    -0.029 A 
ATOM     30  C   UNL     1      -1.311  -4.382   5.252  0.00  0.00    +0.045 C 
ATOM     31  C   UNL     1       1.029  -7.250   0.809  0.00  0.00    +0.044 C 
ENDBRANCH  22  24
ENDBRANCH  19  20
ENDBRANCH   1  19
TORSDOF 6
