REMARK  Name = ZINC40844569
REMARK  11 active torsions:
REMARK  status: ('A' for Active; 'I' for Inactive)
REMARK    1  A    between atoms: C_1  and  C_2
REMARK    2  A    between atoms: C_2  and  C_3
REMARK    3  A    between atoms: C_6  and  O_9
REMARK    4  A    between atoms: O_9  and  C_10
REMARK    5  A    between atoms: C_10  and  C_11
REMARK    6  A    between atoms: N_13  and  C_14
REMARK    7  A    between atoms: C_15  and  C_35
REMARK    8  A    between atoms: C_16  and  C_29
REMARK    9  A    between atoms: C_35  and  O_37
REMARK   10  A    between atoms: O_37  and  C_38
REMARK   11  A    between atoms: C_38  and  C_39
REMARK                            x       y       z     vdW  Elec       q    Type
REMARK                         _______ _______ _______ _____ _____    ______ ____
ROOT
ATOM      1  C   UNL     1       6.368  -3.307  -7.194  0.00  0.00    +0.204 C 
ATOM      2  C   UNL     1       7.709  -3.375  -7.384  0.00  0.00    +0.106 C 
ATOM      3  C   UNL     1       8.281  -3.748  -8.722  0.00  0.00    +0.095 C 
ATOM      4  C   UNL     1       7.228  -4.404  -9.575  0.00  0.00    +0.015 A 
ATOM      5  C   UNL     1       7.617  -5.149 -10.703  0.00  0.00    -0.010 A 
ATOM      6  C   UNL     1       8.973  -5.289 -11.047  0.00  0.00    +0.009 A 
ATOM      7  C   UNL     1       9.317  -6.015 -12.146  0.00  0.00    +0.001 A 
ATOM      8  C   UNL     1       8.344  -6.624 -12.937  0.00  0.00    +0.001 A 
ATOM      9  C   UNL     1       7.022  -6.510 -12.634  0.00  0.00    +0.008 A 
ATOM     10  C   UNL     1       6.629  -5.768 -11.507  0.00  0.00    -0.017 A 
ATOM     11  C   UNL     1       5.274  -5.627 -11.162  0.00  0.00    +0.012 A 
ATOM     12  C   UNL     1       4.930  -4.900 -10.067  0.00  0.00    +0.047 A 
ATOM     13  C   UNL     1       5.904  -4.284  -9.268  0.00  0.00    +0.135 A 
ATOM     14  O   UNL     1       5.503  -3.574  -8.185  0.00  0.00    -0.441 OA
ENDROOT
BRANCH   3  15
ATOM     15  C   UNL     1       8.779  -2.507  -9.417  0.00  0.00    -0.035 A 
ATOM     16  C   UNL     1       7.904  -1.474  -9.697  0.00  0.00    +0.004 A 
ATOM     17  C   UNL     1       8.361  -0.335 -10.334  0.00  0.00    +0.000 A 
ATOM     18  C   UNL     1       9.692  -0.229 -10.690  0.00  0.00    +0.000 A 
ATOM     19  C   UNL     1      10.567  -1.262 -10.409  0.00  0.00    +0.000 A 
ATOM     20  C   UNL     1      10.112  -2.399  -9.768  0.00  0.00    +0.004 A 
ENDBRANCH   3  15
BRANCH   1  23
ATOM     21  C   UNL     1       4.558  -2.787  -5.774  0.00  0.00    +0.257 C 
ATOM     22  O   UNL     1       3.795  -2.935  -6.704  0.00  0.00    -0.272 OA
ATOM     23  N   UNL     1       5.882  -2.961  -5.954  0.00  0.00    -0.253 N 
ATOM     24  H   UNL     1       6.492  -2.843  -5.210  0.00  0.00    +0.158 HD
BRANCH  21  25
ATOM     25  C   UNL     1       4.026  -2.409  -4.415  0.00  0.00    +0.325 C 
BRANCH  25  26
ATOM     26  O   UNL     1       2.603  -2.284  -4.479  0.00  0.00    -0.483 OA
BRANCH  26  30
ATOM     27  C   UNL     1       0.656  -1.256  -0.991  0.00  0.00    -0.047 A 
ATOM     28  C   UNL     1      -0.068  -1.461  -2.151  0.00  0.00    +0.007 A 
ATOM     29  C   UNL     1       0.582  -1.806  -3.320  0.00  0.00    +0.046 A 
ATOM     30  C   UNL     1       1.962  -1.944  -3.330  0.00  0.00    +0.121 A 
ATOM     31  C   UNL     1       2.686  -1.737  -2.165  0.00  0.00    +0.046 A 
ATOM     32  C   UNL     1       2.032  -1.388  -1.000  0.00  0.00    +0.007 A 
BRANCH  27  34
ATOM     33  C   UNL     1      -0.165   0.643   0.378  0.00  0.00    +0.009 C 
ATOM     34  C   UNL     1      -0.056  -0.880   0.284  0.00  0.00    +0.032 C 
ENDBRANCH  27  34
ENDBRANCH  26  30
ENDBRANCH  25  26
ENDBRANCH  21  25
ENDBRANCH   1  23
BRANCH   2  35
ATOM     35  C   UNL     1       8.575  -3.091  -6.314  0.00  0.00    +0.341 C 
ATOM     36  O   UNL     1       9.155  -3.997  -5.744  0.00  0.00    -0.245 OA
BRANCH  35  37
ATOM     37  O   UNL     1       8.764  -1.814  -5.919  0.00  0.00    -0.462 OA
BRANCH  37  38
ATOM     38  C   UNL     1       9.658  -1.599  -4.825  0.00  0.00    +0.229 C 
ATOM     39  C   UNL     1       9.744  -0.101  -4.524  0.00  0.00    +0.048 C 
ENDBRANCH  37  38
ENDBRANCH  35  37
ENDBRANCH   2  35
TORSDOF 9
