REMARK  Name = ZINC22278517
REMARK  14 active torsions:
REMARK  status: ('A' for Active; 'I' for Inactive)
REMARK    1  A    between atoms: C_1  and  C_2
REMARK    2  A    between atoms: C_4  and  C_34
REMARK    3  A    between atoms: C_6  and  N_8
REMARK    4  A    between atoms: C_9  and  C_11
REMARK    5  A    between atoms: C_11  and  N_12
REMARK    6  A    between atoms: N_12  and  C_13
REMARK    7  A    between atoms: N_12  and  S_21
REMARK    8  A    between atoms: C_15  and  C_20
REMARK    9  A    between atoms: C_17  and  C_19
REMARK   10  A    between atoms: S_21  and  C_24
REMARK   11  A    between atoms: C_27  and  O_32
REMARK   12  A    between atoms: C_28  and  O_30
REMARK   13  A    between atoms: O_30  and  C_31
REMARK   14  A    between atoms: O_32  and  C_33
REMARK                            x       y       z     vdW  Elec       q    Type
REMARK                         _______ _______ _______ _____ _____    ______ ____
ROOT
ATOM      1  N   UNL     1       1.156   2.107   0.053  0.00  0.00    -0.194 N 
ENDROOT
BRANCH   1   2
ATOM      2  C   UNL     1       2.192   2.854   0.618  0.00  0.00    +0.052 A 
ATOM      3  C   UNL     1       2.528   4.093   0.085  0.00  0.00    +0.028 A 
ATOM      4  C   UNL     1       3.550   4.831   0.650  0.00  0.00    -0.048 A 
ATOM      5  C   UNL     1       4.245   4.335   1.737  0.00  0.00    +0.006 A 
ATOM      6  C   UNL     1       3.916   3.100   2.267  0.00  0.00    -0.048 A 
ATOM      7  C   UNL     1       2.892   2.359   1.710  0.00  0.00    +0.028 A 
ATOM      8  C   UNL     1       4.676   2.563   3.452  0.00  0.00    +0.044 C 
ATOM      9  C   UNL     1       3.911   6.177   0.076  0.00  0.00    +0.044 C 
ENDBRANCH   1   2
BRANCH   1  10
ATOM     10  S   UNL     1      -0.384   2.715   0.027  0.00  0.00    +0.075 S 
ATOM     11  O   UNL     1      -0.481   3.623   1.115  0.00  0.00    -0.150 OA
ATOM     12  O   UNL     1      -1.257   1.602  -0.117  0.00  0.00    -0.150 OA
BRANCH  10  13
ATOM     13  C   UNL     1      -0.542   3.671  -1.444  0.00  0.00    +0.112 A 
ATOM     14  C   UNL     1      -0.359   5.041  -1.399  0.00  0.00    +0.032 A 
ATOM     15  C   UNL     1      -0.477   5.795  -2.552  0.00  0.00    +0.051 A 
ATOM     16  C   UNL     1      -0.789   5.180  -3.754  0.00  0.00    +0.162 A 
ATOM     17  C   UNL     1      -0.979   3.802  -3.798  0.00  0.00    +0.163 A 
ATOM     18  C   UNL     1      -0.854   3.051  -2.640  0.00  0.00    +0.078 A 
BRANCH  17  19
ATOM     19  O   UNL     1      -1.285   3.194  -4.975  0.00  0.00    -0.491 OA
ATOM     20  C   UNL     1      -1.465   1.777  -4.945  0.00  0.00    +0.277 C 
ENDBRANCH  17  19
BRANCH  16  21
ATOM     21  O   UNL     1      -0.911   5.922  -4.887  0.00  0.00    -0.491 OA
ATOM     22  C   UNL     1      -0.703   7.330  -4.767  0.00  0.00    +0.277 C 
ENDBRANCH  16  21
ENDBRANCH  10  13
ENDBRANCH   1  10
BRANCH   1  23
ATOM     23  C   UNL     1       1.433   0.786  -0.517  0.00  0.00    +0.227 C 
BRANCH  23  25
ATOM     24  N   UNL     1       2.218  -0.148  -2.668  0.00  0.00    -0.284 N 
ATOM     25  C   UNL     1       1.903   0.941  -1.940  0.00  0.00    +0.236 C 
ATOM     26  O   UNL     1       1.998   2.047  -2.430  0.00  0.00    -0.274 OA
ATOM     27  H   UNL     1       2.204  -1.144  -2.202  0.00  0.00    +0.155 HD
BRANCH  24  33
ATOM     28  C   UNL     1       2.129  -1.907  -7.259  0.00  0.00    +0.044 C 
ATOM     29  C   UNL     1       2.534  -0.850  -6.264  0.00  0.00    -0.048 A 
ATOM     30  C   UNL     1       3.248   0.257  -6.685  0.00  0.00    +0.006 A 
ATOM     31  C   UNL     1       3.622   1.229  -5.775  0.00  0.00    -0.048 A 
ATOM     32  C   UNL     1       3.282   1.098  -4.443  0.00  0.00    +0.026 A 
ATOM     33  C   UNL     1       2.564  -0.012  -4.017  0.00  0.00    +0.034 A 
ATOM     34  C   UNL     1       2.195  -0.989  -4.932  0.00  0.00    +0.026 A 
ATOM     35  C   UNL     1       4.401   2.434  -6.238  0.00  0.00    +0.044 C 
ENDBRANCH  24  33
ENDBRANCH  23  25
ENDBRANCH   1  23
TORSDOF 8
