REMARK  Name = ZINC13500637
REMARK  11 active torsions:
REMARK  status: ('A' for Active; 'I' for Inactive)
REMARK    1  A    between atoms: C_1  and  C_2
REMARK    2  A    between atoms: C_9  and  C_14
REMARK    3  A    between atoms: C_14  and  N_66
REMARK    4  A    between atoms: C_15  and  N_66
REMARK    5  A    between atoms: C_20  and  C_22
REMARK    6  A    between atoms: C_20  and  C_33
REMARK    7  A    between atoms: C_20  and  N_66
REMARK    8  A    between atoms: N_26  and  C_27
REMARK    9  A    between atoms: C_27  and  C_28
REMARK   10  A    between atoms: C_33  and  C_34
REMARK   11  A    between atoms: C_33  and  C_35
REMARK                            x       y       z     vdW  Elec       q    Type
REMARK                         _______ _______ _______ _____ _____    ______ ____
ROOT
ATOM      1  N   UNL     1       0.442   1.516   0.505  0.00  0.00    +0.391 N 
ATOM      2  H   UNL     1       0.307   2.058   1.367  0.00  0.00    -0.080 HD
ENDROOT
BRANCH   1   3
ATOM      3  C   UNL     1       0.317   0.077   0.819  0.00  0.00    -0.067 C 
ATOM      4  C   UNL     1       0.499  -0.785  -0.447  0.00  0.00    -0.015 C 
ATOM      5  C   UNL     1      -0.511  -1.946  -0.265  0.00  0.00    -0.002 C 
ATOM      6  C   UNL     1      -1.728  -1.242   0.387  0.00  0.00    -0.002 C 
ATOM      7  C   UNL     1      -1.098  -0.213   1.349  0.00  0.00    -0.015 C 
ENDBRANCH   1   3
BRANCH   1   8
ATOM      8  C   UNL     1      -0.590   1.910  -0.477  0.00  0.00    -0.036 C 
BRANCH   8  17
ATOM      9  C   UNL     1      -1.836  -2.960  -5.986  0.00  0.00    +0.044 C 
ATOM     10  C   UNL     1      -1.064  -1.805  -5.403  0.00  0.00    -0.050 A 
ATOM     11  C   UNL     1      -0.023  -1.238  -6.125  0.00  0.00    +0.005 A 
ATOM     12  C   UNL     1       0.697  -0.181  -5.612  0.00  0.00    +0.026 A 
ATOM     13  C   UNL     1       0.378   0.325  -4.356  0.00  0.00    +0.049 A 
ATOM     14  C   UNL     1      -0.679  -0.251  -3.626  0.00  0.00    -0.001 A 
ATOM     15  C   UNL     1      -1.395  -1.324  -4.168  0.00  0.00    +0.013 A 
ATOM     16  C   UNL     1      -1.007   0.289  -2.306  0.00  0.00    +0.017 A 
ATOM     17  C   UNL     1      -0.278   1.330  -1.833  0.00  0.00    +0.001 A 
ATOM     18  C   UNL     1       0.768   1.876  -2.607  0.00  0.00    +0.251 A 
ATOM     19  O   UNL     1       1.407   2.814  -2.165  0.00  0.00    -0.268 OA
ATOM     20  N   UNL     1       1.080   1.383  -3.818  0.00  0.00    -0.322 N 
ATOM     21  H   UNL     1       1.808   1.779  -4.322  0.00  0.00    +0.169 HD
ENDBRANCH   8  17
ENDBRANCH   1   8
BRANCH   1  22
ATOM     22  C   UNL     1       1.788   1.800  -0.035  0.00  0.00    +0.006 C 
BRANCH  22  23
ATOM     23  C   UNL     1       2.819   1.091   0.805  0.00  0.00    +0.139 A 
ATOM     24  N   UNL     1       2.958   1.171   2.106  0.00  0.00    -0.115 NA
ATOM     25  N   UNL     1       3.947   0.419   2.447  0.00  0.00    -0.023 NA
ATOM     26  N   UNL     1       4.447  -0.134   1.397  0.00  0.00    -0.044 NA
ATOM     27  N   UNL     1       3.778   0.256   0.364  0.00  0.00    -0.223 N 
BRANCH  27  28
ATOM     28  C   UNL     1       4.019  -0.137  -1.026  0.00  0.00    +0.221 C 
BRANCH  28  29
ATOM     29  C   UNL     1       5.127   0.707  -1.602  0.00  0.00    +0.126 A 
ATOM     30  C   UNL     1       6.433   0.386  -1.619  0.00  0.00    +0.046 A 
ATOM     31  C   UNL     1       7.109   1.454  -2.251  0.00  0.00    +0.041 A 
ATOM     32  C   UNL     1       6.177   2.368  -2.576  0.00  0.00    +0.195 A 
ATOM     33  O   UNL     1       4.978   1.910  -2.180  0.00  0.00    -0.466 OA
ENDBRANCH  28  29
ENDBRANCH  27  28
ENDBRANCH  22  23
BRANCH  22  34
ATOM     34  C   UNL     1       2.032   3.309   0.024  0.00  0.00    -0.024 C 
ATOM     35  C   UNL     1       2.021   3.770   1.483  0.00  0.00    +0.006 C 
ATOM     36  C   UNL     1       3.391   3.631  -0.602  0.00  0.00    +0.006 C 
ENDBRANCH  22  34
ENDBRANCH   1  22
TORSDOF 8
