REMARK  Name = ZINC15839325
REMARK  10 active torsions:
REMARK  status: ('A' for Active; 'I' for Inactive)
REMARK    1  A    between atoms: C_1  and  C_2
REMARK    2  A    between atoms: C_2  and  C_3
REMARK    3  A    between atoms: C_3  and  C_35
REMARK    4  A    between atoms: N_18  and  C_33
REMARK    5  A    between atoms: C_20  and  S_21
REMARK    6  A    between atoms: S_21  and  C_22
REMARK    7  A    between atoms: C_22  and  C_23
REMARK    8  A    between atoms: N_25  and  C_26
REMARK    9  A    between atoms: C_30  and  C_32
REMARK   10  A    between atoms: C_33  and  C_34
REMARK                            x       y       z     vdW  Elec       q    Type
REMARK                         _______ _______ _______ _____ _____    ______ ____
ROOT
ATOM      1  C   UNL     1       6.960  11.895   0.781  0.00  0.00    +0.004 C 
ATOM      2  C   UNL     1       7.574  12.990   1.651  0.00  0.00    +0.047 C 
ATOM      3  C   UNL     1       6.956  14.325   1.337  0.00  0.00    -0.037 A 
ATOM      4  C   UNL     1       7.719  15.475   1.381  0.00  0.00    +0.004 A 
ATOM      5  C   UNL     1       7.143  16.700   1.098  0.00  0.00    +0.000 A 
ATOM      6  C   UNL     1       5.802  16.784   0.768  0.00  0.00    +0.001 A 
ATOM      7  C   UNL     1       5.029  15.642   0.718  0.00  0.00    +0.010 A 
ATOM      8  C   UNL     1       5.604  14.407   1.001  0.00  0.00    +0.004 A 
ATOM      9  C   UNL     1       4.801  13.164   0.951  0.00  0.00    +0.084 A 
ATOM     10  C   UNL     1       5.460  11.942   0.852  0.00  0.00    +0.050 A 
ATOM     11  C   UNL     1       4.704  10.770   0.814  0.00  0.00    +0.266 A 
ATOM     12  O   UNL     1       5.249   9.680   0.731  0.00  0.00    -0.267 OA
ATOM     13  N   UNL     1       3.358  10.863   0.870  0.00  0.00    -0.222 N 
ATOM     14  C   UNL     1       2.757  12.084   0.961  0.00  0.00    +0.237 A 
ATOM     15  N   UNL     1       3.470  13.199   0.999  0.00  0.00    -0.211 NA
ATOM     16  N   UNL     1       1.414  11.868   0.996  0.00  0.00    -0.230 N 
ATOM     17  N   UNL     1       1.211  10.484   0.922  0.00  0.00    -0.143 NA
ATOM     18  C   UNL     1       2.372   9.901   0.853  0.00  0.00    +0.198 A 
ATOM     19  C   UNL     1       7.446  10.530   1.271  0.00  0.00    +0.016 C 
ENDROOT
BRANCH   1  21
ATOM     20  C   UNL     1       6.814  10.986  -1.541  0.00  0.00    +0.005 C 
ATOM     21  C   UNL     1       7.403  12.096  -0.669  0.00  0.00    +0.008 C 
ENDBRANCH   1  21
BRANCH  16  22
ATOM     22  C   UNL     1       0.372  12.894   1.090  0.00  0.00    +0.144 C 
ATOM     23  C   UNL     1      -0.041  13.332  -0.316  0.00  0.00    +0.029 C 
ENDBRANCH  16  22
BRANCH  18  24
ATOM     24  S   UNL     1       2.640   8.162   0.747  0.00  0.00    -0.076 S 
BRANCH  24  25
ATOM     25  C   UNL     1       0.927   7.578   0.777  0.00  0.00    +0.173 C 
BRANCH  25  26
ATOM     26  C   UNL     1       0.908   6.073   0.694  0.00  0.00    +0.227 C 
ATOM     27  O   UNL     1       1.951   5.457   0.622  0.00  0.00    -0.275 OA
ATOM     28  N   UNL     1      -0.266   5.413   0.700  0.00  0.00    -0.285 N 
ATOM     29  H   UNL     1      -1.101   5.907   0.681  0.00  0.00    +0.155 HD
BRANCH  28  30
ATOM     30  C   UNL     1      -0.282   4.014   0.734  0.00  0.00    +0.034 A 
ATOM     31  C   UNL     1       0.710   3.323   1.418  0.00  0.00    +0.023 A 
ATOM     32  C   UNL     1       0.692   1.943   1.449  0.00  0.00    +0.002 A 
ATOM     33  C   UNL     1      -0.313   1.248   0.800  0.00  0.00    +0.003 A 
ATOM     34  C   UNL     1      -1.299   1.933   0.115  0.00  0.00    -0.049 A 
ATOM     35  C   UNL     1      -1.290   3.314   0.085  0.00  0.00    +0.026 A 
ATOM     36  C   UNL     1      -2.389   1.172  -0.596  0.00  0.00    +0.044 C 
ENDBRANCH  28  30
ENDBRANCH  25  26
ENDBRANCH  24  25
ENDBRANCH  18  24
TORSDOF 6
