REMARK  Name = ZINC39936507
REMARK  8 active torsions:
REMARK  status: ('A' for Active; 'I' for Inactive)
REMARK    1  A    between atoms: C_1  and  C_2
REMARK    2  A    between atoms: C_5  and  N_8
REMARK    3  A    between atoms: C_12  and  S_13
REMARK    4  A    between atoms: S_13  and  C_14
REMARK    5  A    between atoms: C_14  and  C_15
REMARK    6  A    between atoms: C_15  and  C_17
REMARK    7  A    between atoms: C_18  and  C_30
REMARK    8  A    between atoms: C_20  and  C_23
REMARK                            x       y       z     vdW  Elec       q    Type
REMARK                         _______ _______ _______ _____ _____    ______ ____
ROOT
ATOM      1  N   UNL     1       0.059  -4.171  -0.024  0.00  0.00    -0.259 N 
ATOM      2  C   UNL     1      -0.938  -4.992   0.428  0.00  0.00    +0.225 A 
ATOM      3  N   UNL     1      -0.557  -6.231   0.242  0.00  0.00    -0.112 NA
ATOM      4  N   UNL     1       0.715  -6.212  -0.344  0.00  0.00    -0.120 NA
ATOM      5  C   UNL     1       1.070  -4.960  -0.503  0.00  0.00    +0.198 A 
ATOM      6  N   UNL     1      -2.142  -4.582   0.987  0.00  0.00    -0.299 N 
ATOM      7  C   UNL     1      -2.564  -3.188   1.187  0.00  0.00    +0.108 C 
ATOM      8  C   UNL     1      -3.953  -3.221   1.859  0.00  0.00    +0.020 C 
ATOM      9  C   UNL     1      -3.988  -4.627   2.515  0.00  0.00    +0.020 C 
ATOM     10  C   UNL     1      -3.211  -5.474   1.472  0.00  0.00    +0.108 C 
ENDROOT
BRANCH   1  15
ATOM     11  C   UNL     1       0.003   1.505   0.050  0.00  0.00    +0.044 C 
ATOM     12  C   UNL     1       0.018  -0.002   0.031  0.00  0.00    -0.050 A 
ATOM     13  C   UNL     1       0.024  -0.676  -1.177  0.00  0.00    +0.005 A 
ATOM     14  C   UNL     1       0.038  -2.057  -1.198  0.00  0.00    +0.026 A 
ATOM     15  C   UNL     1       0.045  -2.768  -0.006  0.00  0.00    +0.052 A 
ATOM     16  C   UNL     1       0.039  -2.089   1.205  0.00  0.00    +0.026 A 
ATOM     17  C   UNL     1       0.031  -0.708   1.220  0.00  0.00    +0.005 A 
ENDBRANCH   1  15
BRANCH   5  18
ATOM     18  S   UNL     1       2.583  -4.394  -1.207  0.00  0.00    -0.078 S 
BRANCH  18  19
ATOM     19  C   UNL     1       3.467  -5.919  -1.633  0.00  0.00    +0.156 C 
BRANCH  19  20
ATOM     20  C   UNL     1       4.796  -5.573  -2.252  0.00  0.00    +0.171 C 
ATOM     21  O   UNL     1       5.117  -4.409  -2.392  0.00  0.00    -0.291 OA
BRANCH  20  22
ATOM     22  C   UNL     1       5.665  -6.594  -2.666  0.00  0.00    +0.015 C 
ATOM     23  C   UNL     1       6.827  -6.421  -3.327  0.00  0.00    +0.017 C 
ATOM     24  N   UNL     1       7.471  -7.581  -3.606  0.00  0.00    -0.270 N 
ATOM     25  C   UNL     1       6.697  -8.720  -3.096  0.00  0.00    +0.083 C 
ATOM     26  C   UNL     1       5.458  -8.077  -2.443  0.00  0.00    +0.062 C 
ATOM     27  C   UNL     1       7.506  -9.495  -2.054  0.00  0.00    +0.029 C 
ATOM     28  C   UNL     1       8.682  -7.678  -4.275  0.00  0.00    +0.218 A 
ATOM     29  N   UNL     1       9.413  -6.647  -4.748  0.00  0.00    -0.247 N 
ATOM     30  H   UNL     1       9.196  -5.703  -4.686  0.00  0.00    +0.192 HD
ATOM     31  N   UNL     1      10.551  -7.211  -5.346  0.00  0.00    -0.160 NA
ATOM     32  C   UNL     1      10.452  -8.507  -5.209  0.00  0.00    +0.246 A 
ATOM     33  N   UNL     1       9.324  -8.791  -4.557  0.00  0.00    -0.201 NA
ATOM     34  C   UNL     1       7.360  -5.067  -3.717  0.00  0.00    +0.061 C 
ENDBRANCH  20  22
ENDBRANCH  19  20
ENDBRANCH  18  19
ENDBRANCH   5  18
TORSDOF 5
