REMARK  Name = ZINC54414095
REMARK  4 active torsions:
REMARK  status: ('A' for Active; 'I' for Inactive)
REMARK    1  A    between atoms: C_1  and  C_2
REMARK    2  A    between atoms: C_3  and  N_9
REMARK    3  A    between atoms: C_10  and  C_14
REMARK    4  A    between atoms: C_17  and  N_21
REMARK                            x       y       z     vdW  Elec       q    Type
REMARK                         _______ _______ _______ _____ _____    ______ ____
ROOT
ATOM      1  N   UNL     1      -0.517   0.181  -2.343  0.00  0.00    -0.192 N 
ATOM      2  C   UNL     1      -0.349  -0.310  -3.605  0.00  0.00    +0.187 A 
ATOM      3  N   UNL     1      -0.022   0.710  -4.372  0.00  0.00    -0.108 NA
ATOM      4  N   UNL     1       0.026   1.793  -3.684  0.00  0.00    -0.022 NA
ATOM      5  N   UNL     1      -0.267   1.561  -2.451  0.00  0.00    -0.039 NA
ENDROOT
BRANCH   1   8
ATOM      6  C   UNL     1       1.199   0.351  -0.079  0.00  0.00    +0.049 C 
ATOM      7  C   UNL     1      -0.060  -0.478  -0.064  0.00  0.00    +0.010 A 
ATOM      8  C   UNL     1      -0.869  -0.533  -1.190  0.00  0.00    +0.075 A 
ATOM      9  C   UNL     1      -2.028  -1.298  -1.173  0.00  0.00    +0.028 A 
ATOM     10  C   UNL     1      -2.373  -2.002  -0.035  0.00  0.00    +0.005 A 
ATOM     11  C   UNL     1      -1.567  -1.946   1.086  0.00  0.00    +0.039 A 
ATOM     12  C   UNL     1      -0.407  -1.188   1.071  0.00  0.00    +0.128 A 
ATOM     13  F   UNL     1       0.382  -1.140   2.167  0.00  0.00    -0.205 F 
ENDBRANCH   1   8
BRANCH   2  14
ATOM     14  C   UNL     1      -0.503  -1.717  -4.030  0.00  0.00    +0.024 A 
ATOM     15  C   UNL     1      -0.259  -2.752  -3.126  0.00  0.00    +0.013 A 
ATOM     16  C   UNL     1      -0.404  -4.063  -3.524  0.00  0.00    +0.026 A 
ATOM     17  C   UNL     1      -0.793  -4.357  -4.825  0.00  0.00    +0.060 A 
ATOM     18  C   UNL     1      -1.038  -3.328  -5.731  0.00  0.00    +0.145 A 
ATOM     19  C   UNL     1      -0.900  -2.014  -5.336  0.00  0.00    +0.052 A 
ATOM     20  F   UNL     1      -1.415  -3.617  -6.996  0.00  0.00    -0.204 F 
BRANCH  17  21
ATOM     21  N   UNL     1      -0.938  -5.687  -5.226  0.00  0.00    -0.356 N 
ATOM     22  H   UNL     1      -0.767  -6.404  -4.596  0.00  0.00    +0.142 HD
ATOM     23  H   UNL     1      -1.210  -5.893  -6.134  0.00  0.00    +0.142 HD
ENDBRANCH  17  21
ENDBRANCH   2  14
TORSDOF 3
