REMARK  Name = ZINC01434034
REMARK  9 active torsions:
REMARK  status: ('A' for Active; 'I' for Inactive)
REMARK    1  A    between atoms: C_1  and  C_2
REMARK    2  A    between atoms: C_5  and  N_8
REMARK    3  A    between atoms: N_8  and  C_9
REMARK    4  A    between atoms: C_9  and  C_10
REMARK    5  A    between atoms: N_12  and  N_13
REMARK    6  A    between atoms: C_14  and  C_15
REMARK    7  A    between atoms: C_20  and  O_21
REMARK    8  A    between atoms: O_21  and  C_22
REMARK    9  A    between atoms: C_22  and  C_24
REMARK                            x       y       z     vdW  Elec       q    Type
REMARK                         _______ _______ _______ _____ _____    ______ ____
ROOT
ATOM      1  N   UNL     1       0.126  -8.644   1.716  0.00  0.00    -0.188 NA
ATOM      2  C   UNL     1       0.142  -9.493   2.698  0.00  0.00    +0.142 C 
ENDROOT
BRANCH   2   3
ATOM      3  C   UNL     1       0.160 -10.940   2.421  0.00  0.00    +0.039 A 
ATOM      4  C   UNL     1       0.171 -11.857   3.475  0.00  0.00    +0.028 A 
ATOM      5  C   UNL     1       0.188 -13.210   3.209  0.00  0.00    +0.020 A 
ATOM      6  C   UNL     1       0.193 -13.665   1.900  0.00  0.00    +0.034 A 
ATOM      7  C   UNL     1       0.182 -12.767   0.848  0.00  0.00    +0.062 A 
ATOM      8  C   UNL     1       0.160 -11.404   1.099  0.00  0.00    +0.155 A 
ATOM      9 BR   UNL     1       0.189 -13.400  -0.933  0.00  0.00    -0.046 Br
ATOM     10 BR   UNL     1       0.204 -14.451   4.636  0.00  0.00    -0.050 Br
BRANCH   8  11
ATOM     11  O   UNL     1       0.143 -10.521   0.066  0.00  0.00    -0.418 OA
BRANCH  11  12
ATOM     12  C   UNL     1       1.327 -10.094  -0.421  0.00  0.00    +0.380 C 
ATOM     13  O   UNL     1       2.366 -10.500   0.064  0.00  0.00    -0.241 OA
BRANCH  12  14
ATOM     14  C   UNL     1       1.360  -9.143  -1.534  0.00  0.00    +0.212 A 
ATOM     15  C   UNL     1       2.484  -8.636  -2.123  0.00  0.00    +0.056 A 
ATOM     16  C   UNL     1       2.051  -7.769  -3.138  0.00  0.00    +0.042 A 
ATOM     17  C   UNL     1       0.699  -7.784  -3.124  0.00  0.00    +0.196 A 
ATOM     18  O   UNL     1       0.287  -8.617  -2.160  0.00  0.00    -0.456 OA
ENDBRANCH  12  14
ENDBRANCH  11  12
ENDBRANCH   8  11
ENDBRANCH   2   3
BRANCH   1  21
ATOM     19  C   UNL     1       0.092  -6.387   0.960  0.00  0.00    +0.249 C 
ATOM     20  O   UNL     1       0.092  -6.785  -0.186  0.00  0.00    -0.272 OA
ATOM     21  N   UNL     1       0.109  -7.268   1.980  0.00  0.00    -0.206 N 
ATOM     22  H   UNL     1       0.109  -6.950   2.896  0.00  0.00    +0.177 HD
BRANCH  19  23
ATOM     23  C   UNL     1       0.074  -4.907   1.244  0.00  0.00    +0.199 C 
BRANCH  23  24
ATOM     24  N   UNL     1       0.058  -4.167  -0.021  0.00  0.00    -0.335 N 
ATOM     25  H   UNL     1       0.060  -4.648  -0.864  0.00  0.00    +0.147 HD
BRANCH  24  30
ATOM     26  C   UNL     1      -0.018   1.503   0.010  0.00  0.00    +0.044 C 
ATOM     27  C   UNL     1       0.002  -0.004   0.002  0.00  0.00    -0.050 A 
ATOM     28  C   UNL     1       0.006  -0.687  -1.200  0.00  0.00    +0.005 A 
ATOM     29  C   UNL     1       0.024  -2.068  -1.212  0.00  0.00    +0.023 A 
ATOM     30  C   UNL     1       0.040  -2.771  -0.013  0.00  0.00    +0.028 A 
ATOM     31  C   UNL     1       0.036  -2.081   1.193  0.00  0.00    +0.023 A 
ATOM     32  C   UNL     1       0.023  -0.700   1.197  0.00  0.00    +0.005 A 
ENDBRANCH  24  30
ENDBRANCH  23  24
ENDBRANCH  19  23
ENDBRANCH   1  21
TORSDOF 8
