REMARK  Name = ZINC13499801
REMARK  10 active torsions:
REMARK  status: ('A' for Active; 'I' for Inactive)
REMARK    1  A    between atoms: C_1  and  C_2
REMARK    2  A    between atoms: C_2  and  C_3
REMARK    3  A    between atoms: C_11  and  C_15
REMARK    4  A    between atoms: C_18  and  S_21
REMARK    5  A    between atoms: S_21  and  C_22
REMARK    6  A    between atoms: C_22  and  C_23
REMARK    7  A    between atoms: N_25  and  C_26
REMARK    8  A    between atoms: C_31  and  O_32
REMARK    9  A    between atoms: O_32  and  C_33
REMARK   10  A    between atoms: C_33  and  C_34
REMARK                            x       y       z     vdW  Elec       q    Type
REMARK                         _______ _______ _______ _____ _____    ______ ____
ROOT
ATOM      1  C   UNL     1       0.301   4.173   0.056  0.00  0.00    +0.118 A 
ATOM      2  N   UNL     1       1.338   3.385   0.051  0.00  0.00    -0.226 NA
ATOM      3  C   UNL     1       1.226   2.060   0.056  0.00  0.00    +0.114 A 
ATOM      4  C   UNL     1      -0.018   1.412   0.068  0.00  0.00    +0.056 A 
ATOM      5  C   UNL     1       0.001  -0.006   0.072  0.00  0.00    -0.024 A 
ATOM      6  C   UNL     1       1.207  -0.618   0.064  0.00  0.00    -0.004 A 
ATOM      7  S   UNL     1       2.381   0.712   0.050  0.00  0.00    -0.073 S 
ATOM      8  C   UNL     1       1.483  -2.089   0.065  0.00  0.00    +0.046 C 
ATOM      9  C   UNL     1       0.190  -2.823   0.449  0.00  0.00    -0.009 C 
ATOM     10  C   UNL     1      -0.963  -2.251  -0.381  0.00  0.00    +0.008 C 
ATOM     11  C   UNL     1      -1.285  -0.830   0.084  0.00  0.00    +0.037 C 
ATOM     12  C   UNL     1       0.343  -4.318   0.159  0.00  0.00    +0.008 C 
ATOM     13  C   UNL     1      -1.190   2.316   0.070  0.00  0.00    +0.173 A 
ATOM     14  N   UNL     1      -0.970   3.676   0.068  0.00  0.00    -0.257 N 
ATOM     15  C   UNL     1      -2.213   4.245   0.075  0.00  0.00    +0.198 A 
ATOM     16  N   UNL     1      -3.089   3.266   0.087  0.00  0.00    -0.122 NA
ATOM     17  N   UNL     1      -2.486   2.127   0.087  0.00  0.00    -0.128 NA
ENDROOT
BRANCH   1  19
ATOM     18  C   UNL     1       0.568   6.166  -1.395  0.00  0.00    +0.012 C 
ATOM     19  C   UNL     1       0.509   5.666   0.050  0.00  0.00    +0.071 C 
ENDBRANCH   1  19
BRANCH  15  20
ATOM     20  S   UNL     1      -2.574   5.970   0.070  0.00  0.00    -0.076 S 
BRANCH  20  21
ATOM     21  C   UNL     1      -4.386   6.039   0.085  0.00  0.00    +0.173 C 
BRANCH  21  22
ATOM     22  C   UNL     1      -4.834   7.478   0.081  0.00  0.00    +0.228 C 
ATOM     23  O   UNL     1      -4.011   8.369   0.070  0.00  0.00    -0.275 OA
ATOM     24  N   UNL     1      -6.149   7.775   0.091  0.00  0.00    -0.282 N 
ATOM     25  H   UNL     1      -6.806   7.066   0.018  0.00  0.00    +0.155 HD
BRANCH  24  26
ATOM     26  C   UNL     1      -6.565   9.108   0.205  0.00  0.00    +0.076 A 
ATOM     27  C   UNL     1      -5.738  10.046   0.805  0.00  0.00    +0.027 A 
ATOM     28  C   UNL     1      -6.149  11.361   0.912  0.00  0.00    +0.002 A 
ATOM     29  C   UNL     1      -7.388  11.743   0.431  0.00  0.00    +0.004 A 
ATOM     30  C   UNL     1      -8.220  10.813  -0.164  0.00  0.00    +0.047 A 
ATOM     31  C   UNL     1      -7.813   9.493  -0.280  0.00  0.00    +0.142 A 
BRANCH  31  32
ATOM     32  O   UNL     1      -8.630   8.577  -0.864  0.00  0.00    -0.490 OA
BRANCH  32  33
ATOM     33  C   UNL     1      -9.895   9.044  -1.337  0.00  0.00    +0.226 C 
ATOM     34  C   UNL     1     -10.669   7.880  -1.959  0.00  0.00    +0.048 C 
ENDBRANCH  32  33
ENDBRANCH  31  32
ENDBRANCH  24  26
ENDBRANCH  21  22
ENDBRANCH  20  21
ENDBRANCH  15  20
TORSDOF 7
