REMARK  Name = ZINC04898087
REMARK  5 active torsions:
REMARK  status: ('A' for Active; 'I' for Inactive)
REMARK    1  A    between atoms: C_1  and  C_2
REMARK    2  A    between atoms: C_2  and  C_3
REMARK    3  A    between atoms: C_14  and  C_16
REMARK    4  A    between atoms: C_14  and  C_17
REMARK    5  A    between atoms: N_18  and  N_19
REMARK                            x       y       z     vdW  Elec       q    Type
REMARK                         _______ _______ _______ _____ _____    ______ ____
ROOT
ATOM      1  C   UNL     1      -2.380   3.639   0.136  0.00  0.00    +0.132 A 
ATOM      2  N   UNL     1      -1.248   2.959   0.123  0.00  0.00    -0.216 NA
ATOM      3  C   UNL     1      -1.218   1.641   0.017  0.00  0.00    +0.144 A 
ATOM      4  C   UNL     1      -2.444   0.927  -0.094  0.00  0.00    +0.052 A 
ATOM      5  C   UNL     1      -2.660  -0.513  -0.213  0.00  0.00    -0.020 A 
ATOM      6  C   UNL     1      -3.940  -0.938  -0.296  0.00  0.00    +0.021 A 
ATOM      7  S   UNL     1      -4.921   0.534  -0.214  0.00  0.00    -0.071 S 
ATOM      8  C   UNL     1      -3.610   1.721  -0.068  0.00  0.00    +0.114 A 
ATOM      9  N   UNL     1      -3.548   3.033   0.042  0.00  0.00    -0.225 NA
ATOM     10  C   UNL     1      -4.394  -2.358  -0.430  0.00  0.00    +0.203 C 
ATOM     11  O   UNL     1      -3.251  -3.158  -0.774  0.00  0.00    -0.368 OA
ATOM     12  C   UNL     1      -2.113  -2.911   0.056  0.00  0.00    +0.068 C 
ATOM     13  C   UNL     1      -1.524  -1.532  -0.253  0.00  0.00    +0.071 C 
ATOM     14  C   UNL     1      -2.535  -2.965   1.526  0.00  0.00    +0.041 C 
ATOM     15  C   UNL     1      -1.053  -3.983  -0.206  0.00  0.00    +0.041 C 
ATOM     16  N   UNL     1      -0.011   0.966   0.007  0.00  0.00    -0.267 N 
ATOM     17  H   UNL     1       0.015   0.023  -0.217  0.00  0.00    +0.167 HD
ENDROOT
BRANCH  16  18
ATOM     18  N   UNL     1       1.145   1.629   0.309  0.00  0.00    -0.255 NA
ATOM     19  H   UNL     1       1.940   1.010   0.257  0.00  0.00    +0.140 HD
ATOM     20  H   UNL     1       1.269   2.430  -0.291  0.00  0.00    +0.140 HD
ENDBRANCH  16  18
BRANCH   1  22
ATOM     21  C   UNL     1      -2.268   5.767  -1.133  0.00  0.00    +0.012 C 
ATOM     22  C   UNL     1      -2.337   5.141   0.261  0.00  0.00    +0.073 C 
ENDBRANCH   1  22
TORSDOF 2
