REMARK  Name = ZINC10167004
REMARK  7 active torsions:
REMARK  status: ('A' for Active; 'I' for Inactive)
REMARK    1  A    between atoms: C_1  and  C_2
REMARK    2  A    between atoms: C_2  and  C_3
REMARK    3  A    between atoms: C_8  and  O_30
REMARK    4  A    between atoms: C_9  and  C_11
REMARK    5  A    between atoms: C_11  and  C_13
REMARK    6  A    between atoms: C_11  and  N_21
REMARK    7  A    between atoms: C_24  and  C_27
REMARK                            x       y       z     vdW  Elec       q    Type
REMARK                         _______ _______ _______ _____ _____    ______ ____
ROOT
ATOM      1  C   UNL     1      -6.961  -2.571  -0.749  0.00  0.00    +0.007 C 
ENDROOT
BRANCH   1   8
ATOM      2  C   UNL     1      -1.412  -0.526   0.013  0.00  0.00    +0.152 A 
ATOM      3  N   UNL     1      -2.127  -0.793   1.104  0.00  0.00    -0.205 NA
ATOM      4  C   UNL     1      -3.306  -1.227   0.751  0.00  0.00    +0.199 A 
ATOM      5  N   UNL     1      -3.395  -1.255  -0.607  0.00  0.00    -0.173 N 
ATOM      6  N   UNL     1      -2.131  -0.782  -1.047  0.00  0.00    -0.147 NA
ATOM      7  C   UNL     1      -4.579  -1.691  -1.151  0.00  0.00    +0.225 A 
ATOM      8  C   UNL     1      -5.593  -2.068  -0.364  0.00  0.00    +0.045 A 
ATOM      9  S   UNL     1      -4.901  -1.817   1.264  0.00  0.00    -0.050 S 
BRANCH   2  11
ATOM     10  C   UNL     1      -0.019   1.526   0.010  0.00  0.00    +0.012 C 
ATOM     11  C   UNL     1       0.002  -0.004   0.002  0.00  0.00    +0.075 C 
ENDBRANCH   2  11
BRANCH   7  12
ATOM     12  O   UNL     1      -4.722  -1.740  -2.503  0.00  0.00    -0.492 OA
ATOM     13  H   UNL     1      -3.939  -1.449  -2.992  0.00  0.00    +0.294 HD
ENDBRANCH   7  12
ENDBRANCH   1   8
BRANCH   1  14
ATOM     14  C   UNL     1      -8.005  -1.585  -0.292  0.00  0.00    -0.038 A 
ATOM     15  C   UNL     1      -8.639  -1.763   0.924  0.00  0.00    +0.005 A 
ATOM     16  C   UNL     1      -9.597  -0.860   1.343  0.00  0.00    +0.020 A 
ATOM     17  C   UNL     1      -9.922   0.224   0.546  0.00  0.00    +0.042 A 
ATOM     18  C   UNL     1      -9.288   0.403  -0.670  0.00  0.00    +0.040 A 
ATOM     19  C   UNL     1      -8.326  -0.499  -1.087  0.00  0.00    +0.044 A 
ATOM     20 CL   UNL     1      -7.526  -0.272  -2.611  0.00  0.00    -0.083 Cl
ATOM     21 CL   UNL     1     -11.126   1.358   1.073  0.00  0.00    -0.083 Cl
ENDBRANCH   1  14
BRANCH   1  22
ATOM     22  N   UNL     1      -7.202  -3.871  -0.110  0.00  0.00    +0.388 N 
ATOM     23  C   UNL     1      -6.179  -4.828  -0.549  0.00  0.00    -0.077 C 
ATOM     24  C   UNL     1      -6.378  -6.161   0.175  0.00  0.00    -0.006 C 
ATOM     25  C   UNL     1      -7.768  -6.712  -0.154  0.00  0.00    +0.071 C 
ATOM     26  C   UNL     1      -8.824  -5.675   0.240  0.00  0.00    -0.006 C 
ATOM     27  C   UNL     1      -8.534  -4.360  -0.486  0.00  0.00    -0.077 C 
ATOM     28  H   UNL     1      -7.154  -3.767   0.892  0.00  0.00    -0.080 HD
BRANCH  25  29
ATOM     29  C   UNL     1      -8.001  -7.986   0.618  0.00  0.00    +0.213 C 
ATOM     30  O   UNL     1      -7.140  -8.412   1.358  0.00  0.00    -0.276 OA
ATOM     31  N   UNL     1      -9.165  -8.651   0.485  0.00  0.00    -0.329 N 
ATOM     32  H   UNL     1      -9.854  -8.310  -0.107  0.00  0.00    +0.145 HD
ATOM     33  H   UNL     1      -9.315  -9.471   0.981  0.00  0.00    +0.145 HD
ENDBRANCH  25  29
ENDBRANCH   1  22
TORSDOF 6
