REMARK  Name = ZINC25022420
REMARK  13 active torsions:
REMARK  status: ('A' for Active; 'I' for Inactive)
REMARK    1  A    between atoms: C_1  and  C_2
REMARK    2  A    between atoms: C_3  and  C_34
REMARK    3  A    between atoms: N_4  and  C_26
REMARK    4  A    between atoms: C_5  and  N_9
REMARK    5  A    between atoms: C_6  and  C_7
REMARK    6  A    between atoms: C_10  and  C_12
REMARK    7  A    between atoms: C_12  and  N_13
REMARK    8  A    between atoms: N_13  and  C_14
REMARK    9  A    between atoms: N_13  and  C_15
REMARK   10  A    between atoms: C_15  and  C_16
REMARK   11  A    between atoms: C_18  and  N_23
REMARK   12  A    between atoms: C_29  and  O_32
REMARK   13  A    between atoms: O_32  and  C_33
REMARK                            x       y       z     vdW  Elec       q    Type
REMARK                         _______ _______ _______ _____ _____    ______ ____
ROOT
ATOM      1  N   UNL     1      -2.091   4.756  -0.041  0.00  0.00    -0.272 N 
ATOM      2  C   UNL     1      -0.866   4.218  -0.200  0.00  0.00    +0.202 C 
ATOM      3  O   UNL     1      -0.421   4.039  -1.314  0.00  0.00    -0.278 OA
ATOM      4  H   UNL     1      -2.529   4.840   0.964  0.00  0.00    +0.156 HD
ENDROOT
BRANCH   1   9
ATOM      5  C   UNL     1      -4.318   7.690  -3.502  0.00  0.00    +0.047 C 
ATOM      6  C   UNL     1      -3.816   6.500  -2.726  0.00  0.00    -0.010 A 
ATOM      7  C   UNL     1      -4.006   5.206  -3.032  0.00  0.00    +0.027 A 
ATOM      8  N   UNL     1      -3.397   4.423  -2.085  0.00  0.00    -0.300 N 
ATOM      9  C   UNL     1      -2.799   5.204  -1.146  0.00  0.00    +0.128 A 
ATOM     10  C   UNL     1      -3.030   6.530  -1.486  0.00  0.00    +0.095 A 
ATOM     11  C   UNL     1      -4.769   4.695  -4.227  0.00  0.00    +0.064 C 
BRANCH   8  12
ATOM     12  C   UNL     1      -3.391   3.020  -2.086  0.00  0.00    +0.048 A 
ATOM     13  C   UNL     1      -2.708   2.329  -3.078  0.00  0.00    +0.030 A 
ATOM     14  C   UNL     1      -2.698   0.948  -3.075  0.00  0.00    +0.047 A 
ATOM     15  C   UNL     1      -3.379   0.251  -2.087  0.00  0.00    +0.120 A 
ATOM     16  C   UNL     1      -4.066   0.941  -1.099  0.00  0.00    +0.047 A 
ATOM     17  C   UNL     1      -4.072   2.322  -1.098  0.00  0.00    +0.030 A 
BRANCH  15  18
ATOM     18  O   UNL     1      -3.373  -1.108  -2.088  0.00  0.00    -0.495 OA
ATOM     19  C   UNL     1      -2.646  -1.753  -3.136  0.00  0.00    +0.277 C 
ENDBRANCH  15  18
ENDBRANCH   8  12
BRANCH  10  20
ATOM     20  C   UNL     1      -2.588   7.692  -0.774  0.00  0.00    +0.103 C 
ATOM     21  N   UNL     1      -2.237   8.613  -0.210  0.00  0.00    -0.191 NA
ENDBRANCH  10  20
ENDBRANCH   1   9
BRANCH   2  22
ATOM     22  C   UNL     1      -0.048   3.838   1.008  0.00  0.00    +0.019 C 
BRANCH  22  23
ATOM     23  N   UNL     1       1.238   3.277   0.572  0.00  0.00    +0.386 N 
ATOM     24  C   UNL     1       2.057   4.296  -0.098  0.00  0.00    -0.095 C 
ATOM     25  H   UNL     1       1.029   2.479  -0.156  0.00  0.00    -0.081 HD
BRANCH  23  26
ATOM     26  C   UNL     1       1.962   2.679   1.702  0.00  0.00    -0.041 C 
BRANCH  26  27
ATOM     27  C   UNL     1       3.147   1.905   1.185  0.00  0.00    -0.043 A 
ATOM     28  C   UNL     1       4.422   2.423   1.315  0.00  0.00    +0.036 A 
ATOM     29  C   UNL     1       5.510   1.710   0.847  0.00  0.00    +0.126 A 
ATOM     30  C   UNL     1       5.322   0.483   0.238  0.00  0.00    +0.034 A 
ATOM     31  C   UNL     1       4.048  -0.034   0.103  0.00  0.00    +0.022 A 
ATOM     32  C   UNL     1       2.959   0.677   0.576  0.00  0.00    +0.042 A 
ATOM     33 CL   UNL     1       1.358   0.028   0.407  0.00  0.00    -0.083 Cl
BRANCH  29  34
ATOM     34  N   UNL     1       6.875   2.264   0.991  0.00  0.00    +0.056 N 
ATOM     35  O   UNL     1       7.833   1.639   0.574  0.00  0.00    -0.126 OA
ATOM     36  O   UNL     1       7.040   3.345   1.527  0.00  0.00    -0.126 OA
ENDBRANCH  29  34
ENDBRANCH  26  27
ENDBRANCH  23  26
ENDBRANCH  22  23
ENDBRANCH   2  22
TORSDOF 9
