REMARK  Name = ZINC39610028
REMARK  7 active torsions:
REMARK  status: ('A' for Active; 'I' for Inactive)
REMARK    1  A    between atoms: C_1  and  O_2
REMARK    2  A    between atoms: O_2  and  C_3
REMARK    3  A    between atoms: C_6  and  C_9
REMARK    4  A    between atoms: C_9  and  N_10
REMARK    5  A    between atoms: C_11  and  C_13
REMARK    6  A    between atoms: C_24  and  C_26
REMARK    7  A    between atoms: C_29  and  C_31
REMARK                            x       y       z     vdW  Elec       q    Type
REMARK                         _______ _______ _______ _____ _____    ______ ____
ROOT
ATOM      1  C   UNL     1       1.021  -3.654   7.625  0.00  0.00    +0.100 C 
ATOM      2  C   UNL     1       0.563  -2.319   8.253  0.00  0.00    +0.121 C 
ATOM      3  N   UNL     1       0.426  -2.613   9.699  0.00  0.00    -0.294 N 
ATOM      4  C   UNL     1       1.575  -3.500  10.005  0.00  0.00    +0.115 C 
ATOM      5  C   UNL     1       1.686  -4.426   8.777  0.00  0.00    -0.004 C 
ATOM      6  C   UNL     1       3.151  -4.699   8.454  0.00  0.00    -0.010 C 
ATOM      7  C   UNL     1       3.775  -5.518   9.588  0.00  0.00    -0.082 C 
ATOM      8  N   UNL     1       3.043  -6.781   9.742  0.00  0.00    +0.379 N 
ATOM      9  C   UNL     1       1.657  -6.511  10.144  0.00  0.00    -0.082 C 
ATOM     10  C   UNL     1       0.944  -5.734   9.034  0.00  0.00    -0.010 C 
ATOM     11  C   UNL     1      -0.527  -2.175  10.545  0.00  0.00    +0.282 C 
ATOM     12  O   UNL     1      -0.501  -2.507  11.716  0.00  0.00    -0.267 OA
ATOM     13  H   UNL     1       3.046  -7.279   8.865  0.00  0.00    -0.086 HD
ATOM     14  H   UNL     1       3.493  -7.345  10.448  0.00  0.00    -0.086 HD
ENDROOT
BRANCH  11  15
ATOM     15  C   UNL     1      -1.593  -1.297  10.056  0.00  0.00    +0.190 A 
ATOM     16  C   UNL     1      -2.621  -0.775  10.810  0.00  0.00    +0.055 A 
ATOM     17  C   UNL     1      -3.401   0.001   9.947  0.00  0.00    +0.051 A 
ATOM     18  C   UNL     1      -2.828  -0.075   8.710  0.00  0.00    +0.139 A 
ATOM     19  O   UNL     1      -1.736  -0.855   8.789  0.00  0.00    -0.450 OA
BRANCH  18  20
ATOM     20  C   UNL     1      -3.321   0.593   7.490  0.00  0.00    +0.052 A 
ATOM     21  C   UNL     1      -4.664   0.481   7.123  0.00  0.00    +0.014 A 
ATOM     22  C   UNL     1      -5.119   1.109   5.982  0.00  0.00    +0.001 A 
ATOM     23  C   UNL     1      -4.249   1.848   5.200  0.00  0.00    +0.003 A 
ATOM     24  C   UNL     1      -2.918   1.964   5.555  0.00  0.00    +0.039 A 
ATOM     25  C   UNL     1      -2.448   1.347   6.699  0.00  0.00    +0.134 A 
ATOM     26  F   UNL     1      -1.149   1.466   7.049  0.00  0.00    -0.205 F 
ENDBRANCH  18  20
ENDBRANCH  11  15
BRANCH   1  28
ATOM     27  N   UNL     1       2.117  -4.266   5.493  0.00  0.00    -0.311 N 
ATOM     28  C   UNL     1       2.016  -3.400   6.521  0.00  0.00    +0.218 C 
ATOM     29  O   UNL     1       2.725  -2.417   6.558  0.00  0.00    -0.275 OA
ATOM     30  H   UNL     1       1.550  -5.052   5.464  0.00  0.00    +0.149 HD
BRANCH  27  31
ATOM     31  C   UNL     1       3.084  -4.019   4.420  0.00  0.00    +0.139 C 
BRANCH  31  35
ATOM     32  C   UNL     1       2.838  -7.159   1.532  0.00  0.00    +0.120 A 
ATOM     33  C   UNL     1       2.048  -6.026   1.396  0.00  0.00    +0.046 A 
ATOM     34  C   UNL     1       2.129  -5.013   2.332  0.00  0.00    +0.009 A 
ATOM     35  C   UNL     1       2.997  -5.126   3.402  0.00  0.00    -0.030 A 
ATOM     36  C   UNL     1       3.786  -6.254   3.539  0.00  0.00    +0.009 A 
ATOM     37  C   UNL     1       3.704  -7.272   2.610  0.00  0.00    +0.046 A 
BRANCH  32  39
ATOM     38  C   UNL     1       1.847  -7.972  -0.470  0.00  0.00    +0.277 C 
ATOM     39  O   UNL     1       2.760  -8.157   0.613  0.00  0.00    -0.495 OA
ENDBRANCH  32  39
ENDBRANCH  31  35
ENDBRANCH  27  31
ENDBRANCH   1  28
TORSDOF 6
