REMARK  Name = ZINC11814410
REMARK  8 active torsions:
REMARK  status: ('A' for Active; 'I' for Inactive)
REMARK    1  A    between atoms: C_1  and  O_2
REMARK    2  A    between atoms: O_2  and  C_3
REMARK    3  A    between atoms: C_3  and  C_4
REMARK    4  A    between atoms: C_7  and  C_9
REMARK    5  A    between atoms: C_9  and  N_52
REMARK    6  A    between atoms: C_10  and  C_11
REMARK    7  A    between atoms: C_10  and  N_52
REMARK    8  A    between atoms: C_15  and  N_16
REMARK                            x       y       z     vdW  Elec       q    Type
REMARK                         _______ _______ _______ _____ _____    ______ ____
ROOT
ATOM      1  C   UNL     1      -0.662   1.297   3.609  0.00  0.00    -0.026 A 
ATOM      2  C   UNL     1      -0.131   0.682   4.729  0.00  0.00    +0.006 A 
ATOM      3  C   UNL     1       0.791  -0.339   4.550  0.00  0.00    +0.018 A 
ATOM      4  C   UNL     1       1.146  -0.713   3.269  0.00  0.00    +0.084 A 
ATOM      5  C   UNL     1      -0.264   0.866   2.348  0.00  0.00    +0.100 A 
ATOM      6  N   UNL     1       0.641  -0.136   2.146  0.00  0.00    -0.349 N 
ATOM      7  H   UNL     1       0.923  -0.434   1.205  0.00  0.00    +0.167 HD
ENDROOT
BRANCH   5   8
ATOM      8  N   UNL     1      -0.792   1.471   1.214  0.00  0.00    -0.316 N 
ATOM      9  C   UNL     1       0.264   1.783   0.243  0.00  0.00    +0.106 C 
ATOM     10  C   UNL     1      -0.366   2.173  -1.095  0.00  0.00    +0.019 C 
ATOM     11  C   UNL     1      -0.036   1.103  -2.141  0.00  0.00    +0.002 C 
ATOM     12  C   UNL     1      -0.896  -0.134  -1.877  0.00  0.00    +0.000 C 
ATOM     13  C   UNL     1      -0.345  -0.896  -0.673  0.00  0.00    +0.002 C 
ATOM     14  C   UNL     1      -1.331  -0.804   0.491  0.00  0.00    +0.019 C 
ATOM     15  C   UNL     1      -1.838   0.635   0.612  0.00  0.00    +0.106 C 
ENDBRANCH   5   8
BRANCH   1  16
ATOM     16  C   UNL     1      -1.663   2.415   3.753  0.00  0.00    -0.043 C 
BRANCH  16  17
ATOM     17  N   UNL     1      -3.024   1.869   3.595  0.00  0.00    +0.386 N 
ATOM     18  H   UNL     1      -3.086   1.369   2.700  0.00  0.00    -0.085 HD
ATOM     19  H   UNL     1      -3.220   1.218   4.365  0.00  0.00    -0.085 HD
BRANCH  17  20
ATOM     20  C   UNL     1      -4.018   2.958   3.613  0.00  0.00    -0.006 C 
BRANCH  20  24
ATOM     21  C   UNL     1      -7.237   1.628   2.518  0.00  0.00    +0.131 A 
ATOM     22  C   UNL     1      -7.390   1.488   3.848  0.00  0.00    +0.047 A 
ATOM     23  C   UNL     1      -6.203   1.968   4.448  0.00  0.00    +0.043 A 
ATOM     24  C   UNL     1      -5.397   2.372   3.450  0.00  0.00    +0.089 A 
ATOM     25  O   UNL     1      -6.031   2.169   2.284  0.00  0.00    -0.464 OA
BRANCH  21  26
ATOM     26  C   UNL     1      -8.252   1.247   1.471  0.00  0.00    +0.233 C 
BRANCH  26  28
ATOM     27  C   UNL     1     -10.110   2.105   0.223  0.00  0.00    +0.194 C 
ATOM     28  O   UNL     1      -9.106   2.362   1.208  0.00  0.00    -0.375 OA
ENDBRANCH  26  28
ENDBRANCH  21  26
ENDBRANCH  20  24
ENDBRANCH  17  20
ENDBRANCH  16  17
ENDBRANCH   1  16
TORSDOF 7
