REMARK  Name = ZINC35694812
REMARK  12 active torsions:
REMARK  status: ('A' for Active; 'I' for Inactive)
REMARK    1  A    between atoms: C_1  and  C_2
REMARK    2  A    between atoms: C_5  and  C_8
REMARK    3  A    between atoms: N_10  and  C_30
REMARK    4  A    between atoms: C_14  and  C_16
REMARK    5  A    between atoms: C_16  and  N_17
REMARK    6  A    between atoms: N_17  and  C_18
REMARK    7  A    between atoms: C_18  and  C_19
REMARK    8  A    between atoms: C_19  and  N_20
REMARK    9  A    between atoms: N_20  and  C_21
REMARK   10  A    between atoms: N_20  and  C_22
REMARK   11  A    between atoms: C_23  and  C_25
REMARK   12  A    between atoms: C_33  and  C_36
REMARK                            x       y       z     vdW  Elec       q    Type
REMARK                         _______ _______ _______ _____ _____    ______ ____
ROOT
ATOM      1  C   UNL     1      -0.848  -4.409  -0.011  0.00  0.00    +0.091 A 
ATOM      2  C   UNL     1      -0.763  -5.216   1.076  0.00  0.00    +0.122 A 
ATOM      3  N   UNL     1      -0.504  -6.483   0.611  0.00  0.00    -0.287 N 
ATOM      4  C   UNL     1      -0.438  -6.407  -0.749  0.00  0.00    +0.207 A 
ATOM      5  N   UNL     1      -0.650  -5.167  -1.111  0.00  0.00    -0.214 NA
ATOM      6  N   UNL     1      -0.193  -7.471  -1.607  0.00  0.00    -0.254 N 
ATOM      7  C   UNL     1      -0.153  -7.266  -2.939  0.00  0.00    +0.237 C 
ATOM      8  O   UNL     1      -0.331  -6.153  -3.387  0.00  0.00    -0.274 OA
ATOM      9  H   UNL     1      -0.051  -8.361  -1.249  0.00  0.00    +0.158 HD
ENDROOT
BRANCH   1  14
ATOM     10  C   UNL     1      -1.893   1.254   0.054  0.00  0.00    +0.044 C 
ATOM     11  C   UNL     1      -1.620  -0.228   0.037  0.00  0.00    -0.050 A 
ATOM     12  C   UNL     1      -1.435  -0.880  -1.169  0.00  0.00    +0.004 A 
ATOM     13  C   UNL     1      -1.184  -2.237  -1.190  0.00  0.00    +0.010 A 
ATOM     14  C   UNL     1      -1.117  -2.950   0.006  0.00  0.00    +0.002 A 
ATOM     15  C   UNL     1      -1.304  -2.287   1.217  0.00  0.00    +0.010 A 
ATOM     16  C   UNL     1      -1.549  -0.929   1.227  0.00  0.00    +0.004 A 
ENDBRANCH   1  14
BRANCH   3  17
ATOM     17  C   UNL     1      -0.338  -7.637   1.389  0.00  0.00    +0.049 A 
ATOM     18  C   UNL     1      -1.040  -8.793   1.078  0.00  0.00    +0.026 A 
ATOM     19  C   UNL     1      -0.874  -9.928   1.847  0.00  0.00    +0.005 A 
ATOM     20  C   UNL     1      -0.008  -9.915   2.925  0.00  0.00    -0.050 A 
ATOM     21  C   UNL     1       0.694  -8.765   3.237  0.00  0.00    +0.005 A 
ATOM     22  C   UNL     1       0.535  -7.628   2.469  0.00  0.00    +0.026 A 
ATOM     23  C   UNL     1       0.171 -11.155   3.761  0.00  0.00    +0.044 C 
ENDBRANCH   3  17
BRANCH   7  24
ATOM     24  C   UNL     1       0.113  -8.420  -3.871  0.00  0.00    +0.204 C 
BRANCH  24  25
ATOM     25  N   UNL     1       0.106  -7.941  -5.255  0.00  0.00    -0.288 N 
ATOM     26  C   UNL     1      -1.058  -7.830  -5.924  0.00  0.00    +0.282 C 
ATOM     27  O   UNL     1      -1.057  -7.525  -7.102  0.00  0.00    -0.267 OA
BRANCH  26  28
ATOM     28  C   UNL     1      -2.328  -8.078  -5.233  0.00  0.00    +0.189 A 
ATOM     29  C   UNL     1      -3.564  -8.109  -5.811  0.00  0.00    +0.054 A 
ATOM     30  C   UNL     1      -4.483  -8.377  -4.785  0.00  0.00    +0.042 A 
ATOM     31  C   UNL     1      -3.777  -8.497  -3.640  0.00  0.00    +0.196 A 
ATOM     32  O   UNL     1      -2.478  -8.321  -3.914  0.00  0.00    -0.458 OA
ENDBRANCH  26  28
BRANCH  25  33
ATOM     33  C   UNL     1       1.366  -7.583  -5.913  0.00  0.00    +0.090 C 
BRANCH  33  34
ATOM     34  C   UNL     1       1.945  -8.815  -6.612  0.00  0.00    -0.060 C 
BRANCH  34  35
ATOM     35  N   UNL     1       3.207  -8.456  -7.271  0.00  0.00    +0.377 N 
ATOM     36  C   UNL     1       3.823  -9.662  -7.839  0.00  0.00    -0.097 C 
ATOM     37  C   UNL     1       2.942  -7.489  -8.344  0.00  0.00    -0.097 C 
ATOM     38  H   UNL     1       3.834  -8.044  -6.596  0.00  0.00    -0.083 HD
ENDBRANCH  34  35
ENDBRANCH  33  34
ENDBRANCH  25  33
ENDBRANCH  24  25
ENDBRANCH   7  24
TORSDOF 8
