REMARK  Name = ZINC63383536
REMARK  13 active torsions:
REMARK  status: ('A' for Active; 'I' for Inactive)
REMARK    1  A    between atoms: C_1  and  C_2
REMARK    2  A    between atoms: C_2  and  C_3
REMARK    3  A    between atoms: C_2  and  C_4
REMARK    4  A    between atoms: C_4  and  C_6
REMARK    5  A    between atoms: C_4  and  N_16
REMARK    6  A    between atoms: N_8  and  C_9
REMARK    7  A    between atoms: C_9  and  C_10
REMARK    8  A    between atoms: C_10  and  C_11
REMARK    9  A    between atoms: C_11  and  O_12
REMARK   10  A    between atoms: O_12  and  C_13
REMARK   11  A    between atoms: C_13  and  C_14
REMARK   12  A    between atoms: C_13  and  C_15
REMARK   13  A    between atoms: C_17  and  C_19
REMARK                            x       y       z     vdW  Elec       q    Type
REMARK                         _______ _______ _______ _____ _____    ______ ____
ROOT
ATOM      1  C   UNL     1      -2.088  -3.873   1.830  0.00  0.00    +0.167 C 
ATOM      2  C   UNL     1      -1.100  -4.831   1.137  0.00  0.00    +0.065 C 
ATOM      3  C   UNL     1      -1.912  -5.726   0.234  0.00  0.00    -0.034 C 
ATOM      4  C   UNL     1      -1.763  -6.016  -1.055  0.00  0.00    -0.001 A 
ATOM      5  C   UNL     1      -0.715  -5.655  -2.023  0.00  0.00    +0.010 A 
ATOM      6  C   UNL     1      -0.885  -6.116  -3.291  0.00  0.00    +0.001 A 
ATOM      7  C   UNL     1      -1.980  -6.890  -3.687  0.00  0.00    +0.002 A 
ATOM      8  C   UNL     1      -2.987  -7.274  -2.862  0.00  0.00    +0.026 A 
ATOM      9  C   UNL     1      -2.915  -6.857  -1.501  0.00  0.00    +0.043 A 
ATOM     10  N   UNL     1      -3.716  -7.094  -0.505  0.00  0.00    -0.375 N 
ATOM     11  C   UNL     1      -3.147  -6.486   0.699  0.00  0.00    +0.131 C 
ATOM     12  C   UNL     1      -4.096  -5.469   1.331  0.00  0.00    +0.134 C 
ATOM     13  N   UNL     1      -3.433  -4.149   1.309  0.00  0.00    -0.276 N 
ATOM     14  C   UNL     1      -4.259  -3.265   0.719  0.00  0.00    +0.248 C 
ATOM     15  O   UNL     1      -4.062  -2.067   0.648  0.00  0.00    -0.270 OA
ATOM     16  C   UNL     1      -5.430  -3.956   0.175  0.00  0.00    +0.042 A 
ATOM     17  C   UNL     1      -5.354  -5.326   0.540  0.00  0.00    -0.013 A 
ATOM     18  C   UNL     1      -6.317  -6.239   0.171  0.00  0.00    +0.006 A 
ATOM     19  C   UNL     1      -7.388  -5.759  -0.578  0.00  0.00    +0.000 A 
ATOM     20  C   UNL     1      -7.488  -4.430  -0.936  0.00  0.00    +0.001 A 
ATOM     21  C   UNL     1      -6.508  -3.477  -0.574  0.00  0.00    +0.013 A 
ATOM     22  H   UNL     1      -4.548  -7.590  -0.551  0.00  0.00    +0.160 HD
ENDROOT
BRANCH   1  24
ATOM     23  N   UNL     1      -1.788  -1.979   0.268  0.00  0.00    -0.302 N 
ATOM     24  C   UNL     1      -1.708  -2.446   1.530  0.00  0.00    +0.235 C 
ATOM     25  O   UNL     1      -1.332  -1.718   2.424  0.00  0.00    -0.274 OA
ATOM     26  H   UNL     1      -2.088  -2.561  -0.447  0.00  0.00    +0.150 HD
BRANCH  23  27
ATOM     27  C   UNL     1      -1.419  -0.591  -0.024  0.00  0.00    +0.161 C 
BRANCH  27  28
ATOM     28  C   UNL     1      -2.133  -0.133  -1.268  0.00  0.00    +0.234 C 
ATOM     29  O   UNL     1      -2.612  -0.948  -2.028  0.00  0.00    -0.274 OA
ATOM     30  N   UNL     1      -2.241   1.184  -1.538  0.00  0.00    -0.314 N 
ATOM     31  H   UNL     1      -1.926   1.837  -0.894  0.00  0.00    +0.149 HD
BRANCH  30  32
ATOM     32  C   UNL     1      -2.834   1.627  -2.802  0.00  0.00    +0.106 C 
BRANCH  32  33
ATOM     33  C   UNL     1      -2.836   3.156  -2.856  0.00  0.00    +0.047 C 
BRANCH  33  34
ATOM     34  C   UNL     1      -3.456   3.619  -4.176  0.00  0.00    +0.161 C 
BRANCH  34  35
ATOM     35  O   UNL     1      -3.458   5.047  -4.226  0.00  0.00    -0.377 OA
BRANCH  35  36
ATOM     36  C   UNL     1      -4.019   5.585  -5.425  0.00  0.00    +0.112 C 
ATOM     37  C   UNL     1      -4.654   6.944  -5.126  0.00  0.00    +0.037 C 
ATOM     38  C   UNL     1      -2.916   5.758  -6.471  0.00  0.00    +0.037 C 
ENDBRANCH  35  36
ENDBRANCH  34  35
ENDBRANCH  33  34
ENDBRANCH  32  33
ENDBRANCH  30  32
ENDBRANCH  27  28
BRANCH  27  40
ATOM     39  C   UNL     1       0.818  -0.878   1.053  0.00  0.00    +0.009 C 
ATOM     40  C   UNL     1       0.093  -0.500  -0.240  0.00  0.00    +0.012 C 
ATOM     41  C   UNL     1       0.507  -1.462  -1.356  0.00  0.00    +0.009 C 
ENDBRANCH  27  40
ENDBRANCH  23  27
ENDBRANCH   1  24
TORSDOF 9
