REMARK  Name = ZINC39687721
REMARK  6 active torsions:
REMARK  status: ('A' for Active; 'I' for Inactive)
REMARK    1  A    between atoms: C_1  and  C_2
REMARK    2  A    between atoms: C_7  and  C_8
REMARK    3  A    between atoms: C_8  and  C_9
REMARK    4  A    between atoms: C_13  and  C_22
REMARK    5  A    between atoms: N_24  and  C_25
REMARK    6  A    between atoms: C_32  and  C_37
REMARK                            x       y       z     vdW  Elec       q    Type
REMARK                         _______ _______ _______ _____ _____    ______ ____
ROOT
ATOM      1  C   UNL     1      -1.299   0.366   3.004  0.00  0.00    +0.220 C 
ATOM      2  O   UNL     1      -2.167  -0.024   2.252  0.00  0.00    -0.275 OA
ATOM      3  N   UNL     1      -1.627   1.069   4.106  0.00  0.00    -0.300 N 
ATOM      4  C   UNL     1      -0.715   1.629   5.131  0.00  0.00    +0.121 C 
ATOM      5  C   UNL     1      -1.322   3.006   5.482  0.00  0.00    +0.100 C 
ATOM      6  C   UNL     1      -2.810   2.886   5.111  0.00  0.00    -0.004 C 
ATOM      7  C   UNL     1      -2.982   1.461   4.563  0.00  0.00    +0.115 C 
ATOM      8  C   UNL     1      -3.680   3.086   6.348  0.00  0.00    -0.010 C 
ATOM      9  C   UNL     1      -5.156   3.019   5.944  0.00  0.00    -0.082 C 
ATOM     10  N   UNL     1      -5.440   4.059   4.947  0.00  0.00    +0.379 N 
ATOM     11  C   UNL     1      -4.667   3.806   3.725  0.00  0.00    -0.082 C 
ATOM     12  C   UNL     1      -3.170   3.906   4.036  0.00  0.00    -0.010 C 
ATOM     13  H   UNL     1      -6.424   4.053   4.728  0.00  0.00    -0.086 HD
ATOM     14  H   UNL     1      -5.187   4.961   5.323  0.00  0.00    -0.086 HD
ENDROOT
BRANCH   5  15
ATOM     15  C   UNL     1      -0.663   4.092   4.671  0.00  0.00    +0.218 C 
ATOM     16  O   UNL     1      -0.236   3.846   3.562  0.00  0.00    -0.275 OA
ATOM     17  N   UNL     1      -0.548   5.335   5.177  0.00  0.00    -0.312 N 
ATOM     18  H   UNL     1      -0.889   5.532   6.064  0.00  0.00    +0.149 HD
BRANCH  17  19
ATOM     19  C   UNL     1       0.093   6.391   4.389  0.00  0.00    +0.076 C 
ATOM     20  C   UNL     1       1.609   6.327   4.587  0.00  0.00    +0.041 C 
ATOM     21  C   UNL     1       2.278   7.409   3.734  0.00  0.00    +0.108 C 
ATOM     22  N   UNL     1       1.681   8.710   4.067  0.00  0.00    -0.316 N 
ATOM     23  C   UNL     1       0.220   8.855   3.997  0.00  0.00    +0.108 C 
ATOM     24  C   UNL     1      -0.425   7.756   4.847  0.00  0.00    +0.041 C 
ATOM     25  C   UNL     1       2.482   9.782   4.441  0.00  0.00    +0.102 A 
ATOM     26  C   UNL     1       2.898  10.700   3.482  0.00  0.00    -0.012 A 
ATOM     27  C   UNL     1       3.695  11.762   3.868  0.00  0.00    +0.008 A 
ATOM     28  C   UNL     1       4.051  11.871   5.206  0.00  0.00    +0.018 A 
ATOM     29  C   UNL     1       3.603  10.924   6.105  0.00  0.00    +0.084 A 
ATOM     30  N   UNL     1       2.838   9.924   5.709  0.00  0.00    -0.349 N 
ATOM     31  C   UNL     1       2.486  10.539   2.042  0.00  0.00    +0.047 C 
ATOM     32  H   UNL     1       2.534   9.274   6.361  0.00  0.00    +0.167 HD
ENDBRANCH  17  19
ENDBRANCH   5  15
BRANCH   1  33
ATOM     33  C   UNL     1       0.147   0.063   2.706  0.00  0.00    +0.131 C 
BRANCH  33  40
ATOM     34  C   UNL     1       0.197   1.429   0.161  0.00  0.00    +0.044 C 
ATOM     35  C   UNL     1       0.265  -0.075   0.210  0.00  0.00    -0.047 A 
ATOM     36  C   UNL     1       0.358  -0.802  -0.963  0.00  0.00    +0.003 A 
ATOM     37  C   UNL     1       0.421  -2.182  -0.918  0.00  0.00    +0.000 A 
ATOM     38  C   UNL     1       0.392  -2.836   0.300  0.00  0.00    +0.000 A 
ATOM     39  C   UNL     1       0.300  -2.110   1.472  0.00  0.00    +0.004 A 
ATOM     40  C   UNL     1       0.241  -0.729   1.427  0.00  0.00    -0.036 A 
ENDBRANCH  33  40
ENDBRANCH   1  33
TORSDOF 4
