REMARK  Name = ZINC11980528
REMARK  10 active torsions:
REMARK  status: ('A' for Active; 'I' for Inactive)
REMARK    1  A    between atoms: C_1  and  C_2
REMARK    2  A    between atoms: C_2  and  C_9
REMARK    3  A    between atoms: C_3  and  C_4
REMARK    4  A    between atoms: C_9  and  N_60
REMARK    5  A    between atoms: C_16  and  C_20
REMARK    6  A    between atoms: C_20  and  C_21
REMARK    7  A    between atoms: C_20  and  C_22
REMARK    8  A    between atoms: C_20  and  O_30
REMARK    9  A    between atoms: C_22  and  O_23
REMARK   10  A    between atoms: O_23  and  C_24
REMARK                            x       y       z     vdW  Elec       q    Type
REMARK                         _______ _______ _______ _____ _____    ______ ____
ROOT
ATOM      1  C   UNL     1      -2.175   5.618  -1.787  0.00  0.00    -0.036 C 
ATOM      2  C   UNL     1      -2.677   4.226  -2.103  0.00  0.00    +0.210 C 
ATOM      3  O   UNL     1      -2.525   3.361  -0.972  0.00  0.00    -0.494 OA
ATOM      4  C   UNL     1      -1.307   2.764  -0.854  0.00  0.00    +0.122 A 
ATOM      5  C   UNL     1      -1.175   1.398  -1.061  0.00  0.00    +0.046 A 
ATOM      6  C   UNL     1       0.073   0.810  -0.975  0.00  0.00    +0.010 A 
ATOM      7  C   UNL     1       1.186   1.581  -0.695  0.00  0.00    -0.013 A 
ATOM      8  C   UNL     1       1.054   2.942  -0.486  0.00  0.00    +0.012 A 
ATOM      9  C   UNL     1      -0.194   3.527  -0.558  0.00  0.00    -0.022 A 
ATOM     10  C   UNL     1      -0.356   5.010  -0.287  0.00  0.00    -0.039 C 
ATOM     11  N   UNL     1      -0.714   5.668  -1.566  0.00  0.00    +0.387 N 
ATOM     12  H   UNL     1      -0.247   5.172  -2.334  0.00  0.00    -0.081 HD
ENDROOT
BRANCH   7  13
ATOM     13  C   UNL     1       2.546   0.937  -0.618  0.00  0.00    +0.122 C 
ATOM     14  C   UNL     1       2.816   0.483   0.818  0.00  0.00    +0.050 C 
BRANCH  13  15
ATOM     15  O   UNL     1       3.544   1.881  -1.015  0.00  0.00    -0.381 OA
ATOM     16  H   UNL     1       3.435   2.212  -1.917  0.00  0.00    +0.211 HD
ENDBRANCH  13  15
BRANCH  13  17
ATOM     17  C   UNL     1       2.591  -0.274  -1.552  0.00  0.00    +0.268 C 
BRANCH  17  18
ATOM     18  O   UNL     1       3.838  -0.953  -1.393  0.00  0.00    -0.489 OA
BRANCH  18  19
ATOM     19  C   UNL     1       4.040  -2.059  -2.156  0.00  0.00    +0.121 A 
ATOM     20  C   UNL     1       3.056  -2.486  -3.035  0.00  0.00    +0.045 A 
ATOM     21  C   UNL     1       3.266  -3.608  -3.814  0.00  0.00    +0.004 A 
ATOM     22  C   UNL     1       4.451  -4.312  -3.709  0.00  0.00    +0.000 A 
ATOM     23  C   UNL     1       5.432  -3.892  -2.829  0.00  0.00    +0.004 A 
ATOM     24  C   UNL     1       5.229  -2.767  -2.053  0.00  0.00    +0.045 A 
ENDBRANCH  18  19
ENDBRANCH  17  18
ENDBRANCH  13  17
ENDBRANCH   7  13
BRANCH  11  25
ATOM     25  C   UNL     1      -0.258   7.067  -1.556  0.00  0.00    -0.047 C 
BRANCH  25  27
ATOM     26  C   UNL     1       0.677   7.392  -3.972  0.00  0.00    +0.037 C 
ATOM     27  C   UNL     1      -0.403   7.628  -2.948  0.00  0.00    -0.086 C 
ATOM     28  C   UNL     1      -1.484   8.332  -3.272  0.00  0.00    +0.043 C 
BRANCH  28  29
ATOM     29  C   UNL     1      -1.696   8.755  -4.664  0.00  0.00    +0.128 A 
ATOM     30  C   UNL     1      -2.693   9.570  -5.110  0.00  0.00    +0.049 A 
ATOM     31  C   UNL     1      -2.513   9.707  -6.500  0.00  0.00    +0.042 A 
ATOM     32  C   UNL     1      -1.429   8.978  -6.832  0.00  0.00    +0.195 A 
ATOM     33  O   UNL     1      -0.934   8.409  -5.721  0.00  0.00    -0.464 OA
ENDBRANCH  28  29
ENDBRANCH  25  27
ENDBRANCH  11  25
TORSDOF 8
