REMARK  Name = ZINC22852183
REMARK  6 active torsions:
REMARK  status: ('A' for Active; 'I' for Inactive)
REMARK    1  A    between atoms: C_3  and  C_8
REMARK    2  A    between atoms: C_8  and  C_10
REMARK    3  A    between atoms: C_8  and  N_24
REMARK    4  A    between atoms: C_11  and  O_23
REMARK    5  A    between atoms: C_16  and  C_18
REMARK    6  A    between atoms: N_27  and  C_30
REMARK                            x       y       z     vdW  Elec       q    Type
REMARK                         _______ _______ _______ _____ _____    ______ ____
ROOT
ATOM      1  C   UNL     1      -6.203  -0.532  -1.033  0.00  0.00    +0.129 C 
ENDROOT
BRANCH   1   2
ATOM      2  C   UNL     1      -6.189  -1.539   0.088  0.00  0.00    +0.076 A 
ATOM      3  C   UNL     1      -7.179  -1.895   0.915  0.00  0.00    +0.228 A 
ATOM      4  N   UNL     1      -6.974  -2.844   1.887  0.00  0.00    -0.173 N 
ATOM      5  C   UNL     1      -5.726  -3.398   1.964  0.00  0.00    +0.200 A 
ATOM      6  S   UNL     1      -4.849  -2.576   0.654  0.00  0.00    -0.047 S 
ATOM      7  N   UNL     1      -5.691  -4.274   2.928  0.00  0.00    -0.197 NA
ATOM      8  C   UNL     1      -6.895  -4.333   3.515  0.00  0.00    +0.218 A 
ATOM      9  N   UNL     1      -7.705  -3.485   2.920  0.00  0.00    -0.138 NA
BRANCH   8  10
ATOM     10  C   UNL     1      -7.253  -5.210   4.650  0.00  0.00    +0.173 A 
ATOM     11  C   UNL     1      -6.423  -6.089   5.272  0.00  0.00    +0.053 A 
ATOM     12  C   UNL     1      -7.177  -6.708   6.289  0.00  0.00    +0.042 A 
ATOM     13  C   UNL     1      -8.416  -6.182   6.238  0.00  0.00    +0.196 A 
ATOM     14  O   UNL     1      -8.457  -5.273   5.250  0.00  0.00    -0.460 OA
ENDBRANCH   8  10
BRANCH   3  15
ATOM     15  O   UNL     1      -8.401  -1.310   0.792  0.00  0.00    -0.492 OA
ATOM     16  H   UNL     1      -9.219  -1.598   1.469  0.00  0.00    +0.294 HD
ENDBRANCH   3  15
ENDBRANCH   1   2
BRANCH   1  19
ATOM     17  C   UNL     1      -5.153  -2.543  -4.052  0.00  0.00    +0.003 A 
ATOM     18  C   UNL     1      -5.112  -1.876  -2.841  0.00  0.00    +0.006 A 
ATOM     19  C   UNL     1      -6.247  -1.253  -2.356  0.00  0.00    -0.023 A 
ATOM     20  C   UNL     1      -7.420  -1.286  -3.086  0.00  0.00    +0.044 A 
ATOM     21  C   UNL     1      -7.460  -1.949  -4.301  0.00  0.00    +0.124 A 
ATOM     22  C   UNL     1      -6.324  -2.578  -4.783  0.00  0.00    +0.038 A 
ATOM     23  F   UNL     1      -8.606  -1.982  -5.015  0.00  0.00    -0.205 F 
ENDBRANCH   1  19
BRANCH   1  24
ATOM     24  N   UNL     1      -4.989   0.292  -0.965  0.00  0.00    -0.288 NA
ATOM     25  C   UNL     1      -4.967   1.288  -2.046  0.00  0.00    +0.104 C 
ATOM     26  C   UNL     1      -3.654   2.071  -1.989  0.00  0.00    +0.120 C 
ATOM     27  N   UNL     1      -3.531   2.721  -0.676  0.00  0.00    -0.327 N 
ATOM     28  C   UNL     1      -3.553   1.726   0.405  0.00  0.00    +0.120 C 
ATOM     29  C   UNL     1      -4.866   0.942   0.347  0.00  0.00    +0.104 C 
BRANCH  27  30
ATOM     30  C   UNL     1      -2.377   3.505  -0.612  0.00  0.00    +0.031 A 
ATOM     31  C   UNL     1      -2.076   4.206   0.550  0.00  0.00    +0.023 A 
ATOM     32  C   UNL     1      -0.931   4.976   0.613  0.00  0.00    +0.003 A 
ATOM     33  C   UNL     1      -0.087   5.054  -0.480  0.00  0.00    +0.020 A 
ATOM     34  C   UNL     1      -0.386   4.361  -1.640  0.00  0.00    +0.043 A 
ATOM     35  C   UNL     1      -1.531   3.590  -1.710  0.00  0.00    +0.043 A 
ATOM     36 CL   UNL     1       0.676   4.462  -3.009  0.00  0.00    -0.083 Cl
ENDBRANCH  27  30
ENDBRANCH   1  24
TORSDOF 6
