REMARK  Name = ZINC08901222
REMARK  11 active torsions:
REMARK  status: ('A' for Active; 'I' for Inactive)
REMARK    1  A    between atoms: C_1  and  C_2
REMARK    2  A    between atoms: C_3  and  C_29
REMARK    3  A    between atoms: C_4  and  C_28
REMARK    4  A    between atoms: C_5  and  S_10
REMARK    5  A    between atoms: C_6  and  C_9
REMARK    6  A    between atoms: C_7  and  C_8
REMARK    7  A    between atoms: S_10  and  N_13
REMARK    8  A    between atoms: N_13  and  C_14
REMARK    9  A    between atoms: C_14  and  C_15
REMARK   10  A    between atoms: C_15  and  C_17
REMARK   11  A    between atoms: C_15  and  N_63
REMARK                            x       y       z     vdW  Elec       q    Type
REMARK                         _______ _______ _______ _____ _____    ______ ____
ROOT
ATOM      1  N   UNL     1       3.375   5.662  -0.396  0.00  0.00    -0.191 NA
ATOM      2  H   UNL     1       4.284   5.385  -0.590  0.00  0.00    +0.148 HD
ENDROOT
BRANCH   1   3
ATOM      3  S   UNL     1       2.672   5.244   1.044  0.00  0.00    +0.059 S 
ATOM      4  O   UNL     1       2.103   6.431   1.578  0.00  0.00    -0.153 OA
ATOM      5  O   UNL     1       3.629   4.471   1.754  0.00  0.00    -0.153 OA
BRANCH   3  10
ATOM      6  C   UNL     1      -1.930   1.550  -0.216  0.00  0.00    +0.044 C 
ATOM      7  C   UNL     1      -0.780   2.473   0.096  0.00  0.00    -0.044 A 
ATOM      8  C   UNL     1      -0.999   3.832   0.218  0.00  0.00    -0.043 A 
ATOM      9  C   UNL     1       0.055   4.678   0.510  0.00  0.00    -0.021 A 
ATOM     10  C   UNL     1       1.329   4.165   0.673  0.00  0.00    +0.112 A 
ATOM     11  C   UNL     1       1.548   2.807   0.545  0.00  0.00    -0.021 A 
ATOM     12  C   UNL     1       0.494   1.960   0.254  0.00  0.00    -0.043 A 
ATOM     13  C   UNL     1       0.734   0.479   0.115  0.00  0.00    +0.044 C 
ATOM     14  C   UNL     1       2.936   2.248   0.723  0.00  0.00    +0.046 C 
ATOM     15  C   UNL     1      -0.184   6.159   0.649  0.00  0.00    +0.046 C 
ATOM     16  C   UNL     1      -2.387   4.391   0.041  0.00  0.00    +0.044 C 
ENDBRANCH   3  10
ENDBRANCH   1   3
BRANCH   1  17
ATOM     17  C   UNL     1       2.625   6.451  -1.376  0.00  0.00    +0.095 C 
BRANCH  17  18
ATOM     18  C   UNL     1       3.590   7.029  -2.413  0.00  0.00    -0.021 C 
BRANCH  18  25
ATOM     19  C   UNL     1       1.686   6.946  -3.920  0.00  0.00    -0.078 C 
ATOM     20  C   UNL     1       1.042   7.521  -5.153  0.00  0.00    -0.019 C 
ATOM     21  C   UNL     1       1.674   6.853  -6.392  0.00  0.00    -0.002 C 
ATOM     22  C   UNL     1       2.981   7.415  -6.715  0.00  0.00    -0.002 C 
ATOM     23  C   UNL     1       3.998   7.221  -5.570  0.00  0.00    -0.019 C 
ATOM     24  C   UNL     1       3.724   8.252  -4.509  0.00  0.00    -0.078 C 
ATOM     25  N   UNL     1       2.816   7.792  -3.404  0.00  0.00    +0.385 N 
ATOM     26  H   UNL     1       2.417   8.620  -2.947  0.00  0.00    -0.081 HD
ENDBRANCH  18  25
BRANCH  18  27
ATOM     27  C   UNL     1       4.547   7.976  -1.735  0.00  0.00    -0.053 A 
ATOM     28  C   UNL     1       5.824   7.564  -1.402  0.00  0.00    +0.009 A 
ATOM     29  C   UNL     1       6.661   8.442  -0.798  0.00  0.00    +0.045 A 
ATOM     30  S   UNL     1       5.639   9.900  -0.672  0.00  0.00    -0.105 S 
ATOM     31  C   UNL     1       4.167   9.243  -1.439  0.00  0.00    +0.047 A 
ENDBRANCH  18  27
ENDBRANCH  17  18
ENDBRANCH   1  17
TORSDOF 6
