REMARK  Name = ZINC16188150
REMARK  8 active torsions:
REMARK  status: ('A' for Active; 'I' for Inactive)
REMARK    1  A    between atoms: C_1  and  N_2
REMARK    2  A    between atoms: N_2  and  C_3
REMARK    3  A    between atoms: N_2  and  S_21
REMARK    4  A    between atoms: C_3  and  C_4
REMARK    5  A    between atoms: N_6  and  C_7
REMARK    6  A    between atoms: C_12  and  O_13
REMARK    7  A    between atoms: O_13  and  C_14
REMARK    8  A    between atoms: S_21  and  C_24
REMARK                            x       y       z     vdW  Elec       q    Type
REMARK                         _______ _______ _______ _____ _____    ______ ____
ROOT
ATOM      1  C   UNL     1      -3.162   0.713  -0.789  0.00  0.00    +0.233 C 
ATOM      2  O   UNL     1      -3.283   1.340   0.242  0.00  0.00    -0.274 OA
ATOM      3  N   UNL     1      -4.255   0.339  -1.483  0.00  0.00    -0.281 N 
ATOM      4  H   UNL     1      -4.157  -0.150  -2.315  0.00  0.00    +0.155 HD
ENDROOT
BRANCH   3   5
ATOM      5  C   UNL     1      -5.532   0.658  -1.004  0.00  0.00    +0.078 A 
ATOM      6  C   UNL     1      -5.692   1.676  -0.075  0.00  0.00    +0.047 A 
ATOM      7  C   UNL     1      -6.954   1.989   0.396  0.00  0.00    +0.043 A 
ATOM      8  C   UNL     1      -8.058   1.290  -0.057  0.00  0.00    +0.024 A 
ATOM      9  C   UNL     1      -7.906   0.275  -0.983  0.00  0.00    +0.049 A 
ATOM     10  C   UNL     1      -6.645  -0.042  -1.464  0.00  0.00    +0.150 A 
ATOM     11 CL   UNL     1      -7.152   3.263   1.558  0.00  0.00    -0.083 Cl
BRANCH  10  12
ATOM     12  O   UNL     1      -6.495  -1.037  -2.378  0.00  0.00    -0.454 OA
BRANCH  12  13
ATOM     13  C   UNL     1      -6.124  -2.265  -1.930  0.00  0.00    +0.129 A 
ATOM     14  C   UNL     1      -5.806  -2.449  -0.592  0.00  0.00    +0.046 A 
ATOM     15  C   UNL     1      -5.436  -3.700  -0.138  0.00  0.00    +0.004 A 
ATOM     16  C   UNL     1      -5.371  -4.765  -1.017  0.00  0.00    +0.000 A 
ATOM     17  C   UNL     1      -5.681  -4.583  -2.352  0.00  0.00    +0.004 A 
ATOM     18  C   UNL     1      -6.058  -3.335  -2.810  0.00  0.00    +0.046 A 
ENDBRANCH  12  13
ENDBRANCH  10  12
ENDBRANCH   3   5
BRANCH   1  19
ATOM     19  C   UNL     1      -1.788   0.350  -1.293  0.00  0.00    +0.205 C 
BRANCH  19  21
ATOM     20  C   UNL     1      -0.305   2.247  -0.494  0.00  0.00    +0.132 C 
ATOM     21  N   UNL     1      -0.777   0.866  -0.368  0.00  0.00    -0.171 NA
BRANCH  21  22
ATOM     22  S   UNL     1      -0.166  -0.112   0.821  0.00  0.00    +0.061 S 
ATOM     23  O   UNL     1      -0.346  -1.450   0.379  0.00  0.00    -0.153 OA
ATOM     24  O   UNL     1       1.110   0.412   1.163  0.00  0.00    -0.153 OA
BRANCH  22  25
ATOM     25  C   UNL     1      -1.190   0.092   2.240  0.00  0.00    +0.106 A 
ATOM     26  C   UNL     1      -0.877   1.075   3.178  0.00  0.00    +0.029 A 
ATOM     27  C   UNL     1      -1.650   1.262   4.282  0.00  0.00    +0.010 A 
ATOM     28  C   UNL     1      -2.776   0.446   4.489  0.00  0.00    -0.018 A 
ATOM     29  C   UNL     1      -3.594   0.605   5.620  0.00  0.00    +0.008 A 
ATOM     30  C   UNL     1      -4.676  -0.203   5.787  0.00  0.00    +0.001 A 
ATOM     31  C   UNL     1      -4.987  -1.190   4.853  0.00  0.00    +0.001 A 
ATOM     32  C   UNL     1      -4.217  -1.373   3.745  0.00  0.00    +0.008 A 
ATOM     33  C   UNL     1      -3.091  -0.557   3.538  0.00  0.00    -0.016 A 
ATOM     34  C   UNL     1      -2.272  -0.716   2.407  0.00  0.00    +0.037 A 
ENDBRANCH  22  25
ENDBRANCH  21  22
ENDBRANCH  19  21
ENDBRANCH   1  19
TORSDOF 7
