REMARK  Name = ZINC28295089
REMARK  4 active torsions:
REMARK  status: ('A' for Active; 'I' for Inactive)
REMARK    1  A    between atoms: C_4  and  O_30
REMARK    2  A    between atoms: C_5  and  C_7
REMARK    3  A    between atoms: N_23  and  C_26
REMARK    4  A    between atoms: C_26  and  C_27
REMARK                            x       y       z     vdW  Elec       q    Type
REMARK                         _______ _______ _______ _____ _____    ______ ____
ROOT
ATOM      1  C   UNL     1       1.227  -2.187  -0.022  0.00  0.00    +0.075 C 
ATOM      2  C   UNL     1       0.639  -2.707   1.260  0.00  0.00    +0.033 A 
ATOM      3  C   UNL     1      -0.604  -3.175   1.508  0.00  0.00    +0.088 A 
ATOM      4  N   UNL     1      -0.819  -3.597   2.796  0.00  0.00    -0.311 N 
ATOM      5  H   UNL     1      -1.683  -3.957   3.050  0.00  0.00    +0.170 HD
ATOM      6  C   UNL     1       0.169  -3.510   3.707  0.00  0.00    +0.289 A 
ATOM      7  O   UNL     1       0.144  -3.833   4.881  0.00  0.00    -0.260 OA
ATOM      8  S   UNL     1       1.446  -2.850   2.833  0.00  0.00    -0.030 S 
ATOM      9  S   UNL     1      -1.848  -3.210   0.225  0.00  0.00    -0.093 S 
ATOM     10  C   UNL     1      -1.057  -2.154  -1.016  0.00  0.00    +0.152 C 
ATOM     11  C   UNL     1       0.399  -2.697  -1.174  0.00  0.00    +0.110 C 
ATOM     12  C   UNL     1       0.719  -2.241  -2.563  0.00  0.00    +0.228 C 
ATOM     13  O   UNL     1       1.811  -1.946  -2.999  0.00  0.00    -0.275 OA
ATOM     14  N   UNL     1      -0.461  -2.225  -3.236  0.00  0.00    -0.230 N 
ATOM     15  C   UNL     1      -1.575  -2.333  -2.417  0.00  0.00    +0.236 C 
ATOM     16  O   UNL     1      -2.722  -2.542  -2.747  0.00  0.00    -0.274 OA
ENDROOT
BRANCH   1  21
ATOM     17  C   UNL     1       1.970   1.409  -0.900  0.00  0.00    +0.001 A 
ATOM     18  C   UNL     1       1.172   2.088   0.003  0.00  0.00    +0.004 A 
ATOM     19  C   UNL     1       0.391   1.386   0.900  0.00  0.00    +0.046 A 
ATOM     20  C   UNL     1       0.406  -0.001   0.894  0.00  0.00    +0.121 A 
ATOM     21  C   UNL     1       1.207  -0.680  -0.013  0.00  0.00    +0.003 A 
ATOM     22  C   UNL     1       1.988   0.027  -0.908  0.00  0.00    +0.008 A 
BRANCH  20  23
ATOM     23  O   UNL     1      -0.361  -0.694   1.775  0.00  0.00    -0.506 OA
ATOM     24  H   UNL     1      -1.248  -0.900   1.448  0.00  0.00    +0.292 HD
ENDBRANCH  20  23
ENDBRANCH   1  21
BRANCH  14  25
ATOM     25  C   UNL     1      -0.553  -2.085  -4.691  0.00  0.00    +0.241 C 
BRANCH  25  26
ATOM     26  C   UNL     1      -0.524  -3.450  -5.330  0.00  0.00    +0.373 C 
ATOM     27  O   UNL     1      -0.435  -4.447  -4.634  0.00  0.00    -0.245 OA
ATOM     28  O   UNL     1      -0.590  -3.556  -6.543  0.00  0.00    -0.245 OA
ENDBRANCH  25  26
ENDBRANCH  14  25
TORSDOF 4
