REMARK  Name = ZINC11936576
REMARK  6 active torsions:
REMARK  status: ('A' for Active; 'I' for Inactive)
REMARK    1  A    between atoms: C_8  and  C_10
REMARK    2  A    between atoms: C_11  and  C_16
REMARK    3  A    between atoms: C_16  and  N_48
REMARK    4  A    between atoms: C_17  and  C_18
REMARK    5  A    between atoms: C_17  and  N_48
REMARK    6  A    between atoms: C_18  and  C_19
REMARK                            x       y       z     vdW  Elec       q    Type
REMARK                         _______ _______ _______ _____ _____    ______ ____
ROOT
ATOM      1  C   UNL     1       1.353   1.550  -0.003  0.00  0.00    -0.043 C 
ENDROOT
BRANCH   1   3
ATOM      2  C   UNL     1       2.731  -0.279   1.230  0.00  0.00    +0.129 A 
ATOM      3  C   UNL     1       2.125   0.993   1.166  0.00  0.00    -0.016 A 
ATOM      4  C   UNL     1       2.364   1.625   2.334  0.00  0.00    +0.107 A 
ATOM      5  N   UNL     1       3.084   0.795   3.119  0.00  0.00    -0.284 N 
ATOM      6  H   UNL     1       3.403   0.993   4.046  0.00  0.00    +0.188 HD
ATOM      7  N   UNL     1       3.307  -0.393   2.410  0.00  0.00    -0.171 NA
BRANCH   2  15
ATOM      8  C   UNL     1       3.155  -4.597  -2.985  0.00  0.00    +0.001 A 
ATOM      9  C   UNL     1       1.876  -4.156  -3.292  0.00  0.00    +0.004 A 
ATOM     10  C   UNL     1       1.294  -3.130  -2.579  0.00  0.00    +0.047 A 
ATOM     11  C   UNL     1       1.992  -2.528  -1.539  0.00  0.00    +0.136 A 
ATOM     12  C   UNL     1       3.288  -2.979  -1.231  0.00  0.00    +0.021 A 
ATOM     13  C   UNL     1       3.860  -4.019  -1.965  0.00  0.00    +0.011 A 
ATOM     14  C   UNL     1       3.740  -2.150  -0.111  0.00  0.00    +0.060 A 
ATOM     15  C   UNL     1       2.720  -1.303   0.164  0.00  0.00    +0.156 A 
ATOM     16  O   UNL     1       1.696  -1.530  -0.682  0.00  0.00    -0.453 OA
ENDBRANCH   2  15
ENDBRANCH   1   3
BRANCH   1  17
ATOM     17  N   UNL     1      -0.015   0.998   0.015  0.00  0.00    +0.382 N 
ATOM     18  H   UNL     1      -0.475   1.261   0.894  0.00  0.00    -0.085 HD
ATOM     19  H   UNL     1       0.032  -0.025  -0.054  0.00  0.00    -0.085 HD
BRANCH  17  20
ATOM     20  C   UNL     1      -0.795   1.527  -1.120  0.00  0.00    -0.078 C 
BRANCH  20  21
ATOM     21  C   UNL     1      -2.207   0.938  -1.076  0.00  0.00    +0.029 C 
BRANCH  21  22
ATOM     22  C   UNL     1      -3.023   1.482  -2.250  0.00  0.00    +0.209 C 
ATOM     23  C   UNL     1      -4.471   0.982  -2.149  0.00  0.00    +0.273 C 
ATOM     24  O   UNL     1      -5.202   1.497  -3.267  0.00  0.00    -0.485 OA
ATOM     25  C   UNL     1      -4.606   1.396  -4.487  0.00  0.00    +0.162 A 
ATOM     26  C   UNL     1      -5.374   1.537  -5.633  0.00  0.00    +0.049 A 
ATOM     27  C   UNL     1      -4.783   1.440  -6.879  0.00  0.00    +0.004 A 
ATOM     28  C   UNL     1      -3.426   1.202  -6.986  0.00  0.00    +0.004 A 
ATOM     29  C   UNL     1      -2.655   1.059  -5.848  0.00  0.00    +0.049 A 
ATOM     30  C   UNL     1      -3.242   1.154  -4.595  0.00  0.00    +0.162 A 
ATOM     31  O   UNL     1      -2.470   1.009  -3.483  0.00  0.00    -0.482 OA
ENDBRANCH  21  22
ENDBRANCH  20  21
ENDBRANCH  17  20
ENDBRANCH   1  17
TORSDOF 6
