REMARK  Name = ZINC08193312
REMARK  8 active torsions:
REMARK  status: ('A' for Active; 'I' for Inactive)
REMARK    1  A    between atoms: C_1  and  C_2
REMARK    2  A    between atoms: C_7  and  N_8
REMARK    3  A    between atoms: C_12  and  S_13
REMARK    4  A    between atoms: S_13  and  C_14
REMARK    5  A    between atoms: C_14  and  C_15
REMARK    6  A    between atoms: N_17  and  C_18
REMARK    7  A    between atoms: C_18  and  C_20
REMARK    8  A    between atoms: C_18  and  C_21
REMARK                            x       y       z     vdW  Elec       q    Type
REMARK                         _______ _______ _______ _____ _____    ______ ____
ROOT
ATOM      1  C   UNL     1       5.483   3.799   1.384  0.00  0.00    +0.224 C 
ATOM      2  O   UNL     1       6.293   3.724   2.284  0.00  0.00    -0.275 OA
ATOM      3  N   UNL     1       5.857   4.276   0.180  0.00  0.00    -0.308 N 
ATOM      4  H   UNL     1       5.209   4.336  -0.540  0.00  0.00    +0.149 HD
ENDROOT
BRANCH   3   5
ATOM      5  C   UNL     1       7.240   4.704  -0.042  0.00  0.00    +0.101 C 
ATOM      6  C   UNL     1       7.560   4.641  -1.537  0.00  0.00    +0.033 C 
BRANCH   5   7
ATOM      7  C   UNL     1       7.414   6.117   0.450  0.00  0.00    -0.020 A 
ATOM      8  C   UNL     1       6.340   6.951   0.529  0.00  0.00    +0.006 A 
ATOM      9  C   UNL     1       6.481   8.260   0.986  0.00  0.00    +0.001 A 
ATOM     10  C   UNL     1       7.697   8.746   1.357  0.00  0.00    +0.008 A 
ATOM     11  C   UNL     1       8.829   7.917   1.285  0.00  0.00    -0.018 A 
ATOM     12  C   UNL     1       8.685   6.584   0.824  0.00  0.00    -0.013 A 
ATOM     13  C   UNL     1       9.818   5.754   0.752  0.00  0.00    +0.009 A 
ATOM     14  C   UNL     1      11.033   6.240   1.125  0.00  0.00    +0.001 A 
ATOM     15  C   UNL     1      11.174   7.551   1.577  0.00  0.00    +0.001 A 
ATOM     16  C   UNL     1      10.100   8.383   1.660  0.00  0.00    +0.008 A 
ENDBRANCH   5   7
ENDBRANCH   3   5
BRANCH   1  17
ATOM     17  C   UNL     1       4.060   3.359   1.612  0.00  0.00    +0.173 C 
BRANCH  17  18
ATOM     18  S   UNL     1       3.875   2.774   3.315  0.00  0.00    -0.076 S 
BRANCH  18  23
ATOM     19  N   UNL     1       1.454   1.821   4.350  0.00  0.00    -0.277 N 
ATOM     20  C   UNL     1       0.181   1.641   3.876  0.00  0.00    +0.230 A 
ATOM     21  N   UNL     1       0.173   2.032   2.633  0.00  0.00    -0.137 NA
ATOM     22  N   UNL     1       1.341   2.442   2.290  0.00  0.00    -0.122 NA
ATOM     23  C   UNL     1       2.168   2.336   3.304  0.00  0.00    +0.196 A 
BRANCH  19  30
ATOM     24  C   UNL     1       2.330   3.988   5.974  0.00  0.00    +0.046 C 
ATOM     25  C   UNL     1       2.362   2.563   6.464  0.00  0.00    -0.027 A 
ATOM     26  C   UNL     1       2.826   2.279   7.734  0.00  0.00    +0.005 A 
ATOM     27  C   UNL     1       2.856   0.972   8.184  0.00  0.00    +0.000 A 
ATOM     28  C   UNL     1       2.422  -0.055   7.365  0.00  0.00    +0.002 A 
ATOM     29  C   UNL     1       1.952   0.224   6.096  0.00  0.00    +0.026 A 
ATOM     30  C   UNL     1       1.926   1.535   5.640  0.00  0.00    +0.053 A 
ENDBRANCH  19  30
ENDBRANCH  18  23
ENDBRANCH  17  18
ENDBRANCH   1  17
TORSDOF 6
