REMARK  Name = ZINC15150735
REMARK  12 active torsions:
REMARK  status: ('A' for Active; 'I' for Inactive)
REMARK    1  A    between atoms: C_1  and  C_2
REMARK    2  A    between atoms: C_5  and  S_28
REMARK    3  A    between atoms: C_7  and  N_8
REMARK    4  A    between atoms: C_9  and  C_11
REMARK    5  A    between atoms: C_11  and  C_13
REMARK    6  A    between atoms: C_11  and  O_14
REMARK    7  A    between atoms: O_14  and  C_15
REMARK    8  A    between atoms: C_15  and  C_17
REMARK    9  A    between atoms: C_26  and  O_27
REMARK   10  A    between atoms: S_28  and  N_31
REMARK   11  A    between atoms: N_31  and  C_32
REMARK   12  A    between atoms: N_31  and  C_33
REMARK                            x       y       z     vdW  Elec       q    Type
REMARK                         _______ _______ _______ _____ _____    ______ ____
ROOT
ATOM      1  N   UNL     1      -1.199  -0.722   0.009  0.00  0.00    -0.282 N 
ATOM      2  C   UNL     1      -2.373  -0.070   0.125  0.00  0.00    +0.258 C 
ATOM      3  O   UNL     1      -2.395   1.143   0.132  0.00  0.00    -0.271 OA
ATOM      4  H   UNL     1      -1.187  -1.689  -0.062  0.00  0.00    +0.155 HD
ENDROOT
BRANCH   1  11
ATOM      5  C   UNL     1       1.090  -1.899   1.222  0.00  0.00    +0.045 C 
ATOM      6  C   UNL     1       1.143  -0.541   0.572  0.00  0.00    -0.029 A 
ATOM      7  C   UNL     1       2.326   0.171   0.552  0.00  0.00    +0.007 A 
ATOM      8  C   UNL     1       2.376   1.417  -0.045  0.00  0.00    +0.029 A 
ATOM      9  C   UNL     1       1.241   1.955  -0.624  0.00  0.00    +0.107 A 
ATOM     10  C   UNL     1       0.054   1.249  -0.608  0.00  0.00    +0.052 A 
ATOM     11  C   UNL     1       0.002  -0.003  -0.009  0.00  0.00    +0.038 A 
BRANCH   9  12
ATOM     12  S   UNL     1       1.310   3.543  -1.384  0.00  0.00    +0.060 S 
ATOM     13  O   UNL     1       2.666   3.762  -1.747  0.00  0.00    -0.153 OA
ATOM     14  O   UNL     1       0.252   3.586  -2.332  0.00  0.00    -0.153 OA
BRANCH  12  15
ATOM     15  N   UNL     1       0.945   4.660  -0.218  0.00  0.00    -0.183 NA
ATOM     16  C   UNL     1       2.014   5.244   0.596  0.00  0.00    +0.131 C 
ATOM     17  C   UNL     1      -0.446   5.065   0.000  0.00  0.00    +0.131 C 
ENDBRANCH  12  15
ENDBRANCH   9  12
ENDBRANCH   1  11
BRANCH   2  18
ATOM     18  C   UNL     1      -3.658  -0.847   0.246  0.00  0.00    +0.259 C 
ATOM     19  C   UNL     1      -3.655  -1.637   1.556  0.00  0.00    +0.062 C 
BRANCH  18  20
ATOM     20  O   UNL     1      -4.782   0.072   0.239  0.00  0.00    -0.449 OA
BRANCH  20  21
ATOM     21  C   UNL     1      -5.943  -0.385  -0.272  0.00  0.00    +0.343 C 
ATOM     22  O   UNL     1      -6.013  -1.521  -0.700  0.00  0.00    -0.245 OA
BRANCH  21  23
ATOM     23  C   UNL     1      -7.125   0.491  -0.312  0.00  0.00    +0.101 A 
ATOM     24  C   UNL     1      -7.041   1.804   0.189  0.00  0.00    +0.019 A 
ATOM     25  C   UNL     1      -8.114   2.631   0.158  0.00  0.00    +0.009 A 
ATOM     26  C   UNL     1      -9.341   2.183  -0.370  0.00  0.00    -0.014 A 
ATOM     27  C   UNL     1     -10.464   3.025  -0.404  0.00  0.00    +0.008 A 
ATOM     28  C   UNL     1     -11.638   2.564  -0.920  0.00  0.00    +0.001 A 
ATOM     29  C   UNL     1     -11.743   1.267  -1.415  0.00  0.00    +0.001 A 
ATOM     30  C   UNL     1     -10.674   0.423  -1.398  0.00  0.00    +0.012 A 
ATOM     31  C   UNL     1      -9.448   0.863  -0.874  0.00  0.00    +0.024 A 
ATOM     32  C   UNL     1      -8.323   0.014  -0.841  0.00  0.00    +0.138 A 
BRANCH  32  33
ATOM     33  O   UNL     1      -8.405  -1.250  -1.319  0.00  0.00    -0.505 OA
ATOM     34  H   UNL     1      -8.669  -1.904  -0.657  0.00  0.00    +0.292 HD
ENDBRANCH  32  33
ENDBRANCH  21  23
ENDBRANCH  20  21
ENDBRANCH  18  20
ENDBRANCH   2  18
TORSDOF 8
