REMARK  Name = ZINC38901759
REMARK  8 active torsions:
REMARK  status: ('A' for Active; 'I' for Inactive)
REMARK    1  A    between atoms: C_1  and  C_2
REMARK    2  A    between atoms: C_9  and  C_36
REMARK    3  A    between atoms: C_9  and  C_37
REMARK    4  A    between atoms: C_11  and  N_13
REMARK    5  A    between atoms: C_14  and  C_16
REMARK    6  A    between atoms: N_21  and  C_23
REMARK    7  A    between atoms: C_23  and  C_24
REMARK    8  A    between atoms: C_26  and  C_29
REMARK                            x       y       z     vdW  Elec       q    Type
REMARK                         _______ _______ _______ _____ _____    ______ ____
ROOT
ATOM      1  C   UNL     1      -1.384  -5.317  -3.449  0.00  0.00    +0.058 C 
ATOM      2  C   UNL     1      -2.601  -4.390  -3.513  0.00  0.00    +0.009 C 
ATOM      3  C   UNL     1      -3.517  -4.844  -4.653  0.00  0.00    -0.018 C 
ATOM      4  C   UNL     1      -2.727  -4.854  -5.963  0.00  0.00    -0.078 C 
ATOM      5  N   UNL     1      -1.592  -5.779  -5.846  0.00  0.00    +0.386 N 
ATOM      6  C   UNL     1      -0.672  -5.311  -4.803  0.00  0.00    -0.065 C 
ATOM      7  H   UNL     1      -1.932  -6.698  -5.605  0.00  0.00    -0.081 HD
ENDROOT
BRANCH   1   9
ATOM      8  N   UNL     1      -0.851  -4.753  -1.100  0.00  0.00    -0.308 N 
ATOM      9  C   UNL     1      -0.438  -4.833  -2.381  0.00  0.00    +0.215 C 
ATOM     10  O   UNL     1       0.695  -4.515  -2.673  0.00  0.00    -0.276 OA
ATOM     11  H   UNL     1      -1.758  -5.007  -0.867  0.00  0.00    +0.149 HD
BRANCH   8  22
ATOM     12  C   UNL     1      -0.018   1.503   0.010  0.00  0.00    +0.044 C 
ATOM     13  C   UNL     1       0.002  -0.004   0.002  0.00  0.00    -0.047 A 
ATOM     14  C   UNL     1       0.006  -0.689  -1.199  0.00  0.00    +0.004 A 
ATOM     15  C   UNL     1       0.026  -2.070  -1.206  0.00  0.00    +0.009 A 
ATOM     16  C   UNL     1       0.042  -2.775  -0.014  0.00  0.00    +0.015 A 
ATOM     17  C   UNL     1       0.035  -2.092   1.190  0.00  0.00    +0.126 A 
ATOM     18  C   UNL     1       0.023  -0.701   1.193  0.00  0.00    +0.049 A 
ATOM     19  O   UNL     1       0.038  -2.743   2.382  0.00  0.00    -0.486 OA
ATOM     20  C   UNL     1       0.424  -4.118   2.391  0.00  0.00    +0.107 C 
ATOM     21  C   UNL     1      -0.361  -4.848   1.294  0.00  0.00    +0.074 C 
ATOM     22  C   UNL     1       0.068  -4.282  -0.062  0.00  0.00    +0.110 C 
ATOM     23  C   UNL     1       1.924  -4.234   2.116  0.00  0.00    +0.055 C 
ATOM     24  C   UNL     1       0.100  -4.735   3.753  0.00  0.00    +0.055 C 
ENDBRANCH   8  22
ENDBRANCH   1   9
BRANCH   5  25
ATOM     25  C   UNL     1      -0.882  -5.844  -7.131  0.00  0.00    +0.022 C 
BRANCH  25  26
ATOM     26  C   UNL     1      -1.785  -6.449  -8.174  0.00  0.00    +0.211 A 
ATOM     27  N   UNL     1      -2.597  -5.792  -8.952  0.00  0.00    -0.193 NA
ATOM     28  C   UNL     1      -3.251  -6.644  -9.762  0.00  0.00    +0.202 A 
ATOM     29  N   UNL     1      -2.850  -7.863  -9.497  0.00  0.00    -0.056 NA
ATOM     30  O   UNL     1      -1.885  -7.753  -8.462  0.00  0.00    -0.340 OA
BRANCH  28  31
ATOM     31  C   UNL     1      -4.257  -6.266 -10.785  0.00  0.00    +0.023 A 
ATOM     32  C   UNL     1      -4.593  -4.927 -10.974  0.00  0.00    +0.014 A 
ATOM     33  C   UNL     1      -5.529  -4.581 -11.926  0.00  0.00    +0.039 A 
ATOM     34  C   UNL     1      -6.135  -5.562 -12.694  0.00  0.00    +0.123 A 
ATOM     35  C   UNL     1      -5.804  -6.895 -12.510  0.00  0.00    +0.039 A 
ATOM     36  C   UNL     1      -4.865  -7.250 -11.563  0.00  0.00    +0.014 A 
ATOM     37  F   UNL     1      -7.051  -5.218 -13.626  0.00  0.00    -0.205 F 
ENDBRANCH  28  31
ENDBRANCH  25  26
ENDBRANCH   5  25
TORSDOF 5
