REMARK  Name = ZINC24072782
REMARK  6 active torsions:
REMARK  status: ('A' for Active; 'I' for Inactive)
REMARK    1  A    between atoms: C_4  and  C_7
REMARK    2  A    between atoms: C_7  and  C_8
REMARK    3  A    between atoms: C_8  and  O_10
REMARK    4  A    between atoms: O_10  and  C_11
REMARK    5  A    between atoms: C_11  and  C_12
REMARK    6  A    between atoms: C_23  and  C_25
REMARK                            x       y       z     vdW  Elec       q    Type
REMARK                         _______ _______ _______ _____ _____    ______ ____
ROOT
ATOM      1  C   UNL     1      -2.456  -0.282   0.313  0.00  0.00    +0.258 C 
ATOM      2  O   UNL     1      -1.418  -0.891   0.462  0.00  0.00    -0.271 OA
ATOM      3  N   UNL     1      -2.430   1.037   0.038  0.00  0.00    -0.255 N 
ATOM      4  C   UNL     1      -1.220   1.750   0.001  0.00  0.00    +0.079 A 
ATOM      5  C   UNL     1      -0.013   1.069  -0.024  0.00  0.00    +0.027 A 
ATOM      6  C   UNL     1       1.176   1.775  -0.047  0.00  0.00    +0.002 A 
ATOM      7  C   UNL     1       1.161   3.157  -0.040  0.00  0.00    +0.004 A 
ATOM      8  C   UNL     1      -0.040   3.842  -0.012  0.00  0.00    +0.047 A 
ATOM      9  C   UNL     1      -1.237   3.142   0.011  0.00  0.00    +0.142 A 
ATOM     10  O   UNL     1      -2.413   3.823   0.034  0.00  0.00    -0.488 OA
ATOM     11  C   UNL     1      -3.576   3.129   0.493  0.00  0.00    +0.256 C 
ATOM     12  C   UNL     1      -3.671   1.783  -0.238  0.00  0.00    +0.149 C 
ENDROOT
BRANCH  12  13
ATOM     13  C   UNL     1      -3.807   2.015  -1.721  0.00  0.00    -0.023 A 
ATOM     14  C   UNL     1      -2.690   2.310  -2.480  0.00  0.00    +0.005 A 
ATOM     15  C   UNL     1      -2.815   2.518  -3.841  0.00  0.00    +0.000 A 
ATOM     16  C   UNL     1      -4.058   2.441  -4.441  0.00  0.00    +0.000 A 
ATOM     17  C   UNL     1      -5.176   2.151  -3.681  0.00  0.00    +0.000 A 
ATOM     18  C   UNL     1      -5.050   1.938  -2.321  0.00  0.00    +0.005 A 
ENDBRANCH  12  13
BRANCH   1  19
ATOM     19  C   UNL     1      -3.775  -1.001   0.434  0.00  0.00    +0.328 C 
BRANCH  19  20
ATOM     20  O   UNL     1      -3.542  -2.373   0.846  0.00  0.00    -0.455 OA
BRANCH  20  21
ATOM     21  C   UNL     1      -4.622  -3.155   1.001  0.00  0.00    +0.312 C 
ATOM     22  O   UNL     1      -5.726  -2.707   0.799  0.00  0.00    -0.250 OA
BRANCH  21  23
ATOM     23  C   UNL     1      -4.459  -4.591   1.428  0.00  0.00    +0.155 C 
BRANCH  23  27
ATOM     24  C   UNL     1      -8.299  -6.440   1.710  0.00  0.00    +0.000 A 
ATOM     25  C   UNL     1      -7.602  -6.473   0.516  0.00  0.00    +0.000 A 
ATOM     26  C   UNL     1      -6.359  -5.874   0.425  0.00  0.00    +0.004 A 
ATOM     27  C   UNL     1      -5.814  -5.243   1.527  0.00  0.00    -0.037 A 
ATOM     28  C   UNL     1      -6.508  -5.215   2.722  0.00  0.00    +0.004 A 
ATOM     29  C   UNL     1      -7.753  -5.809   2.812  0.00  0.00    +0.000 A 
ENDBRANCH  23  27
ENDBRANCH  21  23
ENDBRANCH  20  21
ENDBRANCH  19  20
ENDBRANCH   1  19
TORSDOF 6
