REMARK  Name = ZINC13500175
REMARK  16 active torsions:
REMARK  status: ('A' for Active; 'I' for Inactive)
REMARK    1  A    between atoms: C_1  and  C_2
REMARK    2  A    between atoms: C_2  and  C_3
REMARK    3  A    between atoms: C_3  and  C_4
REMARK    4  A    between atoms: C_4  and  C_6
REMARK    5  A    between atoms: C_4  and  N_75
REMARK    6  A    between atoms: N_10  and  C_11
REMARK    7  A    between atoms: C_11  and  C_12
REMARK    8  A    between atoms: C_11  and  C_13
REMARK    9  A    between atoms: C_11  and  C_14
REMARK   10  A    between atoms: C_14  and  C_15
REMARK   11  A    between atoms: C_16  and  C_17
REMARK   12  A    between atoms: C_16  and  N_75
REMARK   13  A    between atoms: C_21  and  O_29
REMARK   14  A    between atoms: O_29  and  C_30
REMARK   15  A    between atoms: C_30  and  C_31
REMARK   16  A    between atoms: C_32  and  N_75
REMARK                            x       y       z     vdW  Elec       q    Type
REMARK                         _______ _______ _______ _____ _____    ______ ____
ROOT
ATOM      1  N   UNL     1       2.438   4.327   1.183  0.00  0.00    +0.391 N 
ATOM      2  H   UNL     1       1.738   3.577   1.214  0.00  0.00    -0.080 HD
ENDROOT
BRANCH   1   3
ATOM      3  C   UNL     1       3.502   4.032   2.165  0.00  0.00    -0.067 C 
ATOM      4  C   UNL     1       3.631   2.503   2.325  0.00  0.00    -0.015 C 
ATOM      5  C   UNL     1       3.915   2.303   3.836  0.00  0.00    -0.002 C 
ATOM      6  C   UNL     1       3.019   3.379   4.498  0.00  0.00    -0.002 C 
ATOM      7  C   UNL     1       3.114   4.589   3.545  0.00  0.00    -0.015 C 
ENDBRANCH   1   3
BRANCH   1   8
ATOM      8  C   UNL     1       1.783   5.610   1.518  0.00  0.00    +0.003 C 
BRANCH   8   9
ATOM      9  C   UNL     1       2.814   6.659   1.843  0.00  0.00    +0.139 A 
ATOM     10  N   UNL     1       4.029   6.740   1.356  0.00  0.00    -0.115 NA
ATOM     11  N   UNL     1       4.598   7.773   1.876  0.00  0.00    -0.023 NA
ATOM     12  N   UNL     1       3.778   8.353   2.681  0.00  0.00    -0.043 NA
ATOM     13  N   UNL     1       2.665   7.700   2.684  0.00  0.00    -0.225 N 
BRANCH  13  14
ATOM     14  C   UNL     1       1.466   8.026   3.459  0.00  0.00    +0.061 C 
ATOM     15  C   UNL     1       0.256   8.092   2.525  0.00  0.00    +0.036 C 
ATOM     16  C   UNL     1       1.234   6.947   4.518  0.00  0.00    +0.036 C 
BRANCH  14  17
ATOM     17  C   UNL     1       1.655   9.381   4.145  0.00  0.00    +0.026 C 
ATOM     18  C   UNL     1       0.403   9.722   4.955  0.00  0.00    +0.006 C 
ENDBRANCH  14  17
ENDBRANCH  13  14
ENDBRANCH   8   9
BRANCH   8  19
ATOM     19  C   UNL     1       0.943   6.072   0.326  0.00  0.00    -0.008 C 
BRANCH  19  21
ATOM     20  C   UNL     1      -0.962   5.471  -1.175  0.00  0.00    +0.004 C 
ATOM     21  C   UNL     1      -0.198   5.079   0.091  0.00  0.00    -0.005 C 
ENDBRANCH  19  21
ENDBRANCH   8  19
ENDBRANCH   1   8
BRANCH   1  22
ATOM     22  C   UNL     1       3.010   4.393  -0.178  0.00  0.00    -0.036 C 
BRANCH  22  23
ATOM     23  C   UNL     1       3.560   3.038  -0.542  0.00  0.00    +0.001 A 
ATOM     24  C   UNL     1       2.775   2.141  -1.187  0.00  0.00    +0.017 A 
ATOM     25  C   UNL     1       3.339   0.833  -1.526  0.00  0.00    +0.002 A 
ATOM     26  C   UNL     1       2.576  -0.132  -2.192  0.00  0.00    +0.055 A 
ATOM     27  C   UNL     1       3.139  -1.355  -2.497  0.00  0.00    +0.121 A 
ATOM     28  C   UNL     1       4.459  -1.629  -2.144  0.00  0.00    +0.047 A 
ATOM     29  C   UNL     1       5.220  -0.687  -1.489  0.00  0.00    +0.030 A 
ATOM     30  C   UNL     1       4.672   0.552  -1.172  0.00  0.00    +0.049 A 
ATOM     31  N   UNL     1       5.419   1.509  -0.516  0.00  0.00    -0.322 N 
ATOM     32  H   UNL     1       6.337   1.315  -0.272  0.00  0.00    +0.169 HD
ATOM     33  C   UNL     1       4.891   2.707  -0.209  0.00  0.00    +0.251 A 
ATOM     34  O   UNL     1       5.580   3.529   0.371  0.00  0.00    -0.268 OA
BRANCH  27  35
ATOM     35  O   UNL     1       2.402  -2.296  -3.144  0.00  0.00    -0.492 OA
BRANCH  35  36
ATOM     36  C   UNL     1       3.045  -3.540  -3.429  0.00  0.00    +0.225 C 
ATOM     37  C   UNL     1       2.067  -4.466  -4.155  0.00  0.00    +0.048 C 
ENDBRANCH  35  36
ENDBRANCH  27  35
ENDBRANCH  22  23
ENDBRANCH   1  22
TORSDOF 11
