REMARK  Name = ZINC19298039
REMARK  5 active torsions:
REMARK  status: ('A' for Active; 'I' for Inactive)
REMARK    1  A    between atoms: C_1  and  C_2
REMARK    2  A    between atoms: C_2  and  C_29
REMARK    3  A    between atoms: N_5  and  C_9
REMARK    4  A    between atoms: C_9  and  C_10
REMARK    5  A    between atoms: C_21  and  C_23
REMARK                            x       y       z     vdW  Elec       q    Type
REMARK                         _______ _______ _______ _____ _____    ______ ____
ROOT
ATOM      1  C   UNL     1      -2.534  -5.795  -1.732  0.00  0.00    +0.214 C 
ENDROOT
BRANCH   1   2
ATOM      2  C   UNL     1      -3.022  -5.130  -2.993  0.00  0.00    +0.238 C 
ATOM      3  O   UNL     1      -3.072  -3.920  -3.060  0.00  0.00    -0.273 OA
ATOM      4  N   UNL     1      -3.403  -5.879  -4.047  0.00  0.00    -0.261 N 
ATOM      5  C   UNL     1      -3.730  -7.219  -3.827  0.00  0.00    +0.050 A 
ATOM      6  C   UNL     1      -4.043  -7.612  -2.526  0.00  0.00    +0.024 A 
ATOM      7  C   UNL     1      -4.371  -8.924  -2.252  0.00  0.00    +0.002 A 
ATOM      8  C   UNL     1      -4.397  -9.862  -3.268  0.00  0.00    +0.001 A 
ATOM      9  C   UNL     1      -4.097  -9.483  -4.562  0.00  0.00    +0.016 A 
ATOM     10  C   UNL     1      -3.769  -8.163  -4.847  0.00  0.00    +0.029 A 
ATOM     11  S   UNL     1      -3.399  -7.712  -6.512  0.00  0.00    -0.121 S 
ATOM     12  C   UNL     1      -2.599  -6.089  -6.336  0.00  0.00    +0.102 C 
ATOM     13  C   UNL     1      -3.448  -5.255  -5.365  0.00  0.00    +0.122 C 
BRANCH  13  14
ATOM     14  C   UNL     1      -2.896  -3.855  -5.280  0.00  0.00    -0.026 A 
ATOM     15  C   UNL     1      -1.532  -3.654  -5.188  0.00  0.00    +0.005 A 
ATOM     16  C   UNL     1      -1.025  -2.370  -5.114  0.00  0.00    +0.000 A 
ATOM     17  C   UNL     1      -1.884  -1.287  -5.125  0.00  0.00    +0.000 A 
ATOM     18  C   UNL     1      -3.249  -1.488  -5.212  0.00  0.00    +0.000 A 
ATOM     19  C   UNL     1      -3.755  -2.772  -5.290  0.00  0.00    +0.005 A 
ENDBRANCH  13  14
ENDBRANCH   1   2
BRANCH   1  24
ATOM     20  C   UNL     1      -0.343  -3.551   1.767  0.00  0.00    +0.047 C 
ATOM     21  C   UNL     1      -0.603  -3.338   0.274  0.00  0.00    +0.135 C 
ATOM     22  C   UNL     1      -1.906  -3.993  -0.139  0.00  0.00    +0.251 C 
ATOM     23  O   UNL     1      -3.017  -3.737   0.272  0.00  0.00    -0.272 OA
ATOM     24  N   UNL     1      -1.571  -4.920  -1.059  0.00  0.00    -0.215 N 
ATOM     25  C   UNL     1      -0.253  -4.940  -1.282  0.00  0.00    +0.310 C 
ATOM     26  O   UNL     1       0.288  -5.692  -2.070  0.00  0.00    -0.252 OA
ATOM     27  N   UNL     1       0.412  -4.036  -0.534  0.00  0.00    -0.281 N 
ATOM     28  H   UNL     1       1.473  -3.764  -0.439  0.00  0.00    +0.152 HD
BRANCH  21  29
ATOM     29  C   UNL     1      -0.622  -1.867  -0.054  0.00  0.00    -0.015 A 
ATOM     30  C   UNL     1      -1.811  -1.163  -0.008  0.00  0.00    +0.006 A 
ATOM     31  C   UNL     1      -1.826   0.185  -0.309  0.00  0.00    +0.004 A 
ATOM     32  C   UNL     1      -0.654   0.835  -0.656  0.00  0.00    -0.044 A 
ATOM     33  C   UNL     1       0.535   0.131  -0.702  0.00  0.00    -0.044 A 
ATOM     34  C   UNL     1       0.548  -1.220  -0.399  0.00  0.00    +0.010 A 
ATOM     35  C   UNL     1       1.663   1.057  -1.103  0.00  0.00    +0.036 C 
ATOM     36  C   UNL     1       1.117   2.482  -0.873  0.00  0.00    +0.009 C 
ATOM     37  C   UNL     1      -0.406   2.282  -1.024  0.00  0.00    +0.036 C 
ENDBRANCH  21  29
ENDBRANCH   1  24
TORSDOF 4
