REMARK  Name = ZINC28055934
REMARK  7 active torsions:
REMARK  status: ('A' for Active; 'I' for Inactive)
REMARK    1  A    between atoms: C_1  and  C_2
REMARK    2  A    between atoms: C_2  and  C_3
REMARK    3  A    between atoms: C_2  and  C_4
REMARK    4  A    between atoms: C_7  and  C_10
REMARK    5  A    between atoms: C_28  and  C_30
REMARK    6  A    between atoms: C_33  and  O_36
REMARK    7  A    between atoms: O_36  and  C_37
REMARK                            x       y       z     vdW  Elec       q    Type
REMARK                         _______ _______ _______ _____ _____    ______ ____
ROOT
ATOM      1  C   UNL     1      -3.489   1.701  -0.670  0.00  0.00    +0.234 C 
ATOM      2  C   UNL     1      -3.522   3.154  -0.253  0.00  0.00    +0.025 C 
ATOM      3  C   UNL     1      -2.381   3.760   0.080  0.00  0.00    +0.050 C 
ATOM      4  C   UNL     1      -1.128   2.968   0.059  0.00  0.00    +0.039 A 
ATOM      5  C   UNL     1       0.118   3.581   0.065  0.00  0.00    +0.033 A 
ATOM      6  C   UNL     1       1.261   2.802   0.046  0.00  0.00    +0.042 A 
ATOM      7  C   UNL     1       1.164   1.421   0.020  0.00  0.00    +0.023 A 
ATOM      8  C   UNL     1      -0.074   0.803   0.013  0.00  0.00    +0.048 A 
ATOM      9  C   UNL     1      -1.224   1.570   0.027  0.00  0.00    +0.131 A 
ATOM     10  O   UNL     1      -2.457   1.002   0.025  0.00  0.00    -0.479 OA
ATOM     11 CL   UNL     1       2.823   3.559   0.054  0.00  0.00    -0.084 Cl
ATOM     12  N   UNL     1      -2.330   5.113   0.439  0.00  0.00    -0.282 N 
ATOM     13  C   UNL     1      -3.454   5.880   0.184  0.00  0.00    +0.240 A 
ATOM     14  N   UNL     1      -3.632   7.170   0.189  0.00  0.00    -0.092 NA
ATOM     15  N   UNL     1      -4.852   7.453  -0.117  0.00  0.00    -0.021 NA
ATOM     16  N   UNL     1      -5.526   6.369  -0.335  0.00  0.00    -0.042 NA
ATOM     17  N   UNL     1      -4.642   5.308  -0.143  0.00  0.00    -0.201 N 
ATOM     18  C   UNL     1      -4.850   3.870  -0.243  0.00  0.00    +0.174 C 
ATOM     19  H   UNL     1      -1.421   5.524   0.903  0.00  0.00    +0.155 HD
ENDROOT
BRANCH   1  23
ATOM     20  C   UNL     1      -2.770   1.458  -4.873  0.00  0.00    -0.045 A 
ATOM     21  C   UNL     1      -4.039   1.230  -4.375  0.00  0.00    +0.004 A 
ATOM     22  C   UNL     1      -4.272   1.309  -3.015  0.00  0.00    +0.008 A 
ATOM     23  C   UNL     1      -3.236   1.615  -2.153  0.00  0.00    -0.003 A 
ATOM     24  C   UNL     1      -1.968   1.849  -2.652  0.00  0.00    +0.008 A 
ATOM     25  C   UNL     1      -1.734   1.765  -4.011  0.00  0.00    +0.004 A 
BRANCH  20  27
ATOM     26  C   UNL     1      -2.000   2.721  -6.864  0.00  0.00    +0.012 C 
ATOM     27  C   UNL     1      -2.516   1.373  -6.356  0.00  0.00    +0.013 C 
ATOM     28  C   UNL     1      -1.472   0.290  -6.634  0.00  0.00    +0.012 C 
ENDBRANCH  20  27
ENDBRANCH   1  23
BRANCH  18  29
ATOM     29  C   UNL     1      -5.662   3.400   0.936  0.00  0.00    -0.018 A 
ATOM     30  C   UNL     1      -5.181   3.578   2.221  0.00  0.00    +0.009 A 
ATOM     31  C   UNL     1      -5.927   3.153   3.303  0.00  0.00    +0.046 A 
ATOM     32  C   UNL     1      -7.153   2.537   3.101  0.00  0.00    +0.120 A 
ATOM     33  C   UNL     1      -7.631   2.354   1.811  0.00  0.00    +0.046 A 
ATOM     34  C   UNL     1      -6.884   2.787   0.732  0.00  0.00    +0.009 A 
BRANCH  32  35
ATOM     35  O   UNL     1      -7.885   2.112   4.164  0.00  0.00    -0.495 OA
ATOM     36  C   UNL     1      -7.331   2.332   5.463  0.00  0.00    +0.277 C 
ENDBRANCH  32  35
ENDBRANCH  18  29
TORSDOF 4
