REMARK  Name = ZINC64343325
REMARK  7 active torsions:
REMARK  status: ('A' for Active; 'I' for Inactive)
REMARK    1  A    between atoms: C_10  and  C_11
REMARK    2  A    between atoms: N_12  and  N_13
REMARK    3  A    between atoms: C_14  and  C_16
REMARK    4  A    between atoms: C_16  and  C_18
REMARK    5  A    between atoms: C_16  and  N_28
REMARK    6  A    between atoms: C_18  and  C_19
REMARK    7  A    between atoms: C_29  and  C_31
REMARK                            x       y       z     vdW  Elec       q    Type
REMARK                         _______ _______ _______ _____ _____    ______ ____
ROOT
ATOM      1  C   UNL     1       7.426   4.079  -0.163  0.00  0.00    +0.165 C 
ENDROOT
BRANCH   1   3
ATOM      2  N   UNL     1       6.176   1.962  -0.439  0.00  0.00    -0.205 N 
ATOM      3  C   UNL     1       6.141   3.299  -0.277  0.00  0.00    +0.253 C 
ATOM      4  O   UNL     1       5.075   3.875  -0.222  0.00  0.00    -0.272 OA
ATOM      5  H   UNL     1       7.029   1.501  -0.482  0.00  0.00    +0.177 HD
BRANCH   2   7
ATOM      6  C   UNL     1       5.016  -0.052  -0.701  0.00  0.00    +0.139 C 
ATOM      7  N   UNL     1       4.982   1.237  -0.545  0.00  0.00    -0.188 NA
BRANCH   6  17
ATOM      8  C   UNL     1      -0.011   1.041  -0.327  0.00  0.00    +0.001 A 
ATOM      9  C   UNL     1       1.155   1.795  -0.214  0.00  0.00    +0.001 A 
ATOM     10  C   UNL     1       2.380   1.218  -0.367  0.00  0.00    +0.009 A 
ATOM     11  C   UNL     1       2.470  -0.152  -0.641  0.00  0.00    -0.009 A 
ATOM     12  C   UNL     1       1.287  -0.922  -0.757  0.00  0.00    -0.017 A 
ATOM     13  C   UNL     1       0.040  -0.293  -0.593  0.00  0.00    +0.008 A 
ATOM     14  C   UNL     1       1.381  -2.296  -1.032  0.00  0.00    +0.008 A 
ATOM     15  C   UNL     1       2.596  -2.891  -1.188  0.00  0.00    +0.001 A 
ATOM     16  C   UNL     1       3.781  -2.176  -1.083  0.00  0.00    +0.010 A 
ATOM     17  C   UNL     1       3.762  -0.813  -0.813  0.00  0.00    +0.002 A 
ENDBRANCH   6  17
ENDBRANCH   2   7
ENDBRANCH   1   3
BRANCH   1  18
ATOM     18  N   UNL     1       7.120   5.501   0.006  0.00  0.00    -0.300 N 
ATOM     19  C   UNL     1       8.035   6.327   0.551  0.00  0.00    +0.245 C 
ATOM     20  O   UNL     1       9.114   5.891   0.903  0.00  0.00    -0.270 OA
ATOM     21  H   UNL     1       6.259   5.849  -0.274  0.00  0.00    +0.150 HD
BRANCH  19  22
ATOM     22  C   UNL     1       7.727   7.762   0.722  0.00  0.00    +0.037 A 
ATOM     23  C   UNL     1       6.487   8.265   0.324  0.00  0.00    +0.014 A 
ATOM     24  C   UNL     1       6.205   9.605   0.486  0.00  0.00    +0.021 A 
ATOM     25  C   UNL     1       7.149  10.452   1.041  0.00  0.00    +0.041 A 
ATOM     26  C   UNL     1       8.382   9.959   1.438  0.00  0.00    +0.021 A 
ATOM     27  C   UNL     1       8.673   8.620   1.286  0.00  0.00    +0.014 A 
ATOM     28 CL   UNL     1       6.788  12.138   1.240  0.00  0.00    -0.084 Cl
ENDBRANCH  19  22
ENDBRANCH   1  18
BRANCH   1  29
ATOM     29  C   UNL     1       8.256   3.882  -1.433  0.00  0.00    +0.065 C 
BRANCH  29  30
ATOM     30  C   UNL     1       7.500   4.428  -2.616  0.00  0.00    -0.039 C 
ATOM     31  C   UNL     1       7.624   5.659  -3.164  0.00  0.00    -0.001 A 
ATOM     32  C   UNL     1       8.469   6.813  -2.833  0.00  0.00    +0.010 A 
ATOM     33  C   UNL     1       8.367   7.936  -3.581  0.00  0.00    +0.001 A 
ATOM     34  C   UNL     1       7.478   8.024  -4.661  0.00  0.00    +0.002 A 
ATOM     35  C   UNL     1       6.671   7.006  -5.026  0.00  0.00    +0.026 A 
ATOM     36  C   UNL     1       6.694   5.777  -4.309  0.00  0.00    +0.043 A 
ATOM     37  N   UNL     1       6.021   4.664  -4.464  0.00  0.00    -0.380 N 
ATOM     38  C   UNL     1       6.452   3.709  -3.437  0.00  0.00    +0.144 C 
ATOM     39  H   UNL     1       5.352   4.497  -5.146  0.00  0.00    +0.160 HD
ENDBRANCH  29  30
ENDBRANCH   1  29
TORSDOF 7
