REMARK  Name = ZINC37629290
REMARK  19 active torsions:
REMARK  status: ('A' for Active; 'I' for Inactive)
REMARK    1  A    between atoms: C_1  and  C_2
REMARK    2  A    between atoms: C_2  and  O_4
REMARK    3  A    between atoms: O_4  and  C_5
REMARK    4  A    between atoms: C_5  and  C_6
REMARK    5  A    between atoms: C_8  and  O_39
REMARK    6  A    between atoms: C_10  and  O_35
REMARK    7  A    between atoms: C_12  and  O_31
REMARK    8  A    between atoms: C_14  and  O_17
REMARK    9  A    between atoms: O_17  and  C_18
REMARK   10  A    between atoms: C_21  and  C_26
REMARK   11  A    between atoms: C_23  and  O_24
REMARK   12  A    between atoms: O_24  and  C_25
REMARK   13  A    between atoms: C_27  and  C_28
REMARK   14  A    between atoms: O_31  and  C_32
REMARK   15  A    between atoms: C_32  and  C_34
REMARK   16  A    between atoms: O_35  and  C_36
REMARK   17  A    between atoms: C_36  and  C_38
REMARK   18  A    between atoms: O_39  and  C_40
REMARK   19  A    between atoms: C_40  and  C_42
REMARK                            x       y       z     vdW  Elec       q    Type
REMARK                         _______ _______ _______ _____ _____    ______ ____
ROOT
ATOM      1  C   UNL     1      -2.463  -2.721   0.011  0.00  0.00    +0.204 C 
ATOM      2  C   UNL     1      -2.363  -4.244   0.127  0.00  0.00    +0.253 C 
ATOM      3  C   UNL     1      -3.771  -4.845   0.076  0.00  0.00    +0.266 C 
ATOM      4  C   UNL     1      -4.456  -4.405  -1.222  0.00  0.00    +0.289 C 
ATOM      5  C   UNL     1      -4.474  -2.875  -1.286  0.00  0.00    +0.353 C 
ATOM      6  O   UNL     1      -3.137  -2.380  -1.202  0.00  0.00    -0.328 OA
ENDROOT
BRANCH   1   7
ATOM      7  C   UNL     1      -1.057  -2.117   0.001  0.00  0.00    +0.267 C 
BRANCH   7   8
ATOM      8  O   UNL     1      -1.151  -0.691   0.009  0.00  0.00    -0.462 OA
BRANCH   8  10
ATOM      9  C   UNL     1      -0.018   1.503   0.010  0.00  0.00    +0.136 C 
ATOM     10  C   UNL     1       0.002  -0.004   0.002  0.00  0.00    +0.304 C 
ATOM     11  O   UNL     1       1.056  -0.594  -0.011  0.00  0.00    -0.251 OA
ENDBRANCH   8  10
ENDBRANCH   7   8
ENDBRANCH   1   7
BRANCH   5  12
ATOM     12  O   UNL     1      -5.062  -2.457  -2.519  0.00  0.00    -0.456 OA
BRANCH  12  13
ATOM     13  C   UNL     1      -5.251  -1.123  -2.691  0.00  0.00    +0.165 A 
ATOM     14  C   UNL     1      -4.872  -0.236  -1.692  0.00  0.00    +0.050 A 
ATOM     15  C   UNL     1      -5.061   1.118  -1.861  0.00  0.00    +0.012 A 
ATOM     16  C   UNL     1      -5.636   1.602  -3.042  0.00  0.00    -0.021 A 
ATOM     17  C   UNL     1      -6.018   0.706  -4.048  0.00  0.00    +0.057 A 
ATOM     18  C   UNL     1      -5.819  -0.649  -3.873  0.00  0.00    +0.162 A 
BRANCH  18  19
ATOM     19  O   UNL     1      -6.183  -1.521  -4.851  0.00  0.00    -0.491 OA
ATOM     20  C   UNL     1      -6.760  -0.966  -6.034  0.00  0.00    +0.277 C 
ENDBRANCH  18  19
BRANCH  16  21
ATOM     21  C   UNL     1      -5.840   3.045  -3.224  0.00  0.00    +0.015 C 
ATOM     22  C   UNL     1      -5.471   3.909  -2.250  0.00  0.00    +0.096 C 
BRANCH  22  23
ATOM     23  C   UNL     1      -5.666   5.298  -2.426  0.00  0.00    +0.380 C 
ATOM     24  O   UNL     1      -6.170   5.719  -3.460  0.00  0.00    -0.241 OA
ATOM     25  O   UNL     1      -5.332   6.080  -1.544  0.00  0.00    -0.241 OA
ENDBRANCH  22  23
ENDBRANCH  16  21
ENDBRANCH  12  13
ENDBRANCH   5  12
BRANCH   4  26
ATOM     26  O   UNL     1      -3.734  -4.922  -2.341  0.00  0.00    -0.451 OA
BRANCH  26  27
ATOM     27  C   UNL     1      -4.441  -5.187  -3.452  0.00  0.00    +0.305 C 
ATOM     28  O   UNL     1      -5.632  -4.987  -3.472  0.00  0.00    -0.251 OA
ATOM     29  C   UNL     1      -3.748  -5.735  -4.673  0.00  0.00    +0.136 C 
ENDBRANCH  26  27
ENDBRANCH   4  26
BRANCH   3  30
ATOM     30  O   UNL     1      -3.683  -6.271   0.112  0.00  0.00    -0.454 OA
BRANCH  30  31
ATOM     31  C   UNL     1      -4.706  -6.931   0.679  0.00  0.00    +0.304 C 
ATOM     32  O   UNL     1      -5.645  -6.317   1.129  0.00  0.00    -0.251 OA
ATOM     33  C   UNL     1      -4.684  -8.435   0.753  0.00  0.00    +0.136 C 
ENDBRANCH  30  31
ENDBRANCH   3  30
BRANCH   2  34
ATOM     34  O   UNL     1      -1.740  -4.589   1.366  0.00  0.00    -0.455 OA
BRANCH  34  35
ATOM     35  C   UNL     1      -0.403  -4.706   1.363  0.00  0.00    +0.304 C 
ATOM     36  O   UNL     1       0.218  -4.522   0.343  0.00  0.00    -0.251 OA
ATOM     37  C   UNL     1       0.324  -5.067   2.633  0.00  0.00    +0.136 C 
ENDBRANCH  34  35
ENDBRANCH   2  34
TORSDOF 14
