REMARK  Name = ZINC51700571
REMARK  7 active torsions:
REMARK  status: ('A' for Active; 'I' for Inactive)
REMARK    1  A    between atoms: C_1  and  O_2
REMARK    2  A    between atoms: O_2  and  C_3
REMARK    3  A    between atoms: C_3  and  C_4
REMARK    4  A    between atoms: C_6  and  N_18
REMARK    5  A    between atoms: C_8  and  C_10
REMARK    6  A    between atoms: C_10  and  C_11
REMARK    7  A    between atoms: N_18  and  N_19
REMARK                            x       y       z     vdW  Elec       q    Type
REMARK                         _______ _______ _______ _____ _____    ______ ____
ROOT
ATOM      1  C   UNL     1      -1.156  -2.103   0.002  0.00  0.00    +0.072 A 
ATOM      2  C   UNL     1       0.095  -2.689  -0.007  0.00  0.00    +0.070 A 
ATOM      3  C   UNL     1       0.174  -4.083  -0.015  0.00  0.00    +0.136 A 
ATOM      4  N   UNL     1      -0.952  -4.792  -0.014  0.00  0.00    -0.216 NA
ATOM      5  C   UNL     1      -2.124  -4.191  -0.005  0.00  0.00    +0.136 A 
ATOM      6  N   UNL     1      -2.232  -2.877   0.008  0.00  0.00    -0.234 NA
ENDROOT
BRANCH   3   7
ATOM      7  N   UNL     1       1.405  -4.718  -0.025  0.00  0.00    -0.267 N 
ATOM      8  H   UNL     1       2.221  -4.194  -0.027  0.00  0.00    +0.167 HD
BRANCH   7   9
ATOM      9  N   UNL     1       1.469  -6.083  -0.033  0.00  0.00    -0.255 NA
ATOM     10  H   UNL     1       0.957  -6.465  -0.814  0.00  0.00    +0.140 HD
ATOM     11  H   UNL     1       2.427  -6.400  -0.040  0.00  0.00    +0.140 HD
ENDBRANCH   7   9
ENDBRANCH   3   7
BRANCH   1  12
ATOM     12  C   UNL     1      -1.295  -0.603   0.011  0.00  0.00    +0.214 C 
BRANCH  12  14
ATOM     13  C   UNL     1      -0.017   1.425   0.010  0.00  0.00    +0.194 C 
ATOM     14  O   UNL     1       0.002  -0.004   0.002  0.00  0.00    -0.377 OA
ENDBRANCH  12  14
ENDBRANCH   1  12
BRANCH   5  15
ATOM     15  C   UNL     1      -3.377  -5.029  -0.003  0.00  0.00    +0.111 C 
BRANCH  15  16
ATOM     16  C   UNL     1      -3.788  -5.316   1.418  0.00  0.00    -0.039 A 
ATOM     17  C   UNL     1      -3.306  -6.439   2.063  0.00  0.00    +0.004 A 
ATOM     18  C   UNL     1      -3.682  -6.703   3.367  0.00  0.00    +0.001 A 
ATOM     19  C   UNL     1      -4.540  -5.843   4.026  0.00  0.00    +0.015 A 
ATOM     20  C   UNL     1      -5.022  -4.719   3.381  0.00  0.00    +0.018 A 
ATOM     21  C   UNL     1      -4.641  -4.452   2.078  0.00  0.00    +0.019 A 
ATOM     22 BR   UNL     1      -6.197  -3.542   4.282  0.00  0.00    -0.050 Br
ENDBRANCH  15  16
ENDBRANCH   5  15
TORSDOF 6
