REMARK  Name = ZINC59384135
REMARK  5 active torsions:
REMARK  status: ('A' for Active; 'I' for Inactive)
REMARK    1  A    between atoms: C_1  and  C_2
REMARK    2  A    between atoms: C_5  and  N_8
REMARK    3  A    between atoms: C_17  and  C_31
REMARK    4  A    between atoms: N_32  and  C_33
REMARK    5  A    between atoms: C_38  and  N_39
REMARK                            x       y       z     vdW  Elec       q    Type
REMARK                         _______ _______ _______ _____ _____    ______ ____
ROOT
ATOM      1  N   UNL     1       0.519  -4.268  -0.145  0.00  0.00    -0.210 N 
ATOM      2  C   UNL     1       0.287  -5.014  -1.233  0.00  0.00    +0.231 C 
ATOM      3  O   UNL     1       0.265  -4.605  -2.374  0.00  0.00    -0.274 OA
ATOM      4  C   UNL     1       0.057  -6.449  -0.810  0.00  0.00    +0.101 C 
ATOM      5  C   UNL     1       0.197  -6.403   0.721  0.00  0.00    +0.109 C 
ATOM      6  C   UNL     1       0.497  -4.947   1.008  0.00  0.00    +0.232 C 
ATOM      7  O   UNL     1       0.686  -4.472   2.107  0.00  0.00    -0.274 OA
ATOM      8  C   UNL     1       1.384  -7.266   1.198  0.00  0.00    +0.068 C 
ATOM      9  C   UNL     1       1.130  -8.653   0.630  0.00  0.00    -0.027 A 
ATOM     10  C   UNL     1       1.024  -9.793   1.375  0.00  0.00    +0.005 A 
ATOM     11  C   UNL     1       0.789 -10.998   0.726  0.00  0.00    +0.000 A 
ATOM     12  C   UNL     1       0.666 -11.039  -0.651  0.00  0.00    +0.000 A 
ATOM     13  C   UNL     1       0.775  -9.876  -1.402  0.00  0.00    +0.004 A 
ATOM     14  C   UNL     1       1.005  -8.695  -0.756  0.00  0.00    -0.035 A 
ATOM     15  C   UNL     1       1.145  -7.334  -1.454  0.00  0.00    +0.062 C 
ATOM     16  C   UNL     1       2.470  -6.765  -0.971  0.00  0.00    -0.035 A 
ATOM     17  C   UNL     1       2.595  -6.742   0.441  0.00  0.00    -0.027 A 
ATOM     18  C   UNL     1       3.732  -6.262   1.025  0.00  0.00    +0.005 A 
ATOM     19  C   UNL     1       4.764  -5.814   0.211  0.00  0.00    +0.000 A 
ATOM     20  C   UNL     1       4.639  -5.854  -1.165  0.00  0.00    +0.000 A 
ATOM     21  C   UNL     1       3.469  -6.315  -1.786  0.00  0.00    +0.004 A 
ENDROOT
BRANCH   1  26
ATOM     22  C   UNL     1       1.537   1.310  -0.408  0.00  0.00    +0.044 C 
ATOM     23  C   UNL     1       1.267  -0.171  -0.338  0.00  0.00    -0.050 A 
ATOM     24  C   UNL     1       2.266  -1.037   0.067  0.00  0.00    +0.005 A 
ATOM     25  C   UNL     1       2.022  -2.394   0.132  0.00  0.00    +0.024 A 
ATOM     26  C   UNL     1       0.770  -2.890  -0.210  0.00  0.00    +0.044 A 
ATOM     27  C   UNL     1      -0.231  -2.019  -0.615  0.00  0.00    +0.024 A 
ATOM     28  C   UNL     1       0.018  -0.661  -0.674  0.00  0.00    +0.005 A 
ENDBRANCH   1  26
BRANCH   8  29
ATOM     29  C   UNL     1       1.568  -7.244   2.694  0.00  0.00    +0.101 C 
ATOM     30  N   UNL     1       0.715  -6.625   3.440  0.00  0.00    -0.256 NA
BRANCH  30  31
ATOM     31  C   UNL     1       0.917  -6.549   4.796  0.00  0.00    +0.094 A 
ATOM     32  C   UNL     1       2.164  -6.178   5.298  0.00  0.00    +0.030 A 
ATOM     33  C   UNL     1       2.361  -6.103   6.662  0.00  0.00    +0.002 A 
ATOM     34  C   UNL     1       1.324  -6.396   7.530  0.00  0.00    +0.002 A 
ATOM     35  C   UNL     1       0.085  -6.765   7.038  0.00  0.00    +0.035 A 
ATOM     36  C   UNL     1      -0.126  -6.837   5.676  0.00  0.00    +0.151 A 
BRANCH  36  37
ATOM     37  N   UNL     1      -1.454  -7.226   5.151  0.00  0.00    +0.059 N 
ATOM     38  O   UNL     1      -2.381  -7.384   5.910  0.00  0.00    -0.126 OA
ATOM     39  O   UNL     1      -1.611  -7.385   3.963  0.00  0.00    -0.126 OA
ENDBRANCH  36  37
ENDBRANCH  30  31
ENDBRANCH   8  29
TORSDOF 4
