REMARK  Name = ZINC15227285
REMARK  8 active torsions:
REMARK  status: ('A' for Active; 'I' for Inactive)
REMARK    1  A    between atoms: C_1  and  C_2
REMARK    2  A    between atoms: C_2  and  O_3
REMARK    3  A    between atoms: O_3  and  C_4
REMARK    4  A    between atoms: C_7  and  N_10
REMARK    5  A    between atoms: C_19  and  S_20
REMARK    6  A    between atoms: S_20  and  C_21
REMARK    7  A    between atoms: C_21  and  C_23
REMARK    8  A    between atoms: C_21  and  C_24
REMARK                            x       y       z     vdW  Elec       q    Type
REMARK                         _______ _______ _______ _____ _____    ______ ____
ROOT
ATOM      1  N   UNL     1      -1.652   4.494  -4.529  0.00  0.00    -0.255 N 
ATOM      2  C   UNL     1      -1.890   3.563  -3.575  0.00  0.00    +0.268 A 
ATOM      3  O   UNL     1      -2.249   2.431  -3.852  0.00  0.00    -0.267 OA
ATOM      4  C   UNL     1      -1.693   3.989  -2.221  0.00  0.00    +0.076 A 
ATOM      5  C   UNL     1      -1.879   3.187  -1.023  0.00  0.00    -0.023 A 
ATOM      6  C   UNL     1      -1.637   3.798   0.159  0.00  0.00    -0.004 A 
ATOM      7  S   UNL     1      -1.151   5.453  -0.263  0.00  0.00    -0.073 S 
ATOM      8  C   UNL     1      -1.276   5.324  -2.018  0.00  0.00    +0.117 A 
ATOM      9  N   UNL     1      -1.059   6.191  -2.999  0.00  0.00    -0.215 NA
ATOM     10  C   UNL     1      -1.250   5.765  -4.241  0.00  0.00    +0.178 A 
ATOM     11  C   UNL     1      -1.753   3.203   1.529  0.00  0.00    +0.043 C 
ATOM     12  C   UNL     1      -2.552   1.896   1.424  0.00  0.00    +0.005 C 
ATOM     13  C   UNL     1      -1.982   1.066   0.270  0.00  0.00    +0.005 C 
ATOM     14  C   UNL     1      -2.327   1.728  -1.064  0.00  0.00    +0.037 C 
ENDROOT
BRANCH   1  18
ATOM     15  C   UNL     1      -2.174   3.428  -8.527  0.00  0.00    +0.121 A 
ATOM     16  C   UNL     1      -0.940   3.252  -7.918  0.00  0.00    +0.047 A 
ATOM     17  C   UNL     1      -0.767   3.605  -6.594  0.00  0.00    +0.030 A 
ATOM     18  C   UNL     1      -1.828   4.136  -5.873  0.00  0.00    +0.052 A 
ATOM     19  C   UNL     1      -3.064   4.306  -6.482  0.00  0.00    +0.030 A 
ATOM     20  C   UNL     1      -3.234   3.958  -7.807  0.00  0.00    +0.047 A 
BRANCH  15  21
ATOM     21  O   UNL     1      -2.344   3.080  -9.831  0.00  0.00    -0.492 OA
BRANCH  21  23
ATOM     22  C   UNL     1      -3.639   2.841 -11.857  0.00  0.00    +0.048 C 
ATOM     23  C   UNL     1      -3.640   3.288 -10.394  0.00  0.00    +0.225 C 
ENDBRANCH  21  23
ENDBRANCH  15  21
ENDBRANCH   1  18
BRANCH  10  24
ATOM     24  S   UNL     1      -0.973   6.886  -5.572  0.00  0.00    -0.075 S 
BRANCH  24  25
ATOM     25  C   UNL     1      -0.478   8.359  -4.644  0.00  0.00    +0.137 C 
ATOM     26  C   UNL     1       0.843   8.086  -3.921  0.00  0.00    +0.029 C 
BRANCH  25  27
ATOM     27  C   UNL     1      -0.301   9.515  -5.594  0.00  0.00    +0.233 C 
ATOM     28  O   UNL     1      -0.129   9.307  -6.776  0.00  0.00    -0.274 OA
ATOM     29  N   UNL     1      -0.333  10.780  -5.130  0.00  0.00    -0.239 N 
ATOM     30  C   UNL     1      -0.174  11.814  -5.980  0.00  0.00    +0.303 C 
ATOM     31  O   UNL     1      -0.002  11.605  -7.165  0.00  0.00    -0.253 OA
ATOM     32  N   UNL     1      -0.206  13.079  -5.516  0.00  0.00    -0.313 N 
ATOM     33  H   UNL     1      -0.470  10.946  -4.184  0.00  0.00    +0.159 HD
ATOM     34  H   UNL     1      -0.343  13.245  -4.570  0.00  0.00    +0.146 HD
ATOM     35  H   UNL     1      -0.092  13.823  -6.127  0.00  0.00    +0.146 HD
ENDBRANCH  25  27
ENDBRANCH  24  25
ENDBRANCH  10  24
TORSDOF 6
