REMARK  Name = ZINC59391419
REMARK  10 active torsions:
REMARK  status: ('A' for Active; 'I' for Inactive)
REMARK    1  A    between atoms: C_1  and  C_2
REMARK    2  A    between atoms: C_5  and  C_8
REMARK    3  A    between atoms: C_8  and  C_10
REMARK    4  A    between atoms: C_10  and  C_12
REMARK    5  A    between atoms: C_10  and  N_21
REMARK    6  A    between atoms: C_15  and  N_18
REMARK    7  A    between atoms: N_21  and  C_22
REMARK    8  A    between atoms: C_23  and  C_35
REMARK    9  A    between atoms: N_24  and  C_34
REMARK   10  A    between atoms: N_25  and  C_28
REMARK                            x       y       z     vdW  Elec       q    Type
REMARK                         _______ _______ _______ _____ _____    ______ ____
ROOT
ATOM      1  C   UNL     1       0.694  -5.265   1.267  0.00  0.00    +0.173 C 
ENDROOT
BRANCH   1   2
ATOM      2  C   UNL     1       2.138  -5.461   1.651  0.00  0.00    -0.020 A 
ATOM      3  C   UNL     1       2.935  -6.327   0.926  0.00  0.00    +0.008 A 
ATOM      4  C   UNL     1       4.260  -6.507   1.279  0.00  0.00    +0.033 A 
ATOM      5  C   UNL     1       4.787  -5.820   2.356  0.00  0.00    +0.126 A 
ATOM      6  C   UNL     1       3.990  -4.953   3.080  0.00  0.00    +0.033 A 
ATOM      7  C   UNL     1       2.667  -4.770   2.725  0.00  0.00    +0.008 A 
BRANCH   5   8
ATOM      8  N   UNL     1       6.205  -6.013   2.734  0.00  0.00    +0.056 N 
ATOM      9  O   UNL     1       6.902  -6.771   2.101  0.00  0.00    -0.126 OA
ATOM     10  O   UNL     1       6.667  -5.412   3.676  0.00  0.00    -0.126 OA
ENDBRANCH   5   8
ENDBRANCH   1   2
BRANCH   1  11
ATOM     11  C   UNL     1       0.616  -4.410   0.029  0.00  0.00    +0.188 C 
ATOM     12  O   UNL     1       0.530  -4.930  -1.063  0.00  0.00    -0.290 OA
BRANCH  11  17
ATOM     13  C   UNL     1       0.719   1.320   0.481  0.00  0.00    +0.044 C 
ATOM     14  C   UNL     1       0.692  -0.182   0.363  0.00  0.00    -0.050 A 
ATOM     15  C   UNL     1       0.624  -0.773  -0.887  0.00  0.00    +0.004 A 
ATOM     16  C   UNL     1       0.599  -2.146  -1.004  0.00  0.00    +0.012 A 
ATOM     17  C   UNL     1       0.643  -2.943   0.144  0.00  0.00    +0.020 A 
ATOM     18  C   UNL     1       0.712  -2.339   1.404  0.00  0.00    +0.012 A 
ATOM     19  C   UNL     1       0.742  -0.964   1.504  0.00  0.00    +0.004 A 
ENDBRANCH  11  17
ENDBRANCH   1  11
BRANCH   1  20
ATOM     20  N   UNL     1       0.079  -6.568   1.001  0.00  0.00    -0.325 N 
ATOM     21  H   UNL     1       0.034  -6.906   0.093  0.00  0.00    +0.147 HD
BRANCH  20  22
ATOM     22  C   UNL     1      -0.449  -7.330   2.065  0.00  0.00    +0.116 A 
ATOM     23  C   UNL     1      -1.034  -8.541   1.959  0.00  0.00    +0.059 A 
ATOM     24  N   UNL     1      -1.413  -8.949   3.215  0.00  0.00    -0.282 N 
ATOM     25  N   UNL     1      -1.046  -7.951   4.127  0.00  0.00    -0.216 N 
ATOM     26  C   UNL     1      -0.450  -6.959   3.434  0.00  0.00    +0.293 A 
ATOM     27  O   UNL     1       0.002  -5.929   3.900  0.00  0.00    -0.264 OA
ATOM     28  C   UNL     1      -2.084 -10.209   3.543  0.00  0.00    +0.171 C 
ATOM     29  C   UNL     1      -1.238  -9.314   0.681  0.00  0.00    +0.067 C 
BRANCH  25  30
ATOM     30  C   UNL     1      -1.256  -7.980   5.509  0.00  0.00    +0.067 A 
ATOM     31  C   UNL     1      -1.822  -6.886   6.151  0.00  0.00    +0.028 A 
ATOM     32  C   UNL     1      -2.027  -6.918   7.516  0.00  0.00    +0.002 A 
ATOM     33  C   UNL     1      -1.670  -8.038   8.244  0.00  0.00    +0.000 A 
ATOM     34  C   UNL     1      -1.106  -9.129   7.609  0.00  0.00    +0.002 A 
ATOM     35  C   UNL     1      -0.903  -9.105   6.243  0.00  0.00    +0.028 A 
ENDBRANCH  25  30
ENDBRANCH  20  22
ENDBRANCH   1  20
TORSDOF 7
