REMARK  Name = ZINC43255839
REMARK  7 active torsions:
REMARK  status: ('A' for Active; 'I' for Inactive)
REMARK    1  A    between atoms: C_1  and  C_2
REMARK    2  A    between atoms: C_2  and  C_3
REMARK    3  A    between atoms: C_3  and  C_5
REMARK    4  A    between atoms: C_3  and  N_21
REMARK    5  A    between atoms: C_5  and  C_7
REMARK    6  A    between atoms: C_5  and  O_13
REMARK    7  A    between atoms: O_13  and  C_14
REMARK                            x       y       z     vdW  Elec       q    Type
REMARK                         _______ _______ _______ _____ _____    ______ ____
ROOT
ATOM      1  C   UNL     1       0.861  -2.049  -1.208  0.00  0.00    +0.196 C 
ENDROOT
BRANCH   1   2
ATOM      2  C   UNL     1       1.789  -2.568  -0.140  0.00  0.00    +0.030 A 
ATOM      3  C   UNL     1       3.108  -2.863  -0.226  0.00  0.00    +0.016 A 
ATOM      4  C   UNL     1       3.765  -3.333   0.897  0.00  0.00    +0.028 A 
ATOM      5  C   UNL     1       3.068  -3.484   2.051  0.00  0.00    +0.078 A 
ATOM      6  S   UNL     1       1.435  -2.949   1.568  0.00  0.00    -0.078 S 
ATOM      7 CL   UNL     1       3.622  -4.047   3.597  0.00  0.00    -0.076 Cl
ENDBRANCH   1   2
BRANCH   1   8
ATOM      8  C   UNL     1       0.783  -0.523  -1.117  0.00  0.00    -0.029 C 
BRANCH   8   9
ATOM      9  N   UNL     1      -0.025  -0.007  -2.231  0.00  0.00    +0.383 N 
ATOM     10  H   UNL     1      -0.955  -0.395  -2.179  0.00  0.00    -0.089 HD
ATOM     11  H   UNL     1      -0.076   0.999  -2.171  0.00  0.00    -0.089 HD
ATOM     12  H   UNL     1       0.402  -0.271  -3.106  0.00  0.00    -0.089 HD
ENDBRANCH   8   9
BRANCH   8  14
ATOM     13  C   UNL     1       0.172   1.399   0.356  0.00  0.00    +0.002 C 
ATOM     14  C   UNL     1       0.137  -0.123   0.210  0.00  0.00    -0.016 C 
ENDBRANCH   8  14
ENDBRANCH   1   8
BRANCH   1  15
ATOM     15  O   UNL     1      -0.442  -2.604  -1.018  0.00  0.00    -0.484 OA
BRANCH  15  16
ATOM     16  C   UNL     1      -1.192  -2.813  -2.133  0.00  0.00    +0.135 A 
ATOM     17  C   UNL     1      -0.656  -2.561  -3.388  0.00  0.00    +0.047 A 
ATOM     18  C   UNL     1      -1.420  -2.775  -4.519  0.00  0.00    +0.004 A 
ATOM     19  C   UNL     1      -2.717  -3.239  -4.402  0.00  0.00    +0.001 A 
ATOM     20  C   UNL     1      -3.254  -3.490  -3.153  0.00  0.00    +0.019 A 
ATOM     21  C   UNL     1      -2.492  -3.284  -2.018  0.00  0.00    +0.059 A 
ATOM     22 BR   UNL     1      -3.223  -3.637  -0.310  0.00  0.00    -0.047 Br
ENDBRANCH  15  16
ENDBRANCH   1  15
TORSDOF 6
