REMARK  Name = ZINC63375693
REMARK  7 active torsions:
REMARK  status: ('A' for Active; 'I' for Inactive)
REMARK    1  A    between atoms: C_1  and  O_2
REMARK    2  A    between atoms: O_2  and  C_3
REMARK    3  A    between atoms: C_8  and  O_9
REMARK    4  A    between atoms: O_9  and  C_10
REMARK    5  A    between atoms: C_27  and  C_29
REMARK    6  A    between atoms: N_31  and  C_32
REMARK    7  A    between atoms: C_32  and  C_33
REMARK                            x       y       z     vdW  Elec       q    Type
REMARK                         _______ _______ _______ _____ _____    ______ ____
ROOT
ATOM      1  C   UNL     1      -0.442  -0.584   1.929  0.00  0.00    +0.162 A 
ATOM      2  C   UNL     1       0.221   0.161   2.886  0.00  0.00    +0.050 A 
ATOM      3  C   UNL     1       1.123  -0.420   3.775  0.00  0.00    +0.010 A 
ATOM      4  C   UNL     1       1.330  -1.776   3.665  0.00  0.00    -0.009 A 
ATOM      5  C   UNL     1       0.656  -2.553   2.701  0.00  0.00    +0.087 A 
ATOM      6  C   UNL     1      -0.250  -1.964   1.809  0.00  0.00    +0.174 A 
ATOM      7  C   UNL     1       1.068  -3.946   2.861  0.00  0.00    +0.252 C 
ATOM      8  O   UNL     1       0.708  -4.864   2.150  0.00  0.00    -0.270 OA
ATOM      9  N   UNL     1       1.905  -4.064   3.910  0.00  0.00    -0.276 N 
ATOM     10  C   UNL     1       2.213  -2.714   4.420  0.00  0.00    +0.135 C 
ATOM     11  C   UNL     1       1.911  -2.691   5.918  0.00  0.00    +0.131 C 
ATOM     12  C   UNL     1       1.354  -4.056   6.290  0.00  0.00    -0.034 C 
ATOM     13  C   UNL     1       0.171  -3.833   6.857  0.00  0.00    -0.001 A 
ATOM     14  C   UNL     1      -0.807  -4.747   7.469  0.00  0.00    +0.010 A 
ATOM     15  C   UNL     1      -1.940  -4.173   7.955  0.00  0.00    +0.001 A 
ATOM     16  C   UNL     1      -2.194  -2.800   7.893  0.00  0.00    +0.002 A 
ATOM     17  C   UNL     1      -1.349  -1.887   7.352  0.00  0.00    +0.026 A 
ATOM     18  C   UNL     1      -0.122  -2.369   6.810  0.00  0.00    +0.043 A 
ATOM     19  N   UNL     1       0.871  -1.715   6.251  0.00  0.00    -0.375 N 
ATOM     20  C   UNL     1       2.050  -5.356   5.971  0.00  0.00    +0.065 C 
ATOM     21  C   UNL     1       2.419  -5.318   4.476  0.00  0.00    +0.167 C 
ATOM     22  H   UNL     1       0.914  -0.761   6.082  0.00  0.00    +0.160 HD
ENDROOT
BRANCH  21  23
ATOM     23  C   UNL     1       1.792  -6.491   3.768  0.00  0.00    +0.234 C 
ATOM     24  O   UNL     1       0.586  -6.557   3.654  0.00  0.00    -0.274 OA
ATOM     25  N   UNL     1       2.571  -7.466   3.260  0.00  0.00    -0.310 N 
ATOM     26  H   UNL     1       3.535  -7.414   3.351  0.00  0.00    +0.149 HD
BRANCH  25  27
ATOM     27  C   UNL     1       1.962  -8.607   2.571  0.00  0.00    +0.139 C 
BRANCH  27  28
ATOM     28  C   UNL     1       3.042  -9.547   2.103  0.00  0.00    -0.030 A 
ATOM     29  C   UNL     1       3.607  -9.382   0.852  0.00  0.00    +0.005 A 
ATOM     30  C   UNL     1       4.598 -10.245   0.422  0.00  0.00    +0.000 A 
ATOM     31  C   UNL     1       5.025 -11.271   1.244  0.00  0.00    +0.000 A 
ATOM     32  C   UNL     1       4.461 -11.435   2.495  0.00  0.00    +0.000 A 
ATOM     33  C   UNL     1       3.473 -10.570   2.926  0.00  0.00    +0.005 A 
ENDBRANCH  27  28
ENDBRANCH  25  27
ENDBRANCH  21  23
BRANCH   1  35
ATOM     34  C   UNL     1      -1.467   1.452   1.248  0.00  0.00    +0.277 C 
ATOM     35  O   UNL     1      -1.306   0.041   1.085  0.00  0.00    -0.491 OA
ENDBRANCH   1  35
BRANCH   6  36
ATOM     36  O   UNL     1      -0.905  -2.695   0.872  0.00  0.00    -0.491 OA
ATOM     37  C   UNL     1      -0.269  -2.841  -0.399  0.00  0.00    +0.277 C 
ENDBRANCH   6  36
TORSDOF 5
