REMARK  Name = ZINC02408590
REMARK  9 active torsions:
REMARK  status: ('A' for Active; 'I' for Inactive)
REMARK    1  A    between atoms: C_1  and  C_2
REMARK    2  A    between atoms: C_2  and  C_3
REMARK    3  A    between atoms: C_2  and  C_4
REMARK    4  A    between atoms: C_7  and  C_10
REMARK    5  A    between atoms: C_24  and  S_37
REMARK    6  A    between atoms: C_27  and  C_29
REMARK    7  A    between atoms: C_32  and  O_35
REMARK    8  A    between atoms: O_35  and  C_36
REMARK    9  A    between atoms: S_37  and  C_38
REMARK                            x       y       z     vdW  Elec       q    Type
REMARK                         _______ _______ _______ _____ _____    ______ ____
ROOT
ATOM      1  C   UNL     1      -5.419  -2.005   0.043  0.00  0.00    +0.234 C 
ATOM      2  C   UNL     1      -6.271  -1.152  -0.851  0.00  0.00    +0.025 C 
ATOM      3  C   UNL     1      -6.410  -1.452  -2.159  0.00  0.00    +0.058 C 
ATOM      4  C   UNL     1      -5.700  -2.656  -2.663  0.00  0.00    +0.040 A 
ATOM      5  C   UNL     1      -5.509  -2.869  -4.021  0.00  0.00    +0.013 A 
ATOM      6  C   UNL     1      -4.841  -4.002  -4.447  0.00  0.00    +0.001 A 
ATOM      7  C   UNL     1      -4.367  -4.918  -3.525  0.00  0.00    +0.004 A 
ATOM      8  C   UNL     1      -4.555  -4.714  -2.171  0.00  0.00    +0.046 A 
ATOM      9  C   UNL     1      -5.222  -3.584  -1.730  0.00  0.00    +0.131 A 
ATOM     10  O   UNL     1      -5.426  -3.359  -0.411  0.00  0.00    -0.479 OA
ATOM     11  N   UNL     1      -7.168  -0.691  -2.985  0.00  0.00    -0.326 N 
ATOM     12  C   UNL     1      -7.831   0.381  -2.605  0.00  0.00    +0.216 C 
ATOM     13  N   UNL     1      -8.618   1.232  -3.287  0.00  0.00    -0.192 NA
ATOM     14  C   UNL     1      -9.079   2.172  -2.485  0.00  0.00    +0.174 C 
ATOM     15  N   UNL     1      -8.594   1.959  -1.222  0.00  0.00    -0.239 N 
ATOM     16  N   UNL     1      -7.794   0.816  -1.295  0.00  0.00    -0.209 N 
ATOM     17  C   UNL     1      -6.996   0.064  -0.319  0.00  0.00    +0.159 C 
ATOM     18  H   UNL     1      -7.225  -0.953  -3.917  0.00  0.00    +0.169 HD
ATOM     19  H   UNL     1      -8.771   2.496  -0.433  0.00  0.00    +0.172 HD
ENDROOT
BRANCH   1  23
ATOM     20  C   UNL     1      -1.412  -0.526   0.013  0.00  0.00    -0.045 A 
ATOM     21  C   UNL     1      -2.259  -0.204   1.056  0.00  0.00    +0.004 A 
ATOM     22  C   UNL     1      -3.556  -0.683   1.066  0.00  0.00    +0.008 A 
ATOM     23  C   UNL     1      -4.006  -1.482   0.032  0.00  0.00    -0.003 A 
ATOM     24  C   UNL     1      -3.159  -1.803  -1.012  0.00  0.00    +0.008 A 
ATOM     25  C   UNL     1      -1.863  -1.321  -1.024  0.00  0.00    +0.004 A 
BRANCH  20  27
ATOM     26  C   UNL     1      -0.019   1.526   0.010  0.00  0.00    +0.012 C 
ATOM     27  C   UNL     1       0.002  -0.004   0.002  0.00  0.00    +0.013 C 
ATOM     28  C   UNL     1       0.742  -0.511   1.242  0.00  0.00    +0.012 C 
ENDBRANCH  20  27
ENDBRANCH   1  23
BRANCH  17  29
ATOM     29  C   UNL     1      -5.973   1.000   0.272  0.00  0.00    -0.021 A 
ATOM     30  C   UNL     1      -5.237   1.829  -0.554  0.00  0.00    +0.009 A 
ATOM     31  C   UNL     1      -4.299   2.688  -0.014  0.00  0.00    +0.046 A 
ATOM     32  C   UNL     1      -4.096   2.718   1.358  0.00  0.00    +0.120 A 
ATOM     33  C   UNL     1      -4.836   1.885   2.185  0.00  0.00    +0.046 A 
ATOM     34  C   UNL     1      -5.777   1.032   1.641  0.00  0.00    +0.009 A 
BRANCH  32  35
ATOM     35  O   UNL     1      -3.173   3.561   1.891  0.00  0.00    -0.495 OA
ATOM     36  C   UNL     1      -3.017   3.538   3.311  0.00  0.00    +0.277 C 
ENDBRANCH  32  35
ENDBRANCH  17  29
BRANCH  14  37
ATOM     37  S   UNL     1     -10.147   3.490  -2.962  0.00  0.00    -0.092 S 
ATOM     38  C   UNL     1     -10.418   3.215  -4.735  0.00  0.00    +0.093 C 
ENDBRANCH  14  37
TORSDOF 5
