REMARK  Name = ZINC06408475
REMARK  8 active torsions:
REMARK  status: ('A' for Active; 'I' for Inactive)
REMARK    1  A    between atoms: C_1  and  C_2
REMARK    2  A    between atoms: C_9  and  C_14
REMARK    3  A    between atoms: C_14  and  N_64
REMARK    4  A    between atoms: C_15  and  C_16
REMARK    5  A    between atoms: C_15  and  N_64
REMARK    6  A    between atoms: N_20  and  C_21
REMARK    7  A    between atoms: C_21  and  C_22
REMARK    8  A    between atoms: C_28  and  N_64
REMARK                            x       y       z     vdW  Elec       q    Type
REMARK                         _______ _______ _______ _____ _____    ______ ____
ROOT
ATOM      1  N   UNL     1       0.112   4.420   0.933  0.00  0.00    +0.389 N 
ATOM      2  H   UNL     1      -0.726   4.982   1.124  0.00  0.00    -0.080 HD
ENDROOT
BRANCH   1   3
ATOM      3  C   UNL     1      -0.206   3.425  -0.113  0.00  0.00    -0.068 C 
ATOM      4  C   UNL     1      -1.518   2.729   0.252  0.00  0.00    -0.015 C 
ATOM      5  C   UNL     1      -1.873   1.709  -0.832  0.00  0.00    -0.002 C 
ATOM      6  C   UNL     1      -0.757   0.668  -0.939  0.00  0.00    -0.000 C 
ATOM      7  C   UNL     1       0.556   1.365  -1.304  0.00  0.00    -0.002 C 
ATOM      8  C   UNL     1       0.911   2.384  -0.220  0.00  0.00    -0.015 C 
ENDBRANCH   1   3
BRANCH   1   9
ATOM      9  C   UNL     1       1.194   5.313   0.469  0.00  0.00    -0.037 C 
BRANCH   9  18
ATOM     10  C   UNL     1      -1.928  11.796  -1.491  0.00  0.00    +0.044 C 
ATOM     11  C   UNL     1      -1.383  10.438  -1.851  0.00  0.00    -0.050 A 
ATOM     12  C   UNL     1      -1.389  10.023  -3.176  0.00  0.00    +0.005 A 
ATOM     13  C   UNL     1      -0.897   8.785  -3.527  0.00  0.00    +0.026 A 
ATOM     14  C   UNL     1      -0.387   7.941  -2.546  0.00  0.00    +0.049 A 
ATOM     15  C   UNL     1      -0.382   8.365  -1.204  0.00  0.00    -0.001 A 
ATOM     16  C   UNL     1      -0.888   9.626  -0.870  0.00  0.00    +0.013 A 
ATOM     17  C   UNL     1       0.156   7.469  -0.179  0.00  0.00    +0.017 A 
ATOM     18  C   UNL     1       0.632   6.259  -0.561  0.00  0.00    +0.001 A 
ATOM     19  C   UNL     1       0.609   5.883  -1.922  0.00  0.00    +0.251 A 
ATOM     20  O   UNL     1       1.047   4.793  -2.245  0.00  0.00    -0.268 OA
ATOM     21  N   UNL     1       0.112   6.697  -2.870  0.00  0.00    -0.322 N 
ATOM     22  H   UNL     1       0.107   6.406  -3.795  0.00  0.00    +0.169 HD
ENDBRANCH   9  18
ENDBRANCH   1   9
BRANCH   1  23
ATOM     23  C   UNL     1       0.522   3.732   2.176  0.00  0.00    +0.001 C 
BRANCH  23  24
ATOM     24  C   UNL     1       0.391   4.697   3.326  0.00  0.00    +0.135 A 
ATOM     25  N   UNL     1      -0.699   4.962   4.004  0.00  0.00    -0.115 NA
ATOM     26  N   UNL     1      -0.405   5.839   4.902  0.00  0.00    -0.023 NA
ATOM     27  N   UNL     1       0.845   6.136   4.817  0.00  0.00    -0.044 NA
ATOM     28  N   UNL     1       1.371   5.450   3.859  0.00  0.00    -0.229 N 
BRANCH  28  29
ATOM     29  C   UNL     1       2.771   5.487   3.429  0.00  0.00    +0.178 C 
BRANCH  29  30
ATOM     30  C   UNL     1       3.587   4.498   4.262  0.00  0.00    +0.140 C 
ATOM     31  C   UNL     1       5.078   4.587   3.869  0.00  0.00    +0.035 C 
ATOM     32  C   UNL     1       5.518   3.098   3.908  0.00  0.00    +0.031 C 
ATOM     33  C   UNL     1       4.223   2.395   3.428  0.00  0.00    +0.160 C 
ATOM     34  O   UNL     1       3.149   3.160   3.996  0.00  0.00    -0.375 OA
ENDBRANCH  29  30
ENDBRANCH  28  29
ENDBRANCH  23  24
ENDBRANCH   1  23
TORSDOF 7
