REMARK  Name = ZINC48843956
REMARK  3 active torsions:
REMARK  status: ('A' for Active; 'I' for Inactive)
REMARK    1  A    between atoms: C_4  and  N_10
REMARK    2  A    between atoms: C_6  and  N_9
REMARK    3  A    between atoms: C_17  and  C_20
REMARK                            x       y       z     vdW  Elec       q    Type
REMARK                         _______ _______ _______ _____ _____    ______ ____
ROOT
ATOM      1  N   UNL     1       2.886  -0.466   2.418  0.00  0.00    -0.298 N 
ATOM      2  C   UNL     1       4.229  -0.577   2.402  0.00  0.00    +0.302 C 
ATOM      3  O   UNL     1       4.845  -0.362   1.376  0.00  0.00    -0.253 OA
ATOM      4  N   UNL     1       4.889  -0.927   3.524  0.00  0.00    -0.285 N 
ATOM      5  C   UNL     1       6.358  -0.939   3.555  0.00  0.00    +0.109 C 
ATOM      6  C   UNL     1       6.834  -0.083   4.733  0.00  0.00    +0.020 C 
ATOM      7  C   UNL     1       6.174  -0.583   6.021  0.00  0.00    +0.018 C 
ATOM      8  C   UNL     1       4.654  -0.442   5.904  0.00  0.00    +0.119 C 
ATOM      9  C   UNL     1       4.154  -1.296   4.741  0.00  0.00    +0.124 C 
ATOM     10  H   UNL     1       2.388  -0.708   3.214  0.00  0.00    +0.150 HD
ENDROOT
BRANCH   1  14
ATOM     11  C   UNL     1      -0.018   1.531   0.013  0.00  0.00    -0.001 C 
ATOM     12  C   UNL     1       1.418   2.059   0.003  0.00  0.00    +0.002 C 
ATOM     13  C   UNL     1       2.158   1.551   1.242  0.00  0.00    +0.021 C 
ATOM     14  C   UNL     1       2.178   0.021   1.231  0.00  0.00    +0.060 C 
ATOM     15  C   UNL     1       0.742  -0.508   1.242  0.00  0.00    -0.054 C 
ATOM     16  C   UNL     1       0.002   0.001   0.003  0.00  0.00    -0.014 C 
BRANCH  15  17
ATOM     17  N   UNL     1       0.761  -1.977   1.232  0.00  0.00    +0.381 N 
ATOM     18  H   UNL     1       1.249  -2.312   2.049  0.00  0.00    -0.090 HD
ATOM     19  H   UNL     1      -0.186  -2.325   1.239  0.00  0.00    -0.090 HD
ATOM     20  H   UNL     1       1.233  -2.301   0.402  0.00  0.00    -0.090 HD
ENDBRANCH  15  17
ENDBRANCH   1  14
BRANCH   8  21
ATOM     21  C   UNL     1       4.007  -0.903   7.185  0.00  0.00    +0.361 C 
ATOM     22  O   UNL     1       3.055  -0.292   7.641  0.00  0.00    -0.246 OA
ATOM     23  O   UNL     1       4.435  -1.887   7.764  0.00  0.00    -0.246 OA
ENDBRANCH   8  21
TORSDOF 3
