REMARK  Name = ZINC13018356
REMARK  11 active torsions:
REMARK  status: ('A' for Active; 'I' for Inactive)
REMARK    1  A    between atoms: C_1  and  C_2
REMARK    2  A    between atoms: C_2  and  C_3
REMARK    3  A    between atoms: C_3  and  C_4
REMARK    4  A    between atoms: C_7  and  S_12
REMARK    5  A    between atoms: N_8  and  C_9
REMARK    6  A    between atoms: C_9  and  C_10
REMARK    7  A    between atoms: S_12  and  C_13
REMARK    8  A    between atoms: C_13  and  C_15
REMARK    9  A    between atoms: C_13  and  C_16
REMARK   10  A    between atoms: N_21  and  S_24
REMARK   11  A    between atoms: S_24  and  C_27
REMARK                            x       y       z     vdW  Elec       q    Type
REMARK                         _______ _______ _______ _____ _____    ______ ____
ROOT
ATOM      1  C   UNL     1       5.441   3.049   0.090  0.00  0.00    +0.229 C 
ATOM      2  O   UNL     1       6.287   2.266  -0.288  0.00  0.00    -0.274 OA
ATOM      3  N   UNL     1       5.806   4.238   0.609  0.00  0.00    -0.298 N 
ATOM      4  C   UNL     1       4.792   5.199   1.065  0.00  0.00    +0.125 C 
ATOM      5  C   UNL     1       5.088   5.560   2.530  0.00  0.00    +0.128 C 
ATOM      6  N   UNL     1       6.508   5.921   2.645  0.00  0.00    -0.174 NA
ATOM      7  C   UNL     1       7.523   4.963   2.184  0.00  0.00    +0.128 C 
ATOM      8  C   UNL     1       7.226   4.599   0.724  0.00  0.00    +0.125 C 
ENDROOT
BRANCH   6   9
ATOM      9  S   UNL     1       6.957   7.382   3.281  0.00  0.00    +0.061 S 
ATOM     10  O   UNL     1       5.886   7.810   4.111  0.00  0.00    -0.153 OA
ATOM     11  O   UNL     1       8.282   7.223   3.770  0.00  0.00    -0.153 OA
BRANCH   9  12
ATOM     12  C   UNL     1       7.048   8.527   1.945  0.00  0.00    +0.105 A 
ATOM     13  C   UNL     1       8.237   8.698   1.261  0.00  0.00    +0.028 A 
ATOM     14  C   UNL     1       8.306   9.593   0.209  0.00  0.00    +0.002 A 
ATOM     15  C   UNL     1       7.190  10.324  -0.151  0.00  0.00    +0.000 A 
ATOM     16  C   UNL     1       6.003  10.157   0.537  0.00  0.00    +0.002 A 
ATOM     17  C   UNL     1       5.931   9.259   1.585  0.00  0.00    +0.028 A 
ENDBRANCH   9  12
ENDBRANCH   6   9
BRANCH   1  18
ATOM     18  C   UNL     1       3.981   2.692  -0.022  0.00  0.00    +0.137 C 
ATOM     19  C   UNL     1       3.413   3.268  -1.320  0.00  0.00    +0.029 C 
BRANCH  18  20
ATOM     20  S   UNL     1       3.799   0.891  -0.030  0.00  0.00    -0.074 S 
BRANCH  20  24
ATOM     21  C   UNL     1       0.002  -0.004   0.002  0.00  0.00    +0.135 A 
ATOM     22  N   UNL     1      -0.016   1.299   0.009  0.00  0.00    -0.134 NA
ATOM     23  N   UNL     1       1.185   1.756   0.000  0.00  0.00    -0.122 NA
ATOM     24  C   UNL     1       2.042   0.761  -0.013  0.00  0.00    +0.193 A 
ATOM     25  N   UNL     1       1.313  -0.393  -0.013  0.00  0.00    -0.295 N 
BRANCH  21  26
ATOM     26  C   UNL     1      -1.200  -0.913   0.008  0.00  0.00    +0.076 C 
BRANCH  26  28
ATOM     27  C   UNL     1      -2.839  -2.136  -1.427  0.00  0.00    +0.004 C 
ATOM     28  C   UNL     1      -1.619  -1.213  -1.433  0.00  0.00    +0.004 C 
ENDBRANCH  26  28
ENDBRANCH  21  26
BRANCH  25  29
ATOM     29  C   UNL     1       1.829  -1.765  -0.025  0.00  0.00    +0.250 C 
BRANCH  29  30
ATOM     30  C   UNL     1       1.992  -2.228  -1.449  0.00  0.00    +0.375 C 
ATOM     31  O   UNL     1       1.706  -1.488  -2.361  0.00  0.00    -0.244 OA
ATOM     32  O   UNL     1       2.454  -3.462  -1.705  0.00  0.00    -0.244 OA
ENDBRANCH  29  30
ENDBRANCH  25  29
ENDBRANCH  20  24
ENDBRANCH  18  20
ENDBRANCH   1  18
TORSDOF 9
