REMARK  Name = ZINC09501715
REMARK  8 active torsions:
REMARK  status: ('A' for Active; 'I' for Inactive)
REMARK    1  A    between atoms: C_4  and  C_7
REMARK    2  A    between atoms: C_7  and  C_8
REMARK    3  A    between atoms: C_14  and  C_16
REMARK    4  A    between atoms: C_16  and  N_69
REMARK    5  A    between atoms: C_17  and  C_18
REMARK    6  A    between atoms: C_17  and  N_69
REMARK    7  A    between atoms: C_30  and  C_31
REMARK    8  A    between atoms: C_30  and  N_69
REMARK                            x       y       z     vdW  Elec       q    Type
REMARK                         _______ _______ _______ _____ _____    ______ ____
ROOT
ATOM      1  N   UNL     1      -2.588   3.813  -0.068  0.00  0.00    +0.392 N 
ATOM      2  H   UNL     1      -3.182   3.366  -0.776  0.00  0.00    -0.080 HD
ENDROOT
BRANCH   1   3
ATOM      3  C   UNL     1      -1.263   3.159  -0.070  0.00  0.00    +0.019 C 
BRANCH   3  10
ATOM      4  C   UNL     1       1.752  -0.669   1.111  0.00  0.00    -0.004 C 
ATOM      5  C   UNL     1       0.304  -1.115   1.325  0.00  0.00    +0.023 C 
ATOM      6  C   UNL     1      -0.559  -0.606   0.166  0.00  0.00    +0.108 C 
ATOM      7  N   UNL     1      -0.387   0.849   0.051  0.00  0.00    -0.303 N 
ATOM      8  C   UNL     1       0.973   1.391  -0.068  0.00  0.00    +0.108 C 
ATOM      9  C   UNL     1       1.819   0.860   1.094  0.00  0.00    +0.023 C 
ATOM     10  C   UNL     1      -1.456   1.669   0.049  0.00  0.00    +0.199 C 
ATOM     11  O   UNL     1      -2.574   1.208   0.142  0.00  0.00    -0.278 OA
BRANCH   4  12
ATOM     12  C   UNL     1       2.624  -1.204   2.249  0.00  0.00    +0.038 C 
BRANCH  12  16
ATOM     13  C   UNL     1       6.717  -0.258   1.475  0.00  0.00    +0.000 A 
ATOM     14  C   UNL     1       5.925   0.625   2.186  0.00  0.00    +0.000 A 
ATOM     15  C   UNL     1       4.601   0.319   2.436  0.00  0.00    +0.003 A 
ATOM     16  C   UNL     1       4.067  -0.870   1.975  0.00  0.00    -0.047 A 
ATOM     17  C   UNL     1       4.860  -1.756   1.269  0.00  0.00    +0.003 A 
ATOM     18  C   UNL     1       6.183  -1.447   1.014  0.00  0.00    +0.000 A 
ENDBRANCH  12  16
ENDBRANCH   4  12
ENDBRANCH   3  10
ENDBRANCH   1   3
BRANCH   1  19
ATOM     19  C   UNL     1      -2.444   5.247  -0.397  0.00  0.00    -0.002 C 
BRANCH  19  20
ATOM     20  C   UNL     1      -2.239   5.383  -1.884  0.00  0.00    +0.094 A 
ATOM     21  N   UNL     1      -2.145   6.631  -2.410  0.00  0.00    -0.312 N 
ATOM     22  H   UNL     1      -2.210   7.404  -1.828  0.00  0.00    +0.170 HD
ATOM     23  C   UNL     1      -1.955   6.807  -3.739  0.00  0.00    +0.259 A 
ATOM     24  O   UNL     1      -1.864   7.920  -4.223  0.00  0.00    -0.267 OA
ATOM     25  C   UNL     1      -1.869   5.601  -4.575  0.00  0.00    +0.065 A 
ATOM     26  C   UNL     1      -1.681   5.671  -5.954  0.00  0.00    +0.015 A 
ATOM     27  C   UNL     1      -1.608   4.509  -6.690  0.00  0.00    +0.001 A 
ATOM     28  C   UNL     1      -1.721   3.272  -6.069  0.00  0.00    +0.002 A 
ATOM     29  C   UNL     1      -1.907   3.180  -4.708  0.00  0.00    +0.028 A 
ATOM     30  C   UNL     1      -1.984   4.344  -3.940  0.00  0.00    +0.078 A 
ATOM     31  N   UNL     1      -2.167   4.300  -2.597  0.00  0.00    -0.236 NA
ENDBRANCH  19  20
ENDBRANCH   1  19
BRANCH   1  32
ATOM     32  C   UNL     1      -3.224   3.661   1.258  0.00  0.00    -0.046 C 
BRANCH  32  33
ATOM     33  C   UNL     1      -4.712   3.995   1.129  0.00  0.00    +0.102 C 
ATOM     34  C   UNL     1      -5.422   3.819   2.490  0.00  0.00    +0.032 C 
ATOM     35  C   UNL     1      -6.806   3.241   2.119  0.00  0.00    +0.030 C 
ATOM     36  C   UNL     1      -6.768   3.135   0.579  0.00  0.00    +0.160 C 
ATOM     37  O   UNL     1      -5.365   3.055   0.248  0.00  0.00    -0.378 OA
ENDBRANCH  32  33
ENDBRANCH   1  32
TORSDOF 8
