REMARK  Name = ZINC39855513
REMARK  6 active torsions:
REMARK  status: ('A' for Active; 'I' for Inactive)
REMARK    1  A    between atoms: C_1  and  C_2
REMARK    2  A    between atoms: C_6  and  C_7
REMARK    3  A    between atoms: N_9  and  C_10
REMARK    4  A    between atoms: C_18  and  C_23
REMARK    5  A    between atoms: C_18  and  C_24
REMARK    6  A    between atoms: C_20  and  O_22
REMARK                            x       y       z     vdW  Elec       q    Type
REMARK                         _______ _______ _______ _____ _____    ______ ____
ROOT
ATOM      1  C   UNL     1      -0.006   1.502   0.010  0.00  0.00    +0.048 C 
ATOM      2  C   UNL     1       0.021  -0.004   0.002  0.00  0.00    +0.006 A 
ATOM      3  C   UNL     1       0.039  -0.834  -1.122  0.00  0.00    +0.025 A 
ATOM      4  C   UNL     1       0.060  -2.115  -0.680  0.00  0.00    +0.112 A 
ATOM      5  O   UNL     1       0.058  -2.106   0.655  0.00  0.00    -0.454 OA
ATOM      6  C   UNL     1       0.039  -0.828   1.093  0.00  0.00    +0.193 A 
ATOM      7  C   UNL     1       0.079  -3.318  -1.593  0.00  0.00    +0.081 C 
ATOM      8  C   UNL     1      -0.346  -2.868  -2.996  0.00  0.00    -0.025 C 
ATOM      9  C   UNL     1       0.471  -1.642  -3.411  0.00  0.00    +0.043 C 
ATOM     10  C   UNL     1       0.037  -0.432  -2.575  0.00  0.00    +0.149 C 
ATOM     11  C   UNL     1      -0.102  -4.005  -3.991  0.00  0.00    +0.011 C 
ATOM     12  C   UNL     1      -1.833  -2.510  -2.987  0.00  0.00    +0.011 C 
ENDROOT
BRANCH   6  13
ATOM     13  C   UNL     1       0.034  -0.400   2.496  0.00  0.00    +0.284 C 
ATOM     14  O   UNL     1       0.013   0.786   2.769  0.00  0.00    -0.266 OA
ATOM     15  N   UNL     1       0.053  -1.319   3.481  0.00  0.00    -0.278 N 
ATOM     16  H   UNL     1      -0.011  -2.262   3.266  0.00  0.00    +0.155 HD
BRANCH  15  17
ATOM     17  C   UNL     1       0.166  -0.911   4.815  0.00  0.00    +0.048 A 
ATOM     18  C   UNL     1       0.757   0.307   5.123  0.00  0.00    +0.024 A 
ATOM     19  C   UNL     1       0.866   0.706   6.441  0.00  0.00    +0.002 A 
ATOM     20  C   UNL     1       0.387  -0.105   7.453  0.00  0.00    +0.001 A 
ATOM     21  C   UNL     1      -0.202  -1.319   7.150  0.00  0.00    +0.017 A 
ATOM     22  C   UNL     1      -0.319  -1.722   5.834  0.00  0.00    +0.039 A 
ATOM     23 BR   UNL     1      -1.133  -3.378   5.420  0.00  0.00    -0.048 Br
ENDBRANCH  15  17
ENDBRANCH   6  13
BRANCH  10  24
ATOM     24  O   UNL     1       0.952   0.647  -2.777  0.00  0.00    -0.387 OA
ATOM     25  H   UNL     1       0.745   1.440  -2.264  0.00  0.00    +0.210 HD
ENDBRANCH  10  24
TORSDOF 3
