REMARK  Name = ZINC60221065
REMARK  9 active torsions:
REMARK  status: ('A' for Active; 'I' for Inactive)
REMARK    1  A    between atoms: C_1  and  C_2
REMARK    2  A    between atoms: C_7  and  C_9
REMARK    3  A    between atoms: C_7  and  C_10
REMARK    4  A    between atoms: N_13  and  C_17
REMARK    5  A    between atoms: C_17  and  C_18
REMARK    6  A    between atoms: N_20  and  C_21
REMARK    7  A    between atoms: C_24  and  C_27
REMARK    8  A    between atoms: C_27  and  C_28
REMARK    9  A    between atoms: C_28  and  N_29
REMARK                            x       y       z     vdW  Elec       q    Type
REMARK                         _______ _______ _______ _____ _____    ______ ____
ROOT
ATOM      1  C   UNL     1      -1.412  -5.472  -2.744  0.00  0.00    +0.235 C 
ATOM      2  O   UNL     1      -0.969  -5.707  -1.639  0.00  0.00    -0.274 OA
ATOM      3  N   UNL     1      -1.357  -6.415  -3.706  0.00  0.00    -0.284 N 
ATOM      4  H   UNL     1      -1.772  -6.252  -4.567  0.00  0.00    +0.155 HD
ENDROOT
BRANCH   3   5
ATOM      5  C   UNL     1      -0.703  -7.627  -3.462  0.00  0.00    +0.033 A 
ATOM      6  C   UNL     1       0.001  -8.255  -4.481  0.00  0.00    +0.023 A 
ATOM      7  C   UNL     1       0.646  -9.452  -4.237  0.00  0.00    +0.005 A 
ATOM      8  C   UNL     1       0.592 -10.024  -2.979  0.00  0.00    -0.049 A 
ATOM      9  C   UNL     1      -0.107  -9.401  -1.962  0.00  0.00    +0.005 A 
ATOM     10  C   UNL     1      -0.750  -8.201  -2.198  0.00  0.00    +0.023 A 
BRANCH   8  11
ATOM     11  C   UNL     1       1.298 -11.329  -2.716  0.00  0.00    +0.016 C 
BRANCH  11  12
ATOM     12  C   UNL     1       2.728 -11.052  -2.249  0.00  0.00    -0.074 C 
BRANCH  12  13
ATOM     13  N   UNL     1       3.455 -12.321  -2.115  0.00  0.00    +0.381 N 
ATOM     14  C   UNL     1       4.868 -12.040  -1.854  0.00  0.00    -0.068 C 
ATOM     15  C   UNL     1       5.702 -13.306  -2.080  0.00  0.00    +0.050 C 
ATOM     16  S   UNL     1       5.148 -14.572  -0.894  0.00  0.00    -0.164 S 
ATOM     17  C   UNL     1       3.341 -14.556  -1.109  0.00  0.00    +0.050 C 
ATOM     18  C   UNL     1       2.860 -13.102  -1.029  0.00  0.00    -0.068 C 
ATOM     19  H   UNL     1       3.376 -12.839  -2.977  0.00  0.00    -0.082 HD
ENDBRANCH  12  13
ENDBRANCH  11  12
ENDBRANCH   8  11
ENDBRANCH   3   5
BRANCH   1  20
ATOM     20  C   UNL     1      -2.023  -4.127  -3.040  0.00  0.00    +0.214 C 
BRANCH  20  32
ATOM     21  C   UNL     1       0.198   1.639  -0.347  0.00  0.00    +0.007 C 
ATOM     22  C   UNL     1       0.212   0.108  -0.296  0.00  0.00    -0.011 C 
ATOM     23  C   UNL     1      -1.223  -0.406  -0.166  0.00  0.00    +0.038 C 
ATOM     24  C   UNL     1      -1.224  -1.929  -0.163  0.00  0.00    +0.113 C 
ATOM     25  C   UNL     1      -0.308  -2.516   0.892  0.00  0.00    +0.041 C 
ATOM     26  C   UNL     1       1.062  -1.871   1.002  0.00  0.00    -0.032 C 
ATOM     27  C   UNL     1       1.004  -0.350   0.927  0.00  0.00    +0.009 C 
ATOM     28  C   UNL     1       1.661  -2.252   2.374  0.00  0.00    +0.011 C 
ATOM     29  C   UNL     1       2.006  -2.414  -0.075  0.00  0.00    +0.011 C 
ATOM     30  C   UNL     1      -0.930  -2.470  -1.540  0.00  0.00    +0.247 C 
ATOM     31  O   UNL     1       0.014  -2.221  -2.258  0.00  0.00    -0.273 OA
ATOM     32  N   UNL     1      -1.962  -3.288  -1.841  0.00  0.00    -0.215 N 
ATOM     33  C   UNL     1      -2.918  -3.235  -0.907  0.00  0.00    +0.310 C 
ATOM     34  O   UNL     1      -3.953  -3.871  -0.962  0.00  0.00    -0.252 OA
ATOM     35  N   UNL     1      -2.603  -2.401   0.098  0.00  0.00    -0.285 N 
ATOM     36  H   UNL     1      -3.158  -2.149   0.851  0.00  0.00    +0.151 HD
ENDBRANCH  20  32
ENDBRANCH   1  20
TORSDOF 6
