REMARK  Name = ZINC40036055
REMARK  8 active torsions:
REMARK  status: ('A' for Active; 'I' for Inactive)
REMARK    1  A    between atoms: C_1  and  C_2
REMARK    2  A    between atoms: C_2  and  C_3
REMARK    3  A    between atoms: C_3  and  C_4
REMARK    4  A    between atoms: C_4  and  C_36
REMARK    5  A    between atoms: N_16  and  C_29
REMARK    6  A    between atoms: N_19  and  N_20
REMARK    7  A    between atoms: C_21  and  C_22
REMARK    8  A    between atoms: C_32  and  C_35
REMARK                            x       y       z     vdW  Elec       q    Type
REMARK                         _______ _______ _______ _____ _____    ______ ____
ROOT
ATOM      1  C   UNL     1      -1.708  -2.611   0.039  0.00  0.00    +0.004 C 
ATOM      2  C   UNL     1      -2.841  -3.588   0.339  0.00  0.00    +0.047 C 
ATOM      3  C   UNL     1      -3.516  -3.234   1.636  0.00  0.00    -0.037 A 
ATOM      4  C   UNL     1      -4.876  -3.410   1.787  0.00  0.00    +0.004 A 
ATOM      5  C   UNL     1      -5.488  -3.085   2.985  0.00  0.00    +0.000 A 
ATOM      6  C   UNL     1      -4.745  -2.583   4.038  0.00  0.00    +0.001 A 
ATOM      7  C   UNL     1      -3.383  -2.401   3.899  0.00  0.00    +0.010 A 
ATOM      8  C   UNL     1      -2.764  -2.724   2.695  0.00  0.00    +0.004 A 
ATOM      9  C   UNL     1      -1.307  -2.530   2.513  0.00  0.00    +0.084 A 
ATOM     10  C   UNL     1      -0.794  -2.479   1.224  0.00  0.00    +0.050 A 
ATOM     11  C   UNL     1       0.585  -2.304   1.053  0.00  0.00    +0.264 A 
ATOM     12  O   UNL     1       1.073  -2.256  -0.064  0.00  0.00    -0.267 OA
ATOM     13  N   UNL     1       1.363  -2.188   2.151  0.00  0.00    -0.248 N 
ATOM     14  C   UNL     1       0.806  -2.239   3.396  0.00  0.00    +0.223 A 
ATOM     15  N   UNL     1      -0.490  -2.406   3.563  0.00  0.00    -0.214 NA
ATOM     16  N   UNL     1       1.614  -2.115   4.497  0.00  0.00    -0.206 N 
ATOM     17  C   UNL     1      -0.907  -3.120  -1.161  0.00  0.00    +0.017 C 
ATOM     18  H   UNL     1       2.577  -2.066   4.389  0.00  0.00    +0.177 HD
ENDROOT
BRANCH  13  19
ATOM     19  C   UNL     1       2.745  -2.015   2.011  0.00  0.00    +0.053 A 
ATOM     20  C   UNL     1       3.583  -3.122   1.955  0.00  0.00    +0.026 A 
ATOM     21  C   UNL     1       4.946  -2.948   1.817  0.00  0.00    +0.005 A 
ATOM     22  C   UNL     1       5.477  -1.674   1.736  0.00  0.00    -0.050 A 
ATOM     23  C   UNL     1       4.646  -0.571   1.792  0.00  0.00    +0.005 A 
ATOM     24  C   UNL     1       3.282  -0.738   1.924  0.00  0.00    +0.026 A 
ATOM     25  C   UNL     1       6.965  -1.489   1.585  0.00  0.00    +0.044 C 
ENDBRANCH  13  19
BRANCH  16  26
ATOM     26  N   UNL     1       1.049  -2.057   5.777  0.00  0.00    -0.188 NA
ATOM     27  C   UNL     1       1.813  -1.940   6.819  0.00  0.00    +0.138 C 
BRANCH  27  28
ATOM     28  C   UNL     1       1.218  -1.879   8.167  0.00  0.00    -0.005 A 
ATOM     29  C   UNL     1      -0.168  -1.954   8.326  0.00  0.00    +0.011 A 
ATOM     30  C   UNL     1      -0.718  -1.897   9.589  0.00  0.00    +0.020 A 
ATOM     31  C   UNL     1       0.100  -1.766  10.699  0.00  0.00    +0.041 A 
ATOM     32  C   UNL     1       1.475  -1.691  10.548  0.00  0.00    +0.020 A 
ATOM     33  C   UNL     1       2.038  -1.753   9.291  0.00  0.00    +0.011 A 
ATOM     34 CL   UNL     1      -0.600  -1.695  12.286  0.00  0.00    -0.084 Cl
ENDBRANCH  27  28
ENDBRANCH  16  26
BRANCH   1  35
ATOM     35  C   UNL     1      -2.300  -1.240  -0.296  0.00  0.00    +0.011 C 
BRANCH  35  37
ATOM     36  C   UNL     1      -1.761   1.108  -0.959  0.00  0.00    +0.004 C 
ATOM     37  C   UNL     1      -1.169  -0.263  -0.625  0.00  0.00    -0.003 C 
ENDBRANCH  35  37
ENDBRANCH   1  35
TORSDOF 5
