REMARK  Name = ZINC63830649
REMARK  6 active torsions:
REMARK  status: ('A' for Active; 'I' for Inactive)
REMARK    1  A    between atoms: N_9  and  S_10
REMARK    2  A    between atoms: S_10  and  C_13
REMARK    3  A    between atoms: C_17  and  C_19
REMARK    4  A    between atoms: N_21  and  C_22
REMARK    5  A    between atoms: C_22  and  C_23
REMARK    6  A    between atoms: C_23  and  C_24
REMARK                            x       y       z     vdW  Elec       q    Type
REMARK                         _______ _______ _______ _____ _____    ______ ____
ROOT
ATOM      1  C   UNL     1       5.602  -0.226   1.629  0.00  0.00    +0.109 A 
ATOM      2  C   UNL     1       5.451   0.977   2.297  0.00  0.00    +0.029 A 
ATOM      3  C   UNL     1       5.853   1.097   3.616  0.00  0.00    +0.003 A 
ATOM      4  C   UNL     1       6.408   0.018   4.272  0.00  0.00    +0.013 A 
ATOM      5  C   UNL     1       6.562  -1.198   3.604  0.00  0.00    +0.039 A 
ATOM      6  C   UNL     1       6.150  -1.314   2.276  0.00  0.00    +0.041 A 
ENDROOT
BRANCH   5   7
ATOM      7  C   UNL     1       7.157  -2.358   4.301  0.00  0.00    +0.244 C 
ATOM      8  O   UNL     1       7.290  -3.415   3.717  0.00  0.00    -0.270 OA
ATOM      9  N   UNL     1       7.550  -2.244   5.585  0.00  0.00    -0.311 N 
ATOM     10  H   UNL     1       7.443  -1.400   6.052  0.00  0.00    +0.149 HD
BRANCH   9  11
ATOM     11  C   UNL     1       8.138  -3.393   6.277  0.00  0.00    +0.109 C 
BRANCH  11  12
ATOM     12  C   UNL     1       8.495  -2.999   7.711  0.00  0.00    +0.052 C 
BRANCH  12  13
ATOM     13  C   UNL     1       9.100  -4.182   8.422  0.00  0.00    -0.040 C 
ATOM     14  C   UNL     1      10.416  -4.460   8.561  0.00  0.00    -0.001 A 
ATOM     15  C   UNL     1      11.632  -3.773   8.108  0.00  0.00    +0.010 A 
ATOM     16  C   UNL     1      12.838  -4.308   8.407  0.00  0.00    +0.001 A 
ATOM     17  C   UNL     1      12.956  -5.499   9.135  0.00  0.00    +0.002 A 
ATOM     18  C   UNL     1      11.885  -6.188   9.584  0.00  0.00    +0.026 A 
ATOM     19  C   UNL     1      10.568  -5.717   9.329  0.00  0.00    +0.043 A 
ATOM     20  N   UNL     1       9.391  -6.197   9.652  0.00  0.00    -0.380 N 
ATOM     21  C   UNL     1       8.359  -5.294   9.130  0.00  0.00    +0.144 C 
ATOM     22  H   UNL     1       9.230  -7.010  10.155  0.00  0.00    +0.160 HD
ENDBRANCH  12  13
ENDBRANCH  11  12
ENDBRANCH   9  11
ENDBRANCH   5   7
BRANCH   1  23
ATOM     23  S   UNL     1       5.086  -0.369  -0.050  0.00  0.00    +0.075 S 
ATOM     24  O   UNL     1       5.830  -1.440  -0.613  0.00  0.00    -0.150 OA
ATOM     25  O   UNL     1       5.108   0.944  -0.595  0.00  0.00    -0.150 OA
BRANCH  23  34
ATOM     26  C   UNL     1      -0.017   1.378   0.010  0.00  0.00    +0.000 A 
ATOM     27  C   UNL     1       1.174   2.082   0.002  0.00  0.00    +0.002 A 
ATOM     28  C   UNL     1       2.377   1.411  -0.013  0.00  0.00    +0.025 A 
ATOM     29  C   UNL     1       2.405   0.014  -0.021  0.00  0.00    +0.054 A 
ATOM     30  C   UNL     1       1.206  -0.682  -0.013  0.00  0.00    -0.023 A 
ATOM     31  C   UNL     1       0.002  -0.004   0.002  0.00  0.00    +0.005 A 
ATOM     32  C   UNL     1       1.510  -2.163  -0.023  0.00  0.00    +0.058 C 
ATOM     33  C   UNL     1       3.046  -2.241  -0.038  0.00  0.00    +0.136 C 
ATOM     34  N   UNL     1       3.501  -0.849  -0.036  0.00  0.00    -0.202 N 
ENDBRANCH  23  34
ENDBRANCH   1  23
TORSDOF 6
