REMARK  Name = ZINC19420871
REMARK  9 active torsions:
REMARK  status: ('A' for Active; 'I' for Inactive)
REMARK    1  A    between atoms: C_1  and  C_2
REMARK    2  A    between atoms: C_5  and  N_8
REMARK    3  A    between atoms: C_12  and  S_13
REMARK    4  A    between atoms: S_13  and  C_14
REMARK    5  A    between atoms: C_14  and  C_15
REMARK    6  A    between atoms: N_17  and  C_18
REMARK    7  A    between atoms: C_19  and  C_28
REMARK    8  A    between atoms: C_20  and  C_27
REMARK    9  A    between atoms: C_23  and  N_24
REMARK                            x       y       z     vdW  Elec       q    Type
REMARK                         _______ _______ _______ _____ _____    ______ ____
ROOT
ATOM      1  N   UNL     1       4.345   2.842   3.269  0.00  0.00    -0.259 N 
ATOM      2  C   UNL     1       4.121   1.507   3.069  0.00  0.00    +0.225 A 
ATOM      3  N   UNL     1       5.131   1.026   2.388  0.00  0.00    -0.112 NA
ATOM      4  N   UNL     1       6.024   2.075   2.134  0.00  0.00    -0.120 NA
ATOM      5  C   UNL     1       5.536   3.164   2.676  0.00  0.00    +0.198 A 
ATOM      6  N   UNL     1       3.019   0.788   3.514  0.00  0.00    -0.299 N 
ATOM      7  C   UNL     1       2.178   0.364   2.388  0.00  0.00    +0.108 C 
ATOM      8  C   UNL     1       0.904  -0.296   2.921  0.00  0.00    +0.019 C 
ATOM      9  C   UNL     1       1.283  -1.504   3.782  0.00  0.00    +0.003 C 
ATOM     10  C   UNL     1       2.199  -1.043   4.919  0.00  0.00    +0.019 C 
ATOM     11  C   UNL     1       3.435  -0.361   4.328  0.00  0.00    +0.108 C 
ENDROOT
BRANCH   1  16
ATOM     12  C   UNL     1       0.936   6.415   6.069  0.00  0.00    +0.044 C 
ATOM     13  C   UNL     1       1.841   5.467   5.326  0.00  0.00    -0.050 A 
ATOM     14  C   UNL     1       3.090   5.163   5.835  0.00  0.00    +0.005 A 
ATOM     15  C   UNL     1       3.922   4.294   5.156  0.00  0.00    +0.026 A 
ATOM     16  C   UNL     1       3.502   3.725   3.961  0.00  0.00    +0.052 A 
ATOM     17  C   UNL     1       2.251   4.037   3.449  0.00  0.00    +0.026 A 
ATOM     18  C   UNL     1       1.421   4.902   4.136  0.00  0.00    +0.005 A 
ENDBRANCH   1  16
BRANCH   5  19
ATOM     19  S   UNL     1       6.282   4.760   2.647  0.00  0.00    -0.076 S 
BRANCH  19  20
ATOM     20  C   UNL     1       7.820   4.509   1.718  0.00  0.00    +0.173 C 
BRANCH  20  21
ATOM     21  C   UNL     1       8.565   5.815   1.618  0.00  0.00    +0.228 C 
ATOM     22  O   UNL     1       8.104   6.817   2.124  0.00  0.00    -0.275 OA
ATOM     23  N   UNL     1       9.743   5.870   0.967  0.00  0.00    -0.283 N 
ATOM     24  H   UNL     1      10.118   4.985   0.432  0.00  0.00    +0.155 HD
BRANCH  23  25
ATOM     25  C   UNL     1      10.491   7.053   0.972  0.00  0.00    +0.067 A 
ATOM     26  C   UNL     1       9.927   8.235   0.508  0.00  0.00    -0.024 A 
ATOM     27  C   UNL     1      10.667   9.400   0.514  0.00  0.00    -0.046 A 
ATOM     28  C   UNL     1      11.969   9.392   0.981  0.00  0.00    +0.006 A 
ATOM     29  C   UNL     1      12.533   8.218   1.443  0.00  0.00    +0.035 A 
ATOM     30  C   UNL     1      11.796   7.050   1.445  0.00  0.00    +0.148 A 
ATOM     31  C   UNL     1      10.055  10.683   0.011  0.00  0.00    +0.044 C 
ATOM     32  C   UNL     1       8.508   8.244  -0.000  0.00  0.00    +0.046 C 
BRANCH  30  33
ATOM     33  N   UNL     1      12.399   5.794   1.946  0.00  0.00    +0.058 N 
ATOM     34  O   UNL     1      13.510   5.809   2.445  0.00  0.00    -0.126 OA
ATOM     35  O   UNL     1      11.785   4.746   1.859  0.00  0.00    -0.126 OA
ENDBRANCH  30  33
ENDBRANCH  23  25
ENDBRANCH  20  21
ENDBRANCH  19  20
ENDBRANCH   5  19
TORSDOF 6
