REMARK  Name = ZINC00845670
REMARK  5 active torsions:
REMARK  status: ('A' for Active; 'I' for Inactive)
REMARK    1  A    between atoms: C_1  and  C_2
REMARK    2  A    between atoms: C_5  and  C_8
REMARK    3  A    between atoms: C_10  and  C_17
REMARK    4  A    between atoms: C_11  and  C_16
REMARK    5  A    between atoms: N_19  and  C_20
REMARK                            x       y       z     vdW  Elec       q    Type
REMARK                         _______ _______ _______ _____ _____    ______ ____
ROOT
ATOM      1  C   UNL     1      -1.494   1.425   0.930  0.00  0.00    +0.139 C 
ATOM      2  C   UNL     1      -1.305   2.793   0.306  0.00  0.00    +0.056 C 
ATOM      3  C   UNL     1      -0.062   3.134  -0.096  0.00  0.00    +0.017 C 
ATOM      4  N   UNL     1       0.989   2.276   0.060  0.00  0.00    -0.300 N 
ATOM      5  C   UNL     1       0.880   1.060   0.609  0.00  0.00    +0.135 C 
ATOM      6  S   UNL     1       2.280   0.084   0.746  0.00  0.00    -0.019 S 
ATOM      7  N   UNL     1      -0.296   0.579   1.058  0.00  0.00    -0.315 N 
ATOM      8  C   UNL     1       0.169   4.483  -0.727  0.00  0.00    +0.061 C 
ATOM      9  H   UNL     1       1.864   2.565  -0.243  0.00  0.00    +0.154 HD
ATOM     10  H   UNL     1      -0.353  -0.306   1.452  0.00  0.00    +0.149 HD
ENDROOT
BRANCH   1  15
ATOM     11  C   UNL     1      -3.710   2.186   6.213  0.00  0.00    +0.044 C 
ATOM     12  C   UNL     1      -3.132   1.988   4.835  0.00  0.00    -0.050 A 
ATOM     13  C   UNL     1      -3.947   1.576   3.796  0.00  0.00    +0.004 A 
ATOM     14  C   UNL     1      -3.417   1.394   2.533  0.00  0.00    +0.006 A 
ATOM     15  C   UNL     1      -2.072   1.624   2.308  0.00  0.00    -0.023 A 
ATOM     16  C   UNL     1      -1.257   2.031   3.347  0.00  0.00    +0.006 A 
ATOM     17  C   UNL     1      -1.788   2.218   4.609  0.00  0.00    +0.004 A 
ENDBRANCH   1  15
BRANCH   2  18
ATOM     18  C   UNL     1      -2.396   3.682   0.144  0.00  0.00    +0.248 C 
ATOM     19  O   UNL     1      -3.211   3.491  -0.740  0.00  0.00    -0.270 OA
ATOM     20  N   UNL     1      -2.533   4.738   0.970  0.00  0.00    -0.282 N 
ATOM     21  H   UNL     1      -1.845   4.933   1.625  0.00  0.00    +0.155 HD
BRANCH  20  22
ATOM     22  C   UNL     1      -3.667   5.552   0.882  0.00  0.00    +0.034 A 
ATOM     23  C   UNL     1      -4.246   5.807  -0.354  0.00  0.00    +0.025 A 
ATOM     24  C   UNL     1      -5.368   6.608  -0.437  0.00  0.00    +0.022 A 
ATOM     25  C   UNL     1      -5.909   7.164   0.709  0.00  0.00    +0.041 A 
ATOM     26  C   UNL     1      -5.331   6.916   1.941  0.00  0.00    +0.022 A 
ATOM     27  C   UNL     1      -4.212   6.112   2.031  0.00  0.00    +0.025 A 
ATOM     28 CL   UNL     1      -7.316   8.175   0.600  0.00  0.00    -0.084 Cl
ENDBRANCH  20  22
ENDBRANCH   2  18
TORSDOF 3
