REMARK  Name = ZINC44649531
REMARK  14 active torsions:
REMARK  status: ('A' for Active; 'I' for Inactive)
REMARK    1  A    between atoms: C_1  and  C_2
REMARK    2  A    between atoms: C_4  and  C_34
REMARK    3  A    between atoms: C_5  and  C_33
REMARK    4  A    between atoms: C_6  and  C_8
REMARK    5  A    between atoms: C_8  and  C_10
REMARK    6  A    between atoms: C_10  and  C_12
REMARK    7  A    between atoms: C_10  and  S_13
REMARK    8  A    between atoms: S_13  and  C_14
REMARK    9  A    between atoms: C_17  and  C_26
REMARK   10  A    between atoms: N_18  and  C_19
REMARK   11  A    between atoms: C_19  and  C_20
REMARK   12  A    between atoms: C_26  and  N_27
REMARK   13  A    between atoms: C_34  and  O_36
REMARK   14  A    between atoms: O_36  and  C_37
REMARK                            x       y       z     vdW  Elec       q    Type
REMARK                         _______ _______ _______ _____ _____    ______ ____
ROOT
ATOM      1  C   UNL     1       3.408  -3.024   5.392  0.00  0.00    +0.193 A 
ATOM      2  N   UNL     1       4.216  -2.040   5.072  0.00  0.00    -0.123 NA
ATOM      3  N   UNL     1       5.356  -2.209   5.640  0.00  0.00    -0.135 NA
ATOM      4  C   UNL     1       5.345  -3.301   6.351  0.00  0.00    +0.118 A 
ATOM      5  N   UNL     1       4.101  -3.856   6.223  0.00  0.00    -0.303 N 
ENDROOT
BRANCH   1   6
ATOM      6  S   UNL     1       1.741  -3.227   4.858  0.00  0.00    -0.075 S 
BRANCH   6   7
ATOM      7  C   UNL     1       1.445  -1.793   3.787  0.00  0.00    +0.124 C 
ATOM      8  C   UNL     1       1.516  -0.512   4.620  0.00  0.00    +0.028 C 
BRANCH   7   9
ATOM      9  C   UNL     1       0.081  -1.909   3.158  0.00  0.00    +0.194 C 
ATOM     10  O   UNL     1      -0.782  -2.557   3.702  0.00  0.00    -0.289 OA
BRANCH   9  15
ATOM     11  C   UNL     1      -0.019   1.526   0.010  0.00  0.00    +0.038 C 
ATOM     12  C   UNL     1       0.002  -0.004   0.002  0.00  0.00    +0.140 C 
ATOM     13  C   UNL     1      -1.410  -0.546   0.041  0.00  0.00    +0.065 C 
ATOM     14  C   UNL     1      -1.496  -1.272   1.173  0.00  0.00    -0.010 C 
ATOM     15  C   UNL     1      -0.203  -1.226   1.873  0.00  0.00    +0.106 C 
ATOM     16  N   UNL     1       0.656  -0.509   1.215  0.00  0.00    -0.272 NA
ATOM     17  C   UNL     1      -2.720  -2.011   1.647  0.00  0.00    +0.046 C 
BRANCH  13  18
ATOM     18  C   UNL     1      -2.470  -0.326  -0.952  0.00  0.00    +0.337 C 
ATOM     19  O   UNL     1      -3.566  -0.826  -0.792  0.00  0.00    -0.245 OA
BRANCH  18  20
ATOM     20  O   UNL     1      -2.227   0.432  -2.041  0.00  0.00    -0.465 OA
ATOM     21  C   UNL     1      -3.304   0.604  -2.965  0.00  0.00    +0.280 C 
ENDBRANCH  18  20
ENDBRANCH  13  18
ENDBRANCH   9  15
ENDBRANCH   7   9
ENDBRANCH   6   7
ENDBRANCH   1   6
BRANCH   5  22
ATOM     22  C   UNL     1       3.616  -5.090   6.846  0.00  0.00    +0.160 C 
BRANCH  22  23
ATOM     23  C   UNL     1       3.901  -6.258   5.938  0.00  0.00    -0.028 A 
ATOM     24  C   UNL     1       2.971  -6.638   4.988  0.00  0.00    +0.005 A 
ATOM     25  C   UNL     1       3.233  -7.709   4.155  0.00  0.00    +0.000 A 
ATOM     26  C   UNL     1       4.425  -8.400   4.270  0.00  0.00    +0.000 A 
ATOM     27  C   UNL     1       5.355  -8.019   5.219  0.00  0.00    +0.000 A 
ATOM     28  C   UNL     1       5.095  -6.945   6.050  0.00  0.00    +0.005 A 
ENDBRANCH  22  23
ENDBRANCH   5  22
BRANCH   4  29
ATOM     29  C   UNL     1       6.487  -3.847   7.167  0.00  0.00    -0.001 C 
BRANCH  29  30
ATOM     30  N   UNL     1       6.418  -3.305   8.530  0.00  0.00    +0.384 N 
ATOM     31  C   UNL     1       6.620  -1.852   8.489  0.00  0.00    -0.078 C 
ATOM     32  C   UNL     1       6.468  -1.272   9.897  0.00  0.00    -0.019 C 
ATOM     33  C   UNL     1       7.511  -1.907  10.820  0.00  0.00    -0.004 C 
ATOM     34  C   UNL     1       7.339  -3.429  10.798  0.00  0.00    -0.019 C 
ATOM     35  C   UNL     1       7.459  -3.929   9.357  0.00  0.00    -0.078 C 
ATOM     36  H   UNL     1       5.511  -3.506   8.925  0.00  0.00    -0.081 HD
ENDBRANCH  29  30
ENDBRANCH   4  29
TORSDOF 10
