REMARK  Name = ZINC04089914
REMARK  10 active torsions:
REMARK  status: ('A' for Active; 'I' for Inactive)
REMARK    1  A    between atoms: C_1  and  C_2
REMARK    2  A    between atoms: C_6  and  C_19
REMARK    3  A    between atoms: C_7  and  C_11
REMARK    4  A    between atoms: C_11  and  C_12
REMARK    5  A    between atoms: N_14  and  C_15
REMARK    6  A    between atoms: C_15  and  C_16
REMARK    7  A    between atoms: C_16  and  C_17
REMARK    8  A    between atoms: C_16  and  C_18
REMARK    9  A    between atoms: C_22  and  C_26
REMARK   10  A    between atoms: C_23  and  C_25
REMARK                            x       y       z     vdW  Elec       q    Type
REMARK                         _______ _______ _______ _____ _____    ______ ____
ROOT
ATOM      1  C   UNL     1       0.801  -8.427  -0.926  0.00  0.00    +0.044 C 
ATOM      2  C   UNL     1       0.411  -6.973  -1.003  0.00  0.00    -0.036 A 
ATOM      3  C   UNL     1       0.219  -6.261   0.145  0.00  0.00    +0.051 A 
ATOM      4  C   UNL     1      -0.141  -4.917   0.092  0.00  0.00    +0.143 A 
ATOM      5  C   UNL     1      -0.311  -4.286  -1.151  0.00  0.00    +0.064 A 
ATOM      6  C   UNL     1      -0.696  -2.875  -1.187  0.00  0.00    -0.026 A 
ATOM      7  C   UNL     1      -0.865  -2.225  -0.005  0.00  0.00    +0.049 A 
ATOM      8  C   UNL     1      -0.679  -2.919   1.207  0.00  0.00    +0.341 A 
ATOM      9  O   UNL     1      -0.839  -2.328   2.260  0.00  0.00    -0.245 OA
ATOM     10  O   UNL     1      -0.331  -4.214   1.231  0.00  0.00    -0.422 OA
ATOM     11  C   UNL     1      -0.895  -2.160  -2.498  0.00  0.00    +0.045 C 
ATOM     12  C   UNL     1      -0.116  -5.013  -2.337  0.00  0.00    +0.147 A 
ATOM     13  C   UNL     1       0.247  -6.364  -2.251  0.00  0.00    +0.027 A 
ATOM     14  C   UNL     1       0.371  -6.826  -3.639  0.00  0.00    -0.002 A 
ATOM     15  C   UNL     1       0.086  -5.768  -4.411  0.00  0.00    +0.106 A 
ATOM     16  O   UNL     1      -0.200  -4.702  -3.643  0.00  0.00    -0.459 OA
ATOM     17  C   UNL     1       0.086  -5.772  -5.918  0.00  0.00    +0.086 C 
ATOM     18  C   UNL     1       0.743  -8.210  -4.103  0.00  0.00    +0.048 C 
ENDROOT
BRANCH   7  19
ATOM     19  C   UNL     1      -1.257  -0.769   0.009  0.00  0.00    +0.138 C 
BRANCH  19  20
ATOM     20  C   UNL     1      -0.015   0.085   0.013  0.00  0.00    +0.218 C 
ATOM     21  O   UNL     1       1.080  -0.437   0.006  0.00  0.00    -0.275 OA
ATOM     22  N   UNL     1      -0.121   1.428   0.025  0.00  0.00    -0.315 N 
ATOM     23  H   UNL     1      -0.997   1.845   0.027  0.00  0.00    +0.149 HD
BRANCH  22  24
ATOM     24  C   UNL     1       1.086   2.258   0.030  0.00  0.00    +0.107 C 
BRANCH  24  25
ATOM     25  C   UNL     1       0.689   3.736   0.044  0.00  0.00    -0.000 C 
ATOM     26  C   UNL     1      -0.030   4.058   1.356  0.00  0.00    +0.009 C 
ATOM     27  C   UNL     1       1.944   4.603  -0.076  0.00  0.00    +0.009 C 
ENDBRANCH  24  25
ENDBRANCH  22  24
ENDBRANCH  19  20
ENDBRANCH   7  19
TORSDOF 4
