REMARK  Name = ZINC01351694
REMARK  10 active torsions:
REMARK  status: ('A' for Active; 'I' for Inactive)
REMARK    1  A    between atoms: C_1  and  O_2
REMARK    2  A    between atoms: O_2  and  C_3
REMARK    3  A    between atoms: C_6  and  C_11
REMARK    4  A    between atoms: C_8  and  O_9
REMARK    5  A    between atoms: O_9  and  C_10
REMARK    6  A    between atoms: C_11  and  C_13
REMARK    7  A    between atoms: C_11  and  N_62
REMARK    8  A    between atoms: N_17  and  C_18
REMARK    9  A    between atoms: C_18  and  C_19
REMARK   10  A    between atoms: N_26  and  C_29
REMARK                            x       y       z     vdW  Elec       q    Type
REMARK                         _______ _______ _______ _____ _____    ______ ____
ROOT
ATOM      1  C   UNL     1       1.635   0.871   0.412  0.00  0.00    +0.034 C 
ENDROOT
BRANCH   1   7
ATOM      2  C   UNL     1       1.388   2.543   2.147  0.00  0.00    -0.058 C 
ATOM      3  C   UNL     1       1.040   2.749   3.623  0.00  0.00    +0.086 C 
ATOM      4  N   UNL     1       2.013   2.029   4.457  0.00  0.00    -0.331 N 
ATOM      5  C   UNL     1       2.004   0.592   4.150  0.00  0.00    +0.086 C 
ATOM      6  C   UNL     1       2.352   0.386   2.674  0.00  0.00    -0.058 C 
ATOM      7  N   UNL     1       1.354   1.096   1.846  0.00  0.00    +0.391 N 
ATOM      8  H   UNL     1       0.419   0.732   2.064  0.00  0.00    -0.080 HD
BRANCH   4   9
ATOM      9  C   UNL     1       1.770   2.252   5.816  0.00  0.00    +0.065 A 
ATOM     10  C   UNL     1       2.624   1.720   6.772  0.00  0.00    +0.026 A 
ATOM     11  C   UNL     1       2.383   1.946   8.114  0.00  0.00    +0.002 A 
ATOM     12  C   UNL     1       1.288   2.694   8.506  0.00  0.00    +0.003 A 
ATOM     13  C   UNL     1       0.432   3.222   7.558  0.00  0.00    +0.040 A 
ATOM     14  C   UNL     1       0.669   3.004   6.213  0.00  0.00    +0.144 A 
ATOM     15  F   UNL     1      -0.168   3.520   5.286  0.00  0.00    -0.204 F 
ENDBRANCH   4   9
ENDBRANCH   1   7
BRANCH   1  19
ATOM     16  C   UNL     1      -1.393   2.793  -1.918  0.00  0.00    +0.161 A 
ATOM     17  C   UNL     1      -0.083   2.761  -2.369  0.00  0.00    +0.049 A 
ATOM     18  C   UNL     1       0.893   2.139  -1.614  0.00  0.00    +0.006 A 
ATOM     19  C   UNL     1       0.566   1.549  -0.407  0.00  0.00    -0.050 A 
ATOM     20  C   UNL     1      -0.739   1.573   0.046  0.00  0.00    +0.051 A 
ATOM     21  C   UNL     1      -1.722   2.199  -0.704  0.00  0.00    +0.162 A 
BRANCH  16  23
ATOM     22  C   UNL     1      -1.944   3.994  -3.896  0.00  0.00    +0.277 C 
ATOM     23  O   UNL     1      -2.355   3.405  -2.660  0.00  0.00    -0.491 OA
ENDBRANCH  16  23
BRANCH  21  24
ATOM     24  O   UNL     1      -3.006   2.228  -0.257  0.00  0.00    -0.491 OA
ATOM     25  C   UNL     1      -3.253   1.687   1.043  0.00  0.00    +0.277 C 
ENDBRANCH  21  24
ENDBRANCH   1  19
BRANCH   1  26
ATOM     26  C   UNL     1       2.983   1.435   0.043  0.00  0.00    +0.143 A 
ATOM     27  N   UNL     1       3.371   2.680   0.168  0.00  0.00    -0.115 NA
ATOM     28  N   UNL     1       4.586   2.762  -0.253  0.00  0.00    -0.023 NA
ATOM     29  N   UNL     1       4.981   1.603  -0.649  0.00  0.00    -0.044 NA
ATOM     30  N   UNL     1       4.020   0.757  -0.482  0.00  0.00    -0.226 N 
BRANCH  30  31
ATOM     31  C   UNL     1       4.053  -0.671  -0.805  0.00  0.00    +0.189 C 
BRANCH  31  32
ATOM     32  C   UNL     1       3.567  -0.878  -2.217  0.00  0.00    +0.011 A 
ATOM     33  C   UNL     1       4.278  -0.891  -3.371  0.00  0.00    +0.013 A 
ATOM     34  C   UNL     1       3.614  -1.103  -4.565  0.00  0.00    +0.008 A 
ATOM     35  C   UNL     1       2.272  -1.291  -4.546  0.00  0.00    +0.045 A 
ATOM     36  S   UNL     1       1.907  -1.177  -2.802  0.00  0.00    -0.100 S 
ENDBRANCH  31  32
ENDBRANCH  30  31
ENDBRANCH   1  26
TORSDOF 8
