REMARK  Name = ZINC10067501
REMARK  15 active torsions:
REMARK  status: ('A' for Active; 'I' for Inactive)
REMARK    1  A    between atoms: C_1  and  C_2
REMARK    2  A    between atoms: C_2  and  C_3
REMARK    3  A    between atoms: C_3  and  C_4
REMARK    4  A    between atoms: C_4  and  N_5
REMARK    5  A    between atoms: N_5  and  C_6
REMARK    6  A    between atoms: N_5  and  S_7
REMARK    7  A    between atoms: S_7  and  C_10
REMARK    8  A    between atoms: C_13  and  C_16
REMARK    9  A    between atoms: N_18  and  C_19
REMARK   10  A    between atoms: C_19  and  C_20
REMARK   11  A    between atoms: C_20  and  C_21
REMARK   12  A    between atoms: C_21  and  N_68
REMARK   13  A    between atoms: C_22  and  N_68
REMARK   14  A    between atoms: C_23  and  N_68
REMARK   15  A    between atoms: C_29  and  C_33
REMARK                            x       y       z     vdW  Elec       q    Type
REMARK                         _______ _______ _______ _____ _____    ______ ____
ROOT
ATOM      1  C   UNL     1      -3.069   3.037   4.923  0.00  0.00    +0.252 C 
ATOM      2  O   UNL     1      -3.957   2.320   5.341  0.00  0.00    -0.270 OA
ATOM      3  N   UNL     1      -2.848   4.238   5.492  0.00  0.00    -0.246 N 
ATOM      4  C   UNL     1      -3.540   4.600   6.635  0.00  0.00    +0.168 A 
ATOM      5  N   UNL     1      -3.463   5.714   7.326  0.00  0.00    -0.224 NA
ATOM      6  C   UNL     1      -4.205   5.934   8.432  0.00  0.00    +0.080 A 
ATOM      7  C   UNL     1      -4.218   7.080   9.261  0.00  0.00    +0.029 A 
ATOM      8  C   UNL     1      -5.039   7.143  10.356  0.00  0.00    +0.005 A 
ATOM      9  C   UNL     1      -5.882   6.093  10.691  0.00  0.00    -0.049 A 
ATOM     10  C   UNL     1      -5.895   4.957   9.904  0.00  0.00    +0.020 A 
ATOM     11  C   UNL     1      -5.076   4.885   8.805  0.00  0.00    +0.041 A 
ATOM     12  S   UNL     1      -4.771   3.674   7.541  0.00  0.00    -0.052 S 
ATOM     13  C   UNL     1      -6.775   6.191  11.902  0.00  0.00    +0.044 C 
ENDROOT
BRANCH   1  17
ATOM     14  C   UNL     1      -0.661   1.754   1.668  0.00  0.00    +0.106 A 
ATOM     15  C   UNL     1      -0.888   3.104   1.866  0.00  0.00    +0.029 A 
ATOM     16  C   UNL     1      -1.674   3.527   2.918  0.00  0.00    +0.015 A 
ATOM     17  C   UNL     1      -2.231   2.590   3.790  0.00  0.00    +0.037 A 
ATOM     18  C   UNL     1      -1.994   1.230   3.587  0.00  0.00    +0.015 A 
ATOM     19  C   UNL     1      -1.211   0.820   2.528  0.00  0.00    +0.029 A 
BRANCH  14  20
ATOM     20  S   UNL     1       0.338   1.222   0.317  0.00  0.00    +0.061 S 
ATOM     21  O   UNL     1       0.851  -0.056   0.670  0.00  0.00    -0.153 OA
ATOM     22  O   UNL     1       1.181   2.315  -0.019  0.00  0.00    -0.153 OA
BRANCH  20  23
ATOM     23  N   UNL     1      -0.671   0.986  -0.975  0.00  0.00    -0.180 NA
ATOM     24  C   UNL     1      -0.948   2.089  -1.898  0.00  0.00    +0.131 C 
BRANCH  23  25
ATOM     25  C   UNL     1      -1.285  -0.326  -1.195  0.00  0.00    +0.109 C 
BRANCH  25  26
ATOM     26  C   UNL     1      -2.681  -0.347  -0.568  0.00  0.00    +0.017 C 
BRANCH  26  28
ATOM     27  C   UNL     1      -4.718  -1.738  -0.172  0.00  0.00    +0.004 C 
ATOM     28  C   UNL     1      -3.322  -1.716  -0.798  0.00  0.00    -0.002 C 
ENDBRANCH  26  28
ENDBRANCH  25  26
ENDBRANCH  23  25
ENDBRANCH  20  23
ENDBRANCH  14  20
ENDBRANCH   1  17
BRANCH   3  29
ATOM     29  C   UNL     1      -1.875   5.160   4.901  0.00  0.00    +0.114 C 
BRANCH  29  30
ATOM     30  C   UNL     1      -2.608   6.193   4.042  0.00  0.00    +0.001 C 
BRANCH  30  31
ATOM     31  C   UNL     1      -1.592   7.156   3.425  0.00  0.00    -0.078 C 
BRANCH  31  34
ATOM     32  C   UNL     1      -1.388   9.225   2.184  0.00  0.00    -0.097 C 
ATOM     33  C   UNL     1      -2.925   7.511   1.435  0.00  0.00    -0.097 C 
ATOM     34  N   UNL     1      -2.316   8.159   2.616  0.00  0.00    +0.376 N 
ATOM     35  H   UNL     1      -3.060   8.575   3.188  0.00  0.00    -0.083 HD
ENDBRANCH  31  34
ENDBRANCH  30  31
ENDBRANCH  29  30
ENDBRANCH   3  29
TORSDOF 10
