REMARK  Name = ZINC29386412
REMARK  6 active torsions:
REMARK  status: ('A' for Active; 'I' for Inactive)
REMARK    1  A    between atoms: C_1  and  C_2
REMARK    2  A    between atoms: C_5  and  C_8
REMARK    3  A    between atoms: C_8  and  N_9
REMARK    4  A    between atoms: C_16  and  C_18
REMARK    5  A    between atoms: C_22  and  N_24
REMARK    6  A    between atoms: C_25  and  C_27
REMARK                            x       y       z     vdW  Elec       q    Type
REMARK                         _______ _______ _______ _____ _____    ______ ____
ROOT
ATOM      1  N   UNL     1       5.649   1.844  -0.336  0.00  0.00    -0.331 N 
ATOM      2  C   UNL     1       6.831   1.185  -0.427  0.00  0.00    +0.088 A 
ATOM      3  C   UNL     1       6.871  -0.170  -0.397  0.00  0.00    +0.018 A 
ATOM      4  C   UNL     1       5.688  -0.905  -0.270  0.00  0.00    +0.005 A 
ATOM      5  C   UNL     1       4.494  -0.246  -0.173  0.00  0.00    +0.042 A 
ATOM      6  C   UNL     1       4.479   1.155  -0.213  0.00  0.00    +0.106 A 
ATOM      7  N   UNL     1       3.317   1.816  -0.123  0.00  0.00    -0.268 N 
ATOM      8  C   UNL     1       2.168   1.143  -0.100  0.00  0.00    +0.249 C 
ATOM      9  O   UNL     1       1.914   0.401   0.834  0.00  0.00    -0.270 OA
ATOM     10  H   UNL     1       3.312   2.914  -0.069  0.00  0.00    +0.157 HD
ENDROOT
BRANCH   8  11
ATOM     11  C   UNL     1       1.198   1.295  -1.210  0.00  0.00    +0.039 A 
ATOM     12  C   UNL     1       1.486   2.143  -2.280  0.00  0.00    +0.013 A 
ATOM     13  C   UNL     1       0.581   2.284  -3.312  0.00  0.00    +0.003 A 
ATOM     14  C   UNL     1      -0.613   1.587  -3.290  0.00  0.00    +0.023 A 
ATOM     15  C   UNL     1      -0.906   0.736  -2.232  0.00  0.00    +0.034 A 
ATOM     16  C   UNL     1      -0.005   0.592  -1.188  0.00  0.00    +0.036 A 
BRANCH  15  17
ATOM     17  N   UNL     1      -2.113   0.028  -2.217  0.00  0.00    -0.281 N 
ATOM     18  C   UNL     1      -2.158  -1.215  -1.698  0.00  0.00    +0.255 C 
ATOM     19  O   UNL     1      -1.171  -1.690  -1.168  0.00  0.00    -0.269 OA
ATOM     20  H   UNL     1      -3.024   0.486  -2.629  0.00  0.00    +0.155 HD
BRANCH  18  21
ATOM     21  C   UNL     1      -3.397  -1.995  -1.773  0.00  0.00    +0.074 A 
ATOM     22  C   UNL     1      -3.652  -3.275  -1.308  0.00  0.00    +0.021 A 
ATOM     23  C   UNL     1      -4.915  -3.774  -1.511  0.00  0.00    +0.008 A 
ATOM     24  C   UNL     1      -5.837  -3.005  -2.147  0.00  0.00    +0.046 A 
ATOM     25  S   UNL     1      -4.971  -1.541  -2.480  0.00  0.00    -0.092 S 
ENDBRANCH  18  21
ENDBRANCH  15  17
ENDBRANCH   8  11
BRANCH   1  26
ATOM     26  C   UNL     1       5.630   3.309  -0.371  0.00  0.00    +0.158 C 
BRANCH  26  31
ATOM     27  C   UNL     1      10.550   5.353   1.866  0.00  0.00    +0.044 C 
ATOM     28  C   UNL     1       9.267   4.821   1.282  0.00  0.00    -0.050 A 
ATOM     29  C   UNL     1       9.181   4.556  -0.072  0.00  0.00    +0.004 A 
ATOM     30  C   UNL     1       8.004   4.067  -0.607  0.00  0.00    +0.005 A 
ATOM     31  C   UNL     1       6.913   3.842   0.212  0.00  0.00    -0.028 A 
ATOM     32  C   UNL     1       6.998   4.111   1.565  0.00  0.00    +0.005 A 
ATOM     33  C   UNL     1       8.176   4.597   2.101  0.00  0.00    +0.004 A 
ENDBRANCH  26  31
ENDBRANCH   1  26
TORSDOF 5
