REMARK  Name = ZINC13671046
REMARK  15 active torsions:
REMARK  status: ('A' for Active; 'I' for Inactive)
REMARK    1  A    between atoms: C_1  and  C_2
REMARK    2  A    between atoms: C_2  and  O_3
REMARK    3  A    between atoms: O_3  and  C_4
REMARK    4  A    between atoms: C_4  and  C_6
REMARK    5  A    between atoms: C_10  and  N_13
REMARK    6  A    between atoms: C_11  and  C_12
REMARK    7  A    between atoms: C_14  and  C_16
REMARK    8  A    between atoms: C_16  and  N_17
REMARK    9  A    between atoms: N_17  and  C_18
REMARK   10  A    between atoms: N_17  and  S_24
REMARK   11  A    between atoms: S_24  and  C_27
REMARK   12  A    between atoms: C_30  and  O_35
REMARK   13  A    between atoms: C_31  and  O_33
REMARK   14  A    between atoms: O_33  and  C_34
REMARK   15  A    between atoms: O_35  and  C_36
REMARK                            x       y       z     vdW  Elec       q    Type
REMARK                         _______ _______ _______ _____ _____    ______ ____
ROOT
ATOM      1  N   UNL     1       0.535   4.896  -1.024  0.00  0.00    -0.194 N 
ENDROOT
BRANCH   1   2
ATOM      2  C   UNL     1      -0.137   5.389  -2.146  0.00  0.00    +0.052 A 
ATOM      3  C   UNL     1      -0.276   6.759  -2.328  0.00  0.00    +0.025 A 
ATOM      4  C   UNL     1      -0.937   7.242  -3.440  0.00  0.00    +0.002 A 
ATOM      5  C   UNL     1      -1.469   6.364  -4.366  0.00  0.00    +0.000 A 
ATOM      6  C   UNL     1      -1.337   4.999  -4.185  0.00  0.00    +0.002 A 
ATOM      7  C   UNL     1      -0.673   4.509  -3.078  0.00  0.00    +0.025 A 
ENDBRANCH   1   2
BRANCH   1   8
ATOM      8  S   UNL     1       0.620   5.807   0.356  0.00  0.00    +0.075 S 
ATOM      9  O   UNL     1      -0.490   6.694   0.326  0.00  0.00    -0.150 OA
ATOM     10  O   UNL     1       0.842   4.901   1.428  0.00  0.00    -0.150 OA
BRANCH   8  11
ATOM     11  C   UNL     1       2.067   6.806   0.234  0.00  0.00    +0.112 A 
ATOM     12  C   UNL     1       3.296   6.285   0.591  0.00  0.00    +0.032 A 
ATOM     13  C   UNL     1       4.435   7.063   0.491  0.00  0.00    +0.051 A 
ATOM     14  C   UNL     1       4.343   8.371   0.043  0.00  0.00    +0.162 A 
ATOM     15  C   UNL     1       3.105   8.897  -0.312  0.00  0.00    +0.163 A 
ATOM     16  C   UNL     1       1.968   8.110  -0.215  0.00  0.00    +0.078 A 
BRANCH  15  17
ATOM     17  O   UNL     1       3.010  10.180  -0.753  0.00  0.00    -0.491 OA
ATOM     18  C   UNL     1       1.706  10.652  -1.099  0.00  0.00    +0.277 C 
ENDBRANCH  15  17
BRANCH  14  19
ATOM     19  O   UNL     1       5.462   9.139  -0.051  0.00  0.00    -0.491 OA
ATOM     20  C   UNL     1       6.699   8.533   0.330  0.00  0.00    +0.277 C 
ENDBRANCH  14  19
ENDBRANCH   8  11
ENDBRANCH   1   8
BRANCH   1  21
ATOM     21  C   UNL     1       1.165   3.575  -1.070  0.00  0.00    +0.227 C 
BRANCH  21  23
ATOM     22  N   UNL     1       0.497   1.219  -0.722  0.00  0.00    -0.284 N 
ATOM     23  C   UNL     1       0.142   2.519  -0.741  0.00  0.00    +0.236 C 
ATOM     24  O   UNL     1      -1.002   2.838  -0.497  0.00  0.00    -0.274 OA
ATOM     25  H   UNL     1       1.391   0.956  -0.991  0.00  0.00    +0.155 HD
BRANCH  22  30
ATOM     26  C   UNL     1      -1.191  -2.033  -0.311  0.00  0.00    +0.064 A 
ATOM     27  C   UNL     1      -2.263  -1.666   0.506  0.00  0.00    +0.015 A 
ATOM     28  C   UNL     1      -2.407  -0.353   0.905  0.00  0.00    +0.003 A 
ATOM     29  C   UNL     1      -1.494   0.603   0.499  0.00  0.00    +0.023 A 
ATOM     30  C   UNL     1      -0.424   0.247  -0.314  0.00  0.00    +0.037 A 
ATOM     31  C   UNL     1      -0.273  -1.068  -0.725  0.00  0.00    -0.015 A 
ATOM     32  C   UNL     1       0.883  -1.454  -1.612  0.00  0.00    +0.046 C 
BRANCH  26  33
ATOM     33  C   UNL     1      -1.034  -3.438  -0.741  0.00  0.00    +0.339 C 
ATOM     34  O   UNL     1      -0.047  -3.776  -1.362  0.00  0.00    -0.245 OA
BRANCH  33  35
ATOM     35  O   UNL     1      -1.986  -4.343  -0.444  0.00  0.00    -0.461 OA
BRANCH  35  37
ATOM     36  C   UNL     1      -2.943  -6.582  -0.469  0.00  0.00    +0.048 C 
ATOM     37  C   UNL     1      -1.765  -5.705  -0.897  0.00  0.00    +0.229 C 
ENDBRANCH  35  37
ENDBRANCH  33  35
ENDBRANCH  26  33
ENDBRANCH  22  30
ENDBRANCH  21  23
ENDBRANCH   1  21
TORSDOF 11
