REMARK  Name = ZINC64984811
REMARK  7 active torsions:
REMARK  status: ('A' for Active; 'I' for Inactive)
REMARK    1  A    between atoms: C_1  and  C_2
REMARK    2  A    between atoms: C_2  and  C_3
REMARK    3  A    between atoms: C_3  and  C_4
REMARK    4  A    between atoms: C_6  and  C_9
REMARK    5  A    between atoms: N_17  and  C_18
REMARK    6  A    between atoms: C_23  and  C_24
REMARK    7  A    between atoms: C_24  and  C_25
REMARK                            x       y       z     vdW  Elec       q    Type
REMARK                         _______ _______ _______ _____ _____    ______ ____
ROOT
ATOM      1  C   UNL     1       2.145  -5.360   0.423  0.00  0.00    +0.130 C 
ATOM      2  C   UNL     1       2.452  -6.286   1.619  0.00  0.00    +0.030 C 
ATOM      3  C   UNL     1       3.893  -6.776   1.319  0.00  0.00    +0.021 C 
ATOM      4  C   UNL     1       4.520  -5.519   0.667  0.00  0.00    +0.110 C 
ATOM      5  N   UNL     1       3.433  -4.928  -0.140  0.00  0.00    -0.277 N 
ATOM      6  C   UNL     1       3.592  -4.128  -1.213  0.00  0.00    +0.307 C 
ATOM      7  O   UNL     1       2.618  -3.700  -1.802  0.00  0.00    -0.252 OA
ATOM      8  N   UNL     1       4.831  -3.803  -1.633  0.00  0.00    -0.269 N 
ATOM      9  H   UNL     1       5.605  -4.077  -1.117  0.00  0.00    +0.156 HD
ENDROOT
BRANCH   8  10
ATOM     10  C   UNL     1       4.999  -3.071  -2.814  0.00  0.00    +0.038 A 
ATOM     11  C   UNL     1       4.025  -3.111  -3.803  0.00  0.00    +0.023 A 
ATOM     12  C   UNL     1       4.194  -2.387  -4.966  0.00  0.00    +0.002 A 
ATOM     13  C   UNL     1       5.333  -1.623  -5.148  0.00  0.00    +0.000 A 
ATOM     14  C   UNL     1       6.305  -1.582  -4.166  0.00  0.00    +0.005 A 
ATOM     15  C   UNL     1       6.139  -2.299  -2.997  0.00  0.00    -0.026 A 
BRANCH  15  16
ATOM     16  C   UNL     1       7.196  -2.248  -1.924  0.00  0.00    +0.033 C 
ATOM     17  C   UNL     1       8.150  -3.433  -2.092  0.00  0.00    +0.009 C 
ENDBRANCH  15  16
ENDBRANCH   8  10
BRANCH   1  20
ATOM     18  C   UNL     1       0.766  -2.043   1.254  0.00  0.00    +0.138 A 
ATOM     19  C   UNL     1       1.717  -2.814   0.692  0.00  0.00    +0.072 A 
ATOM     20  C   UNL     1       1.362  -4.161   0.890  0.00  0.00    +0.104 A 
ATOM     21  N   UNL     1       0.237  -4.190   1.548  0.00  0.00    -0.081 NA
ATOM     22  O   UNL     1      -0.158  -2.853   1.795  0.00  0.00    -0.359 OA
BRANCH  18  23
ATOM     23  C   UNL     1       0.746  -0.537   1.277  0.00  0.00    +0.077 C 
BRANCH  23  25
ATOM     24  C   UNL     1      -0.014   1.512   0.067  0.00  0.00    +0.004 C 
ATOM     25  C   UNL     1       0.006  -0.017   0.043  0.00  0.00    +0.004 C 
ENDBRANCH  23  25
ENDBRANCH  18  23
ENDBRANCH   1  20
TORSDOF 5
