REMARK  Name = ZINC39633753
REMARK  4 active torsions:
REMARK  status: ('A' for Active; 'I' for Inactive)
REMARK    1  A    between atoms: C_5  and  C_7
REMARK    2  A    between atoms: C_10  and  C_12
REMARK    3  A    between atoms: C_16  and  C_25
REMARK    4  A    between atoms: N_27  and  C_28
REMARK                            x       y       z     vdW  Elec       q    Type
REMARK                         _______ _______ _______ _____ _____    ______ ____
ROOT
ATOM      1  C   UNL     1       2.355  -5.502  -1.350  0.00  0.00    +0.282 C 
ATOM      2  O   UNL     1       2.136  -6.644  -0.990  0.00  0.00    -0.267 OA
ATOM      3  N   UNL     1       3.225  -5.265  -2.351  0.00  0.00    -0.294 N 
ATOM      4  C   UNL     1       3.622  -3.955  -2.918  0.00  0.00    +0.121 C 
ATOM      5  C   UNL     1       5.138  -4.089  -3.184  0.00  0.00    +0.100 C 
ATOM      6  C   UNL     1       5.380  -5.601  -3.326  0.00  0.00    -0.004 C 
ATOM      7  C   UNL     1       4.006  -6.256  -3.129  0.00  0.00    +0.115 C 
ATOM      8  C   UNL     1       6.348  -6.085  -2.250  0.00  0.00    -0.010 C 
ATOM      9  C   UNL     1       6.617  -7.579  -2.447  0.00  0.00    -0.082 C 
ATOM     10  N   UNL     1       7.186  -7.804  -3.782  0.00  0.00    +0.379 N 
ATOM     11  C   UNL     1       6.212  -7.422  -4.812  0.00  0.00    -0.082 C 
ATOM     12  C   UNL     1       5.926  -5.921  -4.715  0.00  0.00    -0.010 C 
ATOM     13  H   UNL     1       8.021  -7.248  -3.888  0.00  0.00    -0.086 HD
ATOM     14  H   UNL     1       7.419  -8.780  -3.887  0.00  0.00    -0.086 HD
ENDROOT
BRANCH   1  18
ATOM     15  C   UNL     1       1.038  -2.342  -0.187  0.00  0.00    +0.139 A 
ATOM     16  C   UNL     1       0.365  -3.182   0.653  0.00  0.00    +0.051 A 
ATOM     17  C   UNL     1       0.762  -4.485   0.337  0.00  0.00    +0.055 A 
ATOM     18  C   UNL     1       1.671  -4.385  -0.694  0.00  0.00    +0.190 A 
ATOM     19  O   UNL     1       1.818  -3.078  -0.997  0.00  0.00    -0.450 OA
BRANCH  15  24
ATOM     20  C   UNL     1      -0.434   1.110  -0.262  0.00  0.00    +0.001 A 
ATOM     21  C   UNL     1       0.708   1.892  -0.244  0.00  0.00    +0.003 A 
ATOM     22  C   UNL     1       1.958   1.302  -0.207  0.00  0.00    +0.039 A 
ATOM     23  C   UNL     1       2.074  -0.075  -0.188  0.00  0.00    +0.134 A 
ATOM     24  C   UNL     1       0.924  -0.870  -0.207  0.00  0.00    +0.052 A 
ATOM     25  C   UNL     1      -0.334  -0.265  -0.244  0.00  0.00    +0.014 A 
ATOM     26  F   UNL     1       3.296  -0.652  -0.153  0.00  0.00    -0.205 F 
ENDBRANCH  15  24
ENDBRANCH   1  18
BRANCH   5  27
ATOM     27  C   UNL     1       5.513  -3.373  -4.457  0.00  0.00    +0.218 C 
ATOM     28  O   UNL     1       4.715  -3.297  -5.367  0.00  0.00    -0.275 OA
ATOM     29  N   UNL     1       6.735  -2.818  -4.583  0.00  0.00    -0.312 N 
ATOM     30  H   UNL     1       7.373  -2.879  -3.855  0.00  0.00    +0.149 HD
BRANCH  29  31
ATOM     31  C   UNL     1       7.099  -2.123  -5.820  0.00  0.00    +0.073 C 
ATOM     32  C   UNL     1       7.548  -3.164  -6.865  0.00  0.00    +0.022 C 
ATOM     33  C   UNL     1       7.428  -2.550  -8.233  0.00  0.00    +0.002 C 
ATOM     34  C   UNL     1       8.749  -1.920  -8.715  0.00  0.00    +0.000 C 
ATOM     35  C   UNL     1       9.479  -1.141  -7.604  0.00  0.00    +0.000 C 
ATOM     36  C   UNL     1       8.539  -0.321  -6.763  0.00  0.00    +0.002 C 
ATOM     37  C   UNL     1       8.140  -1.149  -5.524  0.00  0.00    +0.022 C 
ENDBRANCH  29  31
ENDBRANCH   5  27
TORSDOF 4
