REMARK  Name = ZINC12788247
REMARK  7 active torsions:
REMARK  status: ('A' for Active; 'I' for Inactive)
REMARK    1  A    between atoms: C_3  and  C_6
REMARK    2  A    between atoms: C_6  and  N_7
REMARK    3  A    between atoms: C_13  and  C_18
REMARK    4  A    between atoms: N_20  and  C_21
REMARK    5  A    between atoms: C_21  and  C_22
REMARK    6  A    between atoms: C_22  and  C_24
REMARK    7  A    between atoms: C_22  and  N_55
REMARK                            x       y       z     vdW  Elec       q    Type
REMARK                         _______ _______ _______ _____ _____    ______ ____
ROOT
ATOM      1  N   UNL     1      -6.017   0.997   6.492  0.00  0.00    -0.227 N 
ATOM      2  C   UNL     1      -6.554   1.426   5.335  0.00  0.00    +0.254 C 
ATOM      3  O   UNL     1      -7.706   1.777   5.176  0.00  0.00    -0.270 OA
ATOM      4  C   UNL     1      -5.506   1.397   4.290  0.00  0.00    +0.049 A 
ATOM      5  C   UNL     1      -5.479   1.720   2.942  0.00  0.00    +0.014 A 
ATOM      6  C   UNL     1      -4.306   1.577   2.222  0.00  0.00    +0.014 A 
ATOM      7  C   UNL     1      -3.149   1.111   2.847  0.00  0.00    +0.037 A 
ATOM      8  C   UNL     1      -3.169   0.779   4.204  0.00  0.00    +0.027 A 
ATOM      9  C   UNL     1      -4.341   0.925   4.927  0.00  0.00    +0.050 A 
ATOM     10  C   UNL     1      -4.719   0.683   6.335  0.00  0.00    +0.254 C 
ATOM     11  O   UNL     1      -3.980   0.270   7.206  0.00  0.00    -0.270 OA
ENDROOT
BRANCH   7  12
ATOM     12  C   UNL     1      -1.899   0.962   2.069  0.00  0.00    +0.244 C 
ATOM     13  O   UNL     1      -0.890   0.555   2.611  0.00  0.00    -0.270 OA
ATOM     14  N   UNL     1      -1.879   1.276   0.758  0.00  0.00    -0.313 N 
ATOM     15  H   UNL     1      -2.684   1.600   0.325  0.00  0.00    +0.149 HD
BRANCH  14  16
ATOM     16  C   UNL     1      -0.641   1.128  -0.012  0.00  0.00    +0.094 C 
BRANCH  16  17
ATOM     17  C   UNL     1      -0.843   1.701  -1.416  0.00  0.00    -0.013 C 
BRANCH  17  22
ATOM     18  C   UNL     1      -1.016   3.778  -2.675  0.00  0.00    -0.078 C 
ATOM     19  C   UNL     1      -1.744   5.128  -2.456  0.00  0.00    -0.020 C 
ATOM     20  C   UNL     1      -2.862   4.759  -1.454  0.00  0.00    -0.020 C 
ATOM     21  C   UNL     1      -2.375   3.471  -0.765  0.00  0.00    -0.078 C 
ATOM     22  N   UNL     1      -1.059   3.177  -1.333  0.00  0.00    +0.386 N 
ATOM     23  H   UNL     1      -0.327   3.592  -0.744  0.00  0.00    -0.081 HD
ENDBRANCH  17  22
BRANCH  17  24
ATOM     24  C   UNL     1       0.375   1.413  -2.256  0.00  0.00    -0.022 A 
ATOM     25  C   UNL     1       0.521   0.529  -3.273  0.00  0.00    +0.009 A 
ATOM     26  C   UNL     1       1.745   0.434  -3.908  0.00  0.00    +0.008 A 
ATOM     27  C   UNL     1       2.763   1.228  -3.496  0.00  0.00    +0.045 A 
ATOM     28  S   UNL     1       1.997   2.154  -2.175  0.00  0.00    -0.103 S 
ENDBRANCH  17  24
ENDBRANCH  16  17
ENDBRANCH  14  16
ENDBRANCH   7  12
BRANCH   1  29
ATOM     29  C   UNL     1      -6.750   0.886   7.755  0.00  0.00    +0.191 C 
BRANCH  29  32
ATOM     30  C   UNL     1      -7.006   4.221   9.302  0.00  0.00    +0.041 A 
ATOM     31  C   UNL     1      -7.482   3.227   8.417  0.00  0.00    +0.046 A 
ATOM     32  C   UNL     1      -6.640   2.183   8.516  0.00  0.00    +0.123 A 
ATOM     33  O   UNL     1      -5.681   2.493   9.403  0.00  0.00    -0.466 OA
ATOM     34  C   UNL     1      -5.898   3.729   9.883  0.00  0.00    +0.195 A 
ENDBRANCH  29  32
ENDBRANCH   1  29
TORSDOF 7
