REMARK  Name = ZINC09125662
REMARK  4 active torsions:
REMARK  status: ('A' for Active; 'I' for Inactive)
REMARK    1  A    between atoms: C_1  and  C_2
REMARK    2  A    between atoms: N_8  and  C_9
REMARK    3  A    between atoms: C_16  and  C_18
REMARK    4  A    between atoms: C_18  and  N_19
REMARK                            x       y       z     vdW  Elec       q    Type
REMARK                         _______ _______ _______ _____ _____    ______ ____
ROOT
ATOM      1  C   UNL     1      -0.274  -0.015   0.019  0.00  0.00    +0.214 C 
ENDROOT
BRANCH   1   2
ATOM      2  N   UNL     1      -0.612   1.410   0.038  0.00  0.00    -0.215 N 
ATOM      3  C   UNL     1       0.296   2.404   0.124  0.00  0.00    +0.252 C 
ATOM      4  O   UNL     1       1.501   2.292   0.197  0.00  0.00    -0.272 OA
ATOM      5  C   UNL     1      -0.505   3.685   0.110  0.00  0.00    +0.144 C 
ATOM      6  C   UNL     1      -0.288   4.462   1.405  0.00  0.00    +0.081 C 
ATOM      7  C   UNL     1      -0.896   5.861   1.237  0.00  0.00    +0.232 C 
ATOM      8  O   UNL     1      -0.183   6.543   0.204  0.00  0.00    -0.492 OA
ATOM      9  C   UNL     1       0.004   5.897  -0.976  0.00  0.00    +0.126 A 
ATOM     10  C   UNL     1      -0.134   4.522  -1.082  0.00  0.00    +0.027 A 
ATOM     11  C   UNL     1       0.071   3.903  -2.303  0.00  0.00    +0.010 A 
ATOM     12  C   UNL     1       0.410   4.648  -3.416  0.00  0.00    +0.001 A 
ATOM     13  C   UNL     1       0.546   6.020  -3.313  0.00  0.00    +0.004 A 
ATOM     14  C   UNL     1       0.345   6.644  -2.099  0.00  0.00    +0.046 A 
ATOM     15  N   UNL     1      -1.898   3.234   0.009  0.00  0.00    -0.281 N 
ATOM     16  C   UNL     1      -1.860   1.888  -0.033  0.00  0.00    +0.310 C 
ATOM     17  O   UNL     1      -2.849   1.186  -0.122  0.00  0.00    -0.252 OA
ATOM     18  H   UNL     1      -2.689   3.794  -0.026  0.00  0.00    +0.152 HD
ENDBRANCH   1   2
BRANCH   1  26
ATOM     19  C   UNL     1       1.647  -3.039  -2.514  0.00  0.00    +0.033 C 
ATOM     20  C   UNL     1       0.410  -3.406  -1.691  0.00  0.00    +0.115 C 
ATOM     21  C   UNL     1       0.598  -4.827  -1.115  0.00  0.00    +0.103 C 
ATOM     22  S   UNL     1       0.480  -4.469   0.680  0.00  0.00    -0.088 S 
ATOM     23  C   UNL     1       0.215  -2.709   0.595  0.00  0.00    +0.163 C 
ATOM     24  N   UNL     1       0.221  -2.408  -0.663  0.00  0.00    -0.259 NA
ATOM     25  N   UNL     1       0.043  -1.840   1.659  0.00  0.00    -0.218 N 
ATOM     26  C   UNL     1      -0.248  -0.544   1.430  0.00  0.00    +0.244 C 
ATOM     27  O   UNL     1      -0.488   0.197   2.360  0.00  0.00    -0.273 OA
BRANCH  25  28
ATOM     28  C   UNL     1       0.171  -2.308   2.974  0.00  0.00    +0.043 A 
ATOM     29  C   UNL     1       1.239  -1.895   3.759  0.00  0.00    +0.025 A 
ATOM     30  C   UNL     1       1.360  -2.353   5.056  0.00  0.00    +0.022 A 
ATOM     31  C   UNL     1       0.424  -3.233   5.570  0.00  0.00    +0.041 A 
ATOM     32  C   UNL     1      -0.639  -3.651   4.788  0.00  0.00    +0.022 A 
ATOM     33  C   UNL     1      -0.767  -3.191   3.492  0.00  0.00    +0.025 A 
ATOM     34 CL   UNL     1       0.582  -3.813   7.199  0.00  0.00    -0.084 Cl
ENDBRANCH  25  28
ENDBRANCH   1  26
TORSDOF 3
