REMARK  Name = ZINC63137093
REMARK  7 active torsions:
REMARK  status: ('A' for Active; 'I' for Inactive)
REMARK    1  A    between atoms: C_1  and  C_2
REMARK    2  A    between atoms: C_2  and  C_3
REMARK    3  A    between atoms: C_3  and  C_4
REMARK    4  A    between atoms: C_4  and  C_5
REMARK    5  A    between atoms: C_5  and  C_6
REMARK    6  A    between atoms: C_6  and  N_7
REMARK    7  A    between atoms: C_27  and  C_29
REMARK                            x       y       z     vdW  Elec       q    Type
REMARK                         _______ _______ _______ _____ _____    ______ ____
ROOT
ATOM      1  N   UNL     1       2.583  -4.280  -3.629  0.00  0.00    -0.291 N 
ATOM      2  C   UNL     1       1.661  -4.551  -4.719  0.00  0.00    +0.203 C 
ATOM      3  C   UNL     1       2.350  -5.125  -5.912  0.00  0.00    +0.234 C 
ATOM      4  O   UNL     1       1.671  -5.391  -6.881  0.00  0.00    -0.274 OA
ATOM      5  N   UNL     1       3.664  -5.368  -5.988  0.00  0.00    -0.279 N 
ATOM      6  C   UNL     1       4.585  -5.074  -4.895  0.00  0.00    +0.167 C 
ATOM      7  C   UNL     1       3.894  -4.505  -3.700  0.00  0.00    +0.237 C 
ATOM      8  O   UNL     1       4.570  -4.235  -2.729  0.00  0.00    -0.274 OA
ATOM      9  C   UNL     1       5.673  -4.095  -5.374  0.00  0.00    +0.065 C 
ATOM     10  C   UNL     1       6.158  -4.610  -6.706  0.00  0.00    -0.034 C 
ATOM     11  C   UNL     1       7.380  -4.859  -7.161  0.00  0.00    -0.001 A 
ATOM     12  C   UNL     1       8.710  -4.622  -6.579  0.00  0.00    +0.010 A 
ATOM     13  C   UNL     1       9.772  -5.028  -7.324  0.00  0.00    +0.001 A 
ATOM     14  C   UNL     1       9.645  -5.640  -8.575  0.00  0.00    +0.002 A 
ATOM     15  C   UNL     1       8.462  -5.888  -9.191  0.00  0.00    +0.026 A 
ATOM     16  C   UNL     1       7.273  -5.498  -8.509  0.00  0.00    +0.043 A 
ATOM     17  N   UNL     1       6.027  -5.592  -8.869  0.00  0.00    -0.375 N 
ATOM     18  C   UNL     1       5.199  -4.975  -7.833  0.00  0.00    +0.131 C 
ATOM     19  C   UNL     1       4.186  -5.960  -7.241  0.00  0.00    +0.134 C 
ATOM     20  H   UNL     1       5.702  -6.001  -9.687  0.00  0.00    +0.160 HD
ENDROOT
BRANCH  19  21
ATOM     21  C   UNL     1       4.864  -7.272  -6.943  0.00  0.00    -0.017 A 
ATOM     22  C   UNL     1       5.904  -7.322  -6.066  0.00  0.00    +0.006 A 
ATOM     23  C   UNL     1       6.542  -8.526  -5.778  0.00  0.00    +0.001 A 
ATOM     24  C   UNL     1       6.146  -9.688  -6.365  0.00  0.00    +0.008 A 
ATOM     25  C   UNL     1       5.076  -9.676  -7.276  0.00  0.00    -0.018 A 
ATOM     26  C   UNL     1       4.422  -8.452  -7.564  0.00  0.00    -0.013 A 
ATOM     27  C   UNL     1       3.348  -8.442  -8.471  0.00  0.00    +0.009 A 
ATOM     28  C   UNL     1       2.947  -9.605  -9.054  0.00  0.00    +0.001 A 
ATOM     29  C   UNL     1       3.586 -10.809  -8.765  0.00  0.00    +0.001 A 
ATOM     30  C   UNL     1       4.638 -10.856  -7.903  0.00  0.00    +0.008 A 
ENDBRANCH  19  21
BRANCH   1  31
ATOM     31  C   UNL     1       2.042  -3.725  -2.386  0.00  0.00    +0.108 C 
BRANCH  31  32
ATOM     32  C   UNL     1       2.055  -2.197  -2.462  0.00  0.00    +0.019 C 
BRANCH  32  33
ATOM     33  C   UNL     1       1.490  -1.617  -1.164  0.00  0.00    +0.002 C 
BRANCH  33  34
ATOM     34  C   UNL     1       1.503  -0.088  -1.241  0.00  0.00    -0.000 C 
BRANCH  34  36
ATOM     35  C   UNL     1       0.951   2.020  -0.019  0.00  0.00    +0.004 C 
ATOM     36  C   UNL     1       0.938   0.492   0.057  0.00  0.00    -0.003 C 
ENDBRANCH  34  36
ENDBRANCH  33  34
ENDBRANCH  32  33
ENDBRANCH  31  32
ENDBRANCH   1  31
TORSDOF 6
