REMARK  Name = ZINC09632783
REMARK  5 active torsions:
REMARK  status: ('A' for Active; 'I' for Inactive)
REMARK    1  A    between atoms: C_7  and  C_23
REMARK    2  A    between atoms: C_12  and  C_13
REMARK    3  A    between atoms: C_23  and  O_25
REMARK    4  A    between atoms: O_25  and  C_26
REMARK    5  A    between atoms: C_26  and  C_27
REMARK                            x       y       z     vdW  Elec       q    Type
REMARK                         _______ _______ _______ _____ _____    ______ ____
ROOT
ATOM      1  C   UNL     1       4.792  -5.126   3.502  0.00  0.00    +0.001 A 
ATOM      2  C   UNL     1       6.018  -5.783   3.426  0.00  0.00    +0.002 A 
ATOM      3  C   UNL     1       6.647  -5.960   2.232  0.00  0.00    +0.028 A 
ATOM      4  C   UNL     1       6.054  -5.472   1.052  0.00  0.00    +0.072 A 
ATOM      5  C   UNL     1       4.809  -4.799   1.137  0.00  0.00    +0.015 A 
ATOM      6  C   UNL     1       4.188  -4.641   2.380  0.00  0.00    +0.011 A 
ATOM      7  C   UNL     1       4.196  -4.303  -0.095  0.00  0.00    +0.073 A 
ATOM      8  C   UNL     1       4.880  -4.512  -1.285  0.00  0.00    -0.007 A 
ATOM      9  C   UNL     1       6.117  -5.181  -1.258  0.00  0.00    +0.072 A 
ATOM     10  N   UNL     1       6.647  -5.627  -0.131  0.00  0.00    -0.247 NA
ATOM     11  C   UNL     1       6.856  -5.392  -2.522  0.00  0.00    -0.021 C 
ATOM     12  C   UNL     1       8.136  -5.803  -2.518  0.00  0.00    +0.013 C 
ATOM     13  C   UNL     1       6.123  -5.129  -3.820  0.00  0.00    +0.037 C 
ATOM     14  C   UNL     1       5.332  -3.826  -3.647  0.00  0.00    +0.009 C 
ATOM     15  C   UNL     1       4.271  -4.020  -2.568  0.00  0.00    +0.038 C 
ENDROOT
BRANCH  12  16
ATOM     16  C   UNL     1       8.796  -6.169  -3.783  0.00  0.00    -0.025 A 
ATOM     17  C   UNL     1       8.059  -6.759  -4.814  0.00  0.00    +0.011 A 
ATOM     18  C   UNL     1       8.682  -7.096  -5.997  0.00  0.00    +0.039 A 
ATOM     19  C   UNL     1      10.038  -6.859  -6.162  0.00  0.00    +0.123 A 
ATOM     20  C   UNL     1      10.775  -6.278  -5.141  0.00  0.00    +0.039 A 
ATOM     21  C   UNL     1      10.164  -5.933  -3.956  0.00  0.00    +0.011 A 
ATOM     22  F   UNL     1      10.644  -7.196  -7.322  0.00  0.00    -0.205 F 
ENDBRANCH  12  16
BRANCH   7  23
ATOM     23  C   UNL     1       2.897  -3.597  -0.072  0.00  0.00    +0.341 C 
ATOM     24  O   UNL     1       1.863  -4.224  -0.190  0.00  0.00    -0.245 OA
BRANCH  23  25
ATOM     25  O   UNL     1       2.860  -2.259   0.077  0.00  0.00    -0.452 OA
BRANCH  25  26
ATOM     26  C   UNL     1       1.550  -1.633   0.090  0.00  0.00    +0.328 C 
BRANCH  26  27
ATOM     27  C   UNL     1       1.705  -0.145   0.266  0.00  0.00    +0.258 C 
ATOM     28  O   UNL     1       2.811   0.341   0.370  0.00  0.00    -0.272 OA
ATOM     29  N   UNL     1       0.615   0.647   0.307  0.00  0.00    -0.238 N 
ATOM     30  C   UNL     1       0.755   1.978   0.464  0.00  0.00    +0.303 C 
ATOM     31  O   UNL     1       1.863   2.465   0.569  0.00  0.00    -0.253 OA
ATOM     32  N   UNL     1      -0.335   2.770   0.499  0.00  0.00    -0.313 N 
ATOM     33  H   UNL     1      -0.270   0.258   0.223  0.00  0.00    +0.159 HD
ATOM     34  H   UNL     1      -1.220   2.382   0.412  0.00  0.00    +0.146 HD
ATOM     35  H   UNL     1      -0.235   3.728   0.613  0.00  0.00    +0.146 HD
ENDBRANCH  26  27
ENDBRANCH  25  26
ENDBRANCH  23  25
ENDBRANCH   7  23
TORSDOF 5
