REMARK  Name = ZINC03052973
REMARK  5 active torsions:
REMARK  status: ('A' for Active; 'I' for Inactive)
REMARK    1  A    between atoms: C_1  and  C_2
REMARK    2  A    between atoms: C_4  and  C_15
REMARK    3  A    between atoms: N_5  and  C_7
REMARK    4  A    between atoms: C_16  and  C_32
REMARK    5  A    between atoms: C_23  and  C_26
REMARK                            x       y       z     vdW  Elec       q    Type
REMARK                         _______ _______ _______ _____ _____    ______ ____
ROOT
ATOM      1  C   UNL     1       0.258  -3.471  -1.329  0.00  0.00    +0.087 A 
ATOM      2  C   UNL     1       0.261  -3.643  -2.681  0.00  0.00    +0.045 A 
ATOM      3  N   UNL     1       0.386  -4.972  -2.949  0.00  0.00    -0.292 N 
ATOM      4  N   UNL     1       0.467  -5.684  -1.747  0.00  0.00    -0.194 N 
ATOM      5  C   UNL     1       0.399  -4.803  -0.728  0.00  0.00    +0.283 A 
ATOM      6  O   UNL     1       0.442  -5.063   0.461  0.00  0.00    -0.265 OA
ATOM      7  C   UNL     1       0.600  -7.061  -1.625  0.00  0.00    +0.196 A 
ATOM      8  N   UNL     1       0.684  -7.979  -2.570  0.00  0.00    -0.221 NA
ATOM      9  C   UNL     1       0.810  -9.264  -2.271  0.00  0.00    +0.080 A 
ATOM     10  C   UNL     1       0.853  -9.646  -0.960  0.00  0.00    +0.077 A 
ATOM     11  S   UNL     1       0.711  -8.060  -0.147  0.00  0.00    -0.056 S 
ATOM     12  C   UNL     1       0.144  -2.546  -3.708  0.00  0.00    +0.066 C 
ATOM     13  H   UNL     1       0.414  -5.365  -3.835  0.00  0.00    +0.187 HD
ENDROOT
BRANCH   1  17
ATOM     14  C   UNL     1       1.153   1.242   0.346  0.00  0.00    +0.067 C 
ATOM     15  C   UNL     1       0.522  -0.111   0.143  0.00  0.00    +0.061 A 
ATOM     16  C   UNL     1       0.997  -1.111  -0.707  0.00  0.00    +0.053 A 
ATOM     17  C   UNL     1       0.143  -2.187  -0.606  0.00  0.00    +0.082 A 
ATOM     18  N   UNL     1      -0.830  -1.844   0.289  0.00  0.00    -0.230 N 
ATOM     19  N   UNL     1      -0.559  -0.546   0.739  0.00  0.00    -0.171 NA
BRANCH  18  20
ATOM     20  C   UNL     1      -1.905  -2.650   0.689  0.00  0.00    +0.084 A 
ATOM     21  C   UNL     1      -2.674  -3.306  -0.262  0.00  0.00    +0.031 A 
ATOM     22  C   UNL     1      -3.732  -4.100   0.135  0.00  0.00    +0.022 A 
ATOM     23  C   UNL     1      -4.028  -4.241   1.480  0.00  0.00    +0.042 A 
ATOM     24  C   UNL     1      -3.264  -3.588   2.430  0.00  0.00    +0.042 A 
ATOM     25  C   UNL     1      -2.200  -2.797   2.039  0.00  0.00    +0.068 A 
ATOM     26 CL   UNL     1      -1.236  -1.984   3.233  0.00  0.00    -0.081 Cl
ATOM     27 CL   UNL     1      -5.360  -5.238   1.974  0.00  0.00    -0.083 Cl
ENDBRANCH  18  20
ENDBRANCH   1  17
BRANCH   9  28
ATOM     28  C   UNL     1       0.902 -10.277  -3.350  0.00  0.00    +0.001 A 
ATOM     29  C   UNL     1       1.028 -11.629  -3.031  0.00  0.00    +0.010 A 
ATOM     30  C   UNL     1       1.113 -12.567  -4.039  0.00  0.00    +0.001 A 
ATOM     31  C   UNL     1       1.074 -12.170  -5.364  0.00  0.00    +0.000 A 
ATOM     32  C   UNL     1       0.950 -10.830  -5.686  0.00  0.00    +0.001 A 
ATOM     33  C   UNL     1       0.858  -9.883  -4.686  0.00  0.00    +0.010 A 
ENDBRANCH   9  28
TORSDOF 3
