REMARK  Name = ZINC36593623
REMARK  17 active torsions:
REMARK  status: ('A' for Active; 'I' for Inactive)
REMARK    1  A    between atoms: C_1  and  C_2
REMARK    2  A    between atoms: C_2  and  C_3
REMARK    3  A    between atoms: C_3  and  C_4
REMARK    4  A    between atoms: C_3  and  C_6
REMARK    5  A    between atoms: C_4  and  C_5
REMARK    6  A    between atoms: C_6  and  C_8
REMARK    7  A    between atoms: C_6  and  N_22
REMARK    8  A    between atoms: N_10  and  C_11
REMARK    9  A    between atoms: C_11  and  S_12
REMARK   10  A    between atoms: S_12  and  C_15
REMARK   11  A    between atoms: C_18  and  C_21
REMARK   12  A    between atoms: N_22  and  C_34
REMARK   13  A    between atoms: C_23  and  C_25
REMARK   14  A    between atoms: C_28  and  N_31
REMARK   15  A    between atoms: C_34  and  C_35
REMARK   16  A    between atoms: C_34  and  C_36
REMARK   17  A    between atoms: C_34  and  C_37
REMARK                            x       y       z     vdW  Elec       q    Type
REMARK                         _______ _______ _______ _____ _____    ______ ____
ROOT
ATOM      1  C   UNL     1       0.486  -0.388  -1.651  0.00  0.00    +0.166 C 
ENDROOT
BRANCH   1   2
ATOM      2  C   UNL     1       0.648   1.105  -1.786  0.00  0.00    +0.235 C 
ATOM      3  O   UNL     1       1.335   1.562  -2.674  0.00  0.00    -0.274 OA
ATOM      4  N   UNL     1       0.029   1.930  -0.919  0.00  0.00    -0.295 N 
ATOM      5  H   UNL     1      -0.478   1.563  -0.178  0.00  0.00    +0.150 HD
BRANCH   4   6
ATOM      6  C   UNL     1       0.123   3.381  -1.095  0.00  0.00    +0.278 C 
BRANCH   6   7
ATOM      7  S   UNL     1      -1.322   3.973  -2.019  0.00  0.00    +0.013 S 
ATOM      8  O   UNL     1      -1.277   5.388  -2.144  0.00  0.00    -0.168 OA
ATOM      9  O   UNL     1      -1.544   3.152  -3.158  0.00  0.00    -0.168 OA
BRANCH   7  10
ATOM     10  C   UNL     1      -2.696   3.658  -0.962  0.00  0.00    +0.090 A 
ATOM     11  C   UNL     1      -3.360   2.448  -1.035  0.00  0.00    +0.027 A 
ATOM     12  C   UNL     1      -4.438   2.200  -0.205  0.00  0.00    +0.005 A 
ATOM     13  C   UNL     1      -4.851   3.163   0.697  0.00  0.00    -0.050 A 
ATOM     14  C   UNL     1      -4.186   4.372   0.770  0.00  0.00    +0.005 A 
ATOM     15  C   UNL     1      -3.105   4.618  -0.056  0.00  0.00    +0.027 A 
ATOM     16  C   UNL     1      -6.027   2.893   1.601  0.00  0.00    +0.044 C 
ENDBRANCH   7  10
ENDBRANCH   6   7
ENDBRANCH   4   6
ENDBRANCH   1   2
BRANCH   1  17
ATOM     17  N   UNL     1      -0.723  -0.680  -0.878  0.00  0.00    -0.281 N 
ATOM     18  C   UNL     1      -0.637  -1.392   0.264  0.00  0.00    +0.248 C 
ATOM     19  O   UNL     1       0.449  -1.754   0.674  0.00  0.00    -0.270 OA
BRANCH  18  20
ATOM     20  C   UNL     1      -1.863  -1.733   1.016  0.00  0.00    +0.037 A 
ATOM     21  C   UNL     1      -3.116  -1.386   0.509  0.00  0.00    +0.015 A 
ATOM     22  C   UNL     1      -4.256  -1.707   1.217  0.00  0.00    +0.033 A 
ATOM     23  C   UNL     1      -4.159  -2.371   2.426  0.00  0.00    +0.126 A 
ATOM     24  C   UNL     1      -2.920  -2.718   2.935  0.00  0.00    +0.033 A 
ATOM     25  C   UNL     1      -1.772  -2.408   2.235  0.00  0.00    +0.015 A 
BRANCH  23  26
ATOM     26  N   UNL     1      -5.386  -2.712   3.180  0.00  0.00    +0.056 N 
ATOM     27  O   UNL     1      -6.470  -2.410   2.739  0.00  0.00    -0.126 OA
ATOM     28  O   UNL     1      -5.304  -3.293   4.238  0.00  0.00    -0.126 OA
ENDBRANCH  23  26
ENDBRANCH  18  20
BRANCH  17  29
ATOM     29  C   UNL     1      -2.025  -0.199  -1.345  0.00  0.00    +0.030 C 
ATOM     30  C   UNL     1      -1.826   0.731  -2.542  0.00  0.00    +0.031 C 
ATOM     31  C   UNL     1      -2.889  -1.391  -1.762  0.00  0.00    +0.031 C 
ATOM     32  C   UNL     1      -2.721   0.565  -0.216  0.00  0.00    +0.031 C 
ENDBRANCH  17  29
ENDBRANCH   1  17
BRANCH   1  33
ATOM     33  C   UNL     1       0.366  -1.015  -3.042  0.00  0.00    +0.018 C 
BRANCH  33  35
ATOM     34  C   UNL     1       2.741  -1.510  -3.641  0.00  0.00    +0.004 C 
ATOM     35  C   UNL     1       1.554  -0.580  -3.902  0.00  0.00    +0.002 C 
ENDBRANCH  33  35
BRANCH  33  36
ATOM     36  C   UNL     1       0.360  -2.539  -2.915  0.00  0.00    +0.002 C 
ATOM     37  C   UNL     1      -1.008  -3.003  -2.409  0.00  0.00    +0.004 C 
ENDBRANCH  33  36
ENDBRANCH   1  33
TORSDOF 11
