REMARK  Name = ZINC09449973
REMARK  3 active torsions:
REMARK  status: ('A' for Active; 'I' for Inactive)
REMARK    1  A    between atoms: C_1  and  C_2
REMARK    2  A    between atoms: C_23  and  C_30
REMARK    3  A    between atoms: C_30  and  C_32
REMARK                            x       y       z     vdW  Elec       q    Type
REMARK                         _______ _______ _______ _____ _____    ______ ____
ROOT
ATOM      1  C   UNL     1       8.709   0.881  -2.700  0.00  0.00    +0.044 C 
ATOM      2  C   UNL     1       7.310   1.387  -2.942  0.00  0.00    -0.049 A 
ATOM      3  C   UNL     1       6.560   1.882  -1.890  0.00  0.00    +0.008 A 
ATOM      4  C   UNL     1       5.282   2.345  -2.114  0.00  0.00    -0.025 A 
ATOM      5  C   UNL     1       4.731   2.320  -3.390  0.00  0.00    +0.054 A 
ATOM      6  C   UNL     1       5.493   1.819  -4.444  0.00  0.00    +0.063 A 
ATOM      7  C   UNL     1       6.774   1.357  -4.216  0.00  0.00    +0.025 A 
ATOM      8 CL   UNL     1       4.829   1.776  -6.048  0.00  0.00    -0.082 Cl
ATOM      9  N   UNL     1       3.434   2.837  -3.366  0.00  0.00    -0.285 N 
ATOM     10  C   UNL     1       3.063   3.221  -2.130  0.00  0.00    +0.212 C 
ATOM     11  O   UNL     1       1.996   3.703  -1.813  0.00  0.00    -0.277 OA
ATOM     12  C   UNL     1       4.227   2.935  -1.216  0.00  0.00    +0.060 C 
ATOM     13  C   UNL     1       3.835   1.968  -0.105  0.00  0.00    +0.085 C 
ATOM     14  C   UNL     1       2.385   1.579  -0.186  0.00  0.00    -0.011 A 
ATOM     15  C   UNL     1       1.210   2.296  -0.163  0.00  0.00    +0.006 A 
ATOM     16  C   UNL     1      -0.004   1.639  -0.261  0.00  0.00    +0.000 A 
ATOM     17  C   UNL     1      -0.033   0.262  -0.381  0.00  0.00    +0.002 A 
ATOM     18  C   UNL     1       1.142  -0.461  -0.404  0.00  0.00    +0.023 A 
ATOM     19  C   UNL     1       2.369   0.193  -0.307  0.00  0.00    +0.038 A 
ATOM     20  N   UNL     1       3.672  -0.307  -0.308  0.00  0.00    -0.285 N 
ATOM     21  C   UNL     1       4.592   0.671  -0.195  0.00  0.00    +0.228 C 
ATOM     22  O   UNL     1       5.796   0.532  -0.170  0.00  0.00    -0.275 OA
ATOM     23  C   UNL     1       4.140   2.697   1.214  0.00  0.00    +0.066 C 
ATOM     24  C   UNL     1       5.165   3.776   0.786  0.00  0.00    -0.055 C 
ATOM     25  C   UNL     1       3.567   5.088  -0.346  0.00  0.00    -0.076 C 
ATOM     26  C   UNL     1       3.945   5.900   0.909  0.00  0.00    -0.020 C 
ATOM     27  C   UNL     1       4.972   5.029   1.658  0.00  0.00    -0.016 C 
ATOM     28  H   UNL     1       2.867   2.912  -4.149  0.00  0.00    +0.155 HD
ATOM     29  H   UNL     1       3.891  -1.249  -0.382  0.00  0.00    +0.155 HD
ATOM     30  N   UNL     1       4.691   4.152  -0.533  0.00  0.00    +0.395 N 
ATOM     31  H   UNL     1       5.440   4.598  -1.075  0.00  0.00    -0.079 HD
ENDROOT
BRANCH  23  32
ATOM     32  C   UNL     1       2.894   3.337   1.771  0.00  0.00    +0.172 C 
ATOM     33  O   UNL     1       2.598   4.470   1.450  0.00  0.00    -0.291 OA
BRANCH  32  34
ATOM     34  C   UNL     1       2.071   2.618   2.665  0.00  0.00    +0.055 A 
ATOM     35  C   UNL     1       0.892   3.018   3.286  0.00  0.00    +0.019 A 
ATOM     36  C   UNL     1       0.287   2.111   4.116  0.00  0.00    +0.008 A 
ATOM     37  C   UNL     1       0.856   0.887   4.291  0.00  0.00    +0.046 A 
ATOM     38  S   UNL     1       2.267   0.957   3.287  0.00  0.00    -0.094 S 
ENDBRANCH  32  34
ENDBRANCH  23  32
TORSDOF 2
