REMARK  Name = ZINC59398506
REMARK  12 active torsions:
REMARK  status: ('A' for Active; 'I' for Inactive)
REMARK    1  A    between atoms: C_1  and  C_2
REMARK    2  A    between atoms: C_2  and  C_3
REMARK    3  A    between atoms: C_3  and  C_4
REMARK    4  A    between atoms: C_5  and  C_34
REMARK    5  A    between atoms: C_6  and  C_22
REMARK    6  A    between atoms: C_12  and  C_13
REMARK    7  A    between atoms: C_16  and  C_18
REMARK    8  A    between atoms: C_31  and  O_32
REMARK    9  A    between atoms: O_32  and  C_33
REMARK   10  A    between atoms: C_34  and  O_36
REMARK   11  A    between atoms: O_36  and  C_37
REMARK   12  A    between atoms: C_37  and  C_38
REMARK                            x       y       z     vdW  Elec       q    Type
REMARK                         _______ _______ _______ _____ _____    ______ ____
ROOT
ATOM      1  C   UNL     1       0.497  -2.107  -1.608  0.00  0.00    +0.056 C 
ATOM      2  C   UNL     1      -0.413  -2.996  -2.108  0.00  0.00    +0.085 C 
ATOM      3  C   UNL     1      -0.188  -4.468  -1.846  0.00  0.00    +0.166 C 
ATOM      4  N   UNL     1       1.019  -4.841  -1.056  0.00  0.00    -0.275 N 
ATOM      5  C   UNL     1       1.388  -6.085  -0.723  0.00  0.00    +0.268 A 
ATOM      6  O   UNL     1       0.724  -7.047  -1.063  0.00  0.00    -0.266 OA
ATOM      7  C   UNL     1       2.614  -6.254   0.062  0.00  0.00    +0.084 A 
ATOM      8  C   UNL     1       3.197  -7.398   0.522  0.00  0.00    +0.066 C 
ATOM      9  S   UNL     1       3.136  -4.557   0.253  0.00  0.00    -0.046 S 
ATOM     10  C   UNL     1       1.804  -3.788  -0.648  0.00  0.00    +0.178 A 
ATOM     11  N   UNL     1       1.548  -2.533  -0.918  0.00  0.00    -0.227 NA
ENDROOT
BRANCH   3  12
ATOM     12  C   UNL     1      -1.398  -5.000  -1.123  0.00  0.00    +0.029 A 
ATOM     13  C   UNL     1      -2.338  -5.790  -1.804  0.00  0.00    -0.009 A 
ATOM     14  C   UNL     1      -2.177  -6.103  -3.165  0.00  0.00    +0.009 A 
ATOM     15  C   UNL     1      -3.107  -6.872  -3.794  0.00  0.00    +0.001 A 
ATOM     16  C   UNL     1      -4.220  -7.356  -3.109  0.00  0.00    +0.001 A 
ATOM     17  C   UNL     1      -4.409  -7.073  -1.791  0.00  0.00    +0.008 A 
ATOM     18  C   UNL     1      -3.469  -6.283  -1.107  0.00  0.00    -0.017 A 
ATOM     19  C   UNL     1      -3.632  -5.972   0.254  0.00  0.00    +0.012 A 
ATOM     20  C   UNL     1      -2.704  -5.204   0.886  0.00  0.00    +0.046 A 
ATOM     21  C   UNL     1      -1.584  -4.721   0.202  0.00  0.00    +0.126 A 
BRANCH  21  22
ATOM     22  O   UNL     1      -0.671  -3.961   0.861  0.00  0.00    -0.495 OA
ATOM     23  C   UNL     1      -0.920  -3.704   2.245  0.00  0.00    +0.277 C 
ENDBRANCH  21  22
ENDBRANCH   3  12
BRANCH   8  24
ATOM     24  C   UNL     1       2.522  -8.634   0.402  0.00  0.00    +0.129 A 
ATOM     25  C   UNL     1       2.949  -9.847   0.904  0.00  0.00    +0.049 A 
ATOM     26  C   UNL     1       1.973 -10.791   0.551  0.00  0.00    +0.045 A 
ATOM     27  C   UNL     1       1.012 -10.135  -0.135  0.00  0.00    +0.103 A 
ATOM     28  O   UNL     1       1.341  -8.838  -0.219  0.00  0.00    -0.461 OA
ATOM     29  C   UNL     1      -0.234 -10.759  -0.710  0.00  0.00    +0.086 C 
ENDBRANCH   8  24
BRANCH   2  30
ATOM     30  C   UNL     1      -1.525  -2.555  -2.844  0.00  0.00    +0.339 C 
ATOM     31  O   UNL     1      -1.557  -2.712  -4.051  0.00  0.00    -0.245 OA
BRANCH  30  32
ATOM     32  O   UNL     1      -2.558  -1.958  -2.212  0.00  0.00    -0.462 OA
BRANCH  32  33
ATOM     33  C   UNL     1      -3.656  -1.534  -3.022  0.00  0.00    +0.229 C 
ATOM     34  C   UNL     1      -4.723  -0.885  -2.138  0.00  0.00    +0.048 C 
ENDBRANCH  32  33
ENDBRANCH  30  32
ENDBRANCH   2  30
BRANCH   1  35
ATOM     35  C   UNL     1       0.309  -0.631  -1.847  0.00  0.00    +0.056 C 
BRANCH  35  37
ATOM     36  C   UNL     1      -0.661   1.478  -0.923  0.00  0.00    +0.004 C 
ATOM     37  C   UNL     1      -0.470  -0.021  -0.680  0.00  0.00    +0.003 C 
ENDBRANCH  35  37
ENDBRANCH   1  35
TORSDOF 8
