REMARK  Name = ZINC63541403
REMARK  5 active torsions:
REMARK  status: ('A' for Active; 'I' for Inactive)
REMARK    1  A    between atoms: C_7  and  C_10
REMARK    2  A    between atoms: C_10  and  C_11
REMARK    3  A    between atoms: C_11  and  N_12
REMARK    4  A    between atoms: C_13  and  C_15
REMARK    5  A    between atoms: C_26  and  C_28
REMARK                            x       y       z     vdW  Elec       q    Type
REMARK                         _______ _______ _______ _____ _____    ______ ____
ROOT
ATOM      1  C   UNL     1      -1.732  -6.533  -2.622  0.00  0.00    +0.038 A 
ATOM      2  C   UNL     1      -2.251  -7.027  -1.422  0.00  0.00    +0.015 A 
ATOM      3  C   UNL     1      -3.077  -8.121  -1.408  0.00  0.00    +0.025 A 
ATOM      4  C   UNL     1      -3.438  -8.775  -2.598  0.00  0.00    +0.046 A 
ATOM      5  C   UNL     1      -2.962  -8.216  -3.799  0.00  0.00    +0.033 A 
ATOM      6  C   UNL     1      -2.107  -7.148  -3.824  0.00  0.00    +0.029 A 
ATOM      7  S   UNL     1      -3.791  -9.133  -5.082  0.00  0.00    -0.077 S 
ATOM      8  C   UNL     1      -4.948 -10.052  -3.986  0.00  0.00    +0.257 C 
ATOM      9  N   UNL     1      -4.175  -9.949  -2.715  0.00  0.00    -0.293 N 
ATOM     10  C   UNL     1      -4.469 -11.251  -2.085  0.00  0.00    +0.163 C 
ATOM     11  C   UNL     1      -4.724 -12.177  -3.256  0.00  0.00    +0.063 C 
ATOM     12  N   UNL     1      -4.968 -11.471  -4.332  0.00  0.00    -0.253 NA
ENDROOT
BRANCH  11  13
ATOM     13  C   UNL     1      -4.712 -13.651  -3.194  0.00  0.00    -0.002 A 
ATOM     14  C   UNL     1      -4.457 -14.301  -1.984  0.00  0.00    +0.012 A 
ATOM     15  C   UNL     1      -4.447 -15.678  -1.933  0.00  0.00    +0.039 A 
ATOM     16  C   UNL     1      -4.690 -16.419  -3.079  0.00  0.00    +0.123 A 
ATOM     17  C   UNL     1      -4.943 -15.780  -4.283  0.00  0.00    +0.039 A 
ATOM     18  C   UNL     1      -4.962 -14.403  -4.345  0.00  0.00    +0.012 A 
ATOM     19  F   UNL     1      -4.679 -17.769  -3.023  0.00  0.00    -0.205 F 
ENDBRANCH  11  13
BRANCH   1  21
ATOM     20  N   UNL     1      -0.458  -4.798  -1.460  0.00  0.00    -0.311 N 
ATOM     21  C   UNL     1      -0.811  -5.380  -2.623  0.00  0.00    +0.244 C 
ATOM     22  O   UNL     1      -0.369  -4.956  -3.674  0.00  0.00    -0.270 OA
ATOM     23  H   UNL     1      -0.810  -5.136  -0.622  0.00  0.00    +0.149 HD
BRANCH  20  24
ATOM     24  C   UNL     1       0.457  -3.653  -1.462  0.00  0.00    +0.109 C 
BRANCH  24  25
ATOM     25  C   UNL     1       0.691  -3.186  -0.024  0.00  0.00    +0.052 C 
BRANCH  25  32
ATOM     26  C   UNL     1      -0.016   1.348   0.009  0.00  0.00    +0.001 A 
ATOM     27  C   UNL     1       1.166   2.101   0.002  0.00  0.00    +0.002 A 
ATOM     28  C   UNL     1       2.391   1.535  -0.013  0.00  0.00    +0.026 A 
ATOM     29  C   UNL     1       2.529   0.120  -0.022  0.00  0.00    +0.043 A 
ATOM     30  N   UNL     1       3.587  -0.654  -0.037  0.00  0.00    -0.380 N 
ATOM     31  C   UNL     1       3.143  -2.053  -0.041  0.00  0.00    +0.144 C 
ATOM     32  C   UNL     1       1.631  -2.008  -0.025  0.00  0.00    -0.040 C 
ATOM     33  C   UNL     1       1.295  -0.698  -0.014  0.00  0.00    -0.001 A 
ATOM     34  C   UNL     1       0.002  -0.004   0.002  0.00  0.00    +0.010 A 
ATOM     35  H   UNL     1       4.509  -0.353  -0.045  0.00  0.00    +0.160 HD
ENDBRANCH  25  32
ENDBRANCH  24  25
ENDBRANCH  20  24
ENDBRANCH   1  21
TORSDOF 5
