REMARK  Name = ZINC25538378
REMARK  10 active torsions:
REMARK  status: ('A' for Active; 'I' for Inactive)
REMARK    1  A    between atoms: C_1  and  N_2
REMARK    2  A    between atoms: C_3  and  C_30
REMARK    3  A    between atoms: C_6  and  S_7
REMARK    4  A    between atoms: S_7  and  C_8
REMARK    5  A    between atoms: C_8  and  C_9
REMARK    6  A    between atoms: C_10  and  C_26
REMARK    7  A    between atoms: C_11  and  C_20
REMARK    8  A    between atoms: N_16  and  C_17
REMARK    9  A    between atoms: C_26  and  O_28
REMARK   10  A    between atoms: O_28  and  C_29
REMARK                            x       y       z     vdW  Elec       q    Type
REMARK                         _______ _______ _______ _____ _____    ______ ____
ROOT
ATOM      1  C   UNL     1      -1.433  -0.256   1.063  0.00  0.00    +0.037 C 
ATOM      2  C   UNL     1      -2.104  -0.708  -0.018  0.00  0.00    +0.079 C 
ATOM      3  C   UNL     1      -3.429  -1.405   0.214  0.00  0.00    +0.144 C 
ATOM      4  N   UNL     1      -3.879  -1.533   1.610  0.00  0.00    -0.288 N 
ATOM      5  C   UNL     1      -3.097  -1.030   2.585  0.00  0.00    +0.307 C 
ATOM      6  O   UNL     1      -3.460  -1.131   3.741  0.00  0.00    -0.252 OA
ATOM      7  N   UNL     1      -1.931  -0.427   2.323  0.00  0.00    -0.255 N 
ATOM      8  H   UNL     1      -4.834  -2.031   1.837  0.00  0.00    +0.151 HD
ENDROOT
BRANCH   3   9
ATOM      9  C   UNL     1      -4.489  -0.654  -0.549  0.00  0.00    -0.023 A 
ATOM     10  C   UNL     1      -5.030   0.504  -0.023  0.00  0.00    +0.006 A 
ATOM     11  C   UNL     1      -6.000   1.195  -0.725  0.00  0.00    +0.000 A 
ATOM     12  C   UNL     1      -6.435   0.723  -1.949  0.00  0.00    +0.000 A 
ATOM     13  C   UNL     1      -5.898  -0.438  -2.473  0.00  0.00    +0.000 A 
ATOM     14  C   UNL     1      -4.925  -1.127  -1.773  0.00  0.00    +0.006 A 
ENDBRANCH   3   9
BRANCH   7  15
ATOM     15  C   UNL     1      -1.147   0.084   3.451  0.00  0.00    +0.083 C 
ATOM     16  C   UNL     1      -1.888   0.895   4.516  0.00  0.00    +0.025 C 
ATOM     17  C   UNL     1      -0.940   1.597   3.540  0.00  0.00    +0.025 C 
ENDBRANCH   7  15
BRANCH   2  18
ATOM     18  C   UNL     1      -1.587  -0.536  -1.324  0.00  0.00    +0.339 C 
ATOM     19  O   UNL     1      -0.460  -0.105  -1.480  0.00  0.00    -0.245 OA
BRANCH  18  20
ATOM     20  O   UNL     1      -2.345  -0.849  -2.396  0.00  0.00    -0.465 OA
ATOM     21  C   UNL     1      -1.759  -0.650  -3.684  0.00  0.00    +0.280 C 
ENDBRANCH  18  20
ENDBRANCH   2  18
BRANCH   1  22
ATOM     22  C   UNL     1      -0.111   0.443   0.876  0.00  0.00    +0.129 C 
BRANCH  22  23
ATOM     23  S   UNL     1       1.237  -0.714   1.220  0.00  0.00    -0.080 S 
BRANCH  23  29
ATOM     24  C   UNL     1       4.479  -1.318   1.426  0.00  0.00    +0.153 C 
ATOM     25  N   UNL     1       3.938  -0.011   1.046  0.00  0.00    -0.305 N 
ATOM     26  C   UNL     1       4.650   1.124   0.729  0.00  0.00    +0.165 A 
ATOM     27  N   UNL     1       3.775   2.063   0.452  0.00  0.00    -0.128 NA
ATOM     28  N   UNL     1       2.582   1.599   0.567  0.00  0.00    -0.122 NA
ATOM     29  C   UNL     1       2.623   0.336   0.934  0.00  0.00    +0.192 A 
BRANCH  26  30
ATOM     30  C   UNL     1       6.121   1.260   0.705  0.00  0.00    +0.022 A 
ATOM     31  C   UNL     1       6.727   2.522   0.707  0.00  0.00    +0.031 A 
ATOM     32  C   UNL     1       8.104   2.602   0.688  0.00  0.00    +0.111 A 
ATOM     33  N   UNL     1       8.846   1.511   0.659  0.00  0.00    -0.263 NA
ATOM     34  C   UNL     1       8.315   0.303   0.652  0.00  0.00    +0.111 A 
ATOM     35  C   UNL     1       6.947   0.130   0.674  0.00  0.00    +0.031 A 
ENDBRANCH  26  30
ENDBRANCH  23  29
ENDBRANCH  22  23
ENDBRANCH   1  22
TORSDOF 8
