REMARK  Name = ZINC00665541
REMARK  11 active torsions:
REMARK  status: ('A' for Active; 'I' for Inactive)
REMARK    1  A    between atoms: C_1  and  C_2
REMARK    2  A    between atoms: C_2  and  O_3
REMARK    3  A    between atoms: O_3  and  C_4
REMARK    4  A    between atoms: C_7  and  C_10
REMARK    5  A    between atoms: C_12  and  C_30
REMARK    6  A    between atoms: C_13  and  C_29
REMARK    7  A    between atoms: C_20  and  C_21
REMARK    8  A    between atoms: C_24  and  O_27
REMARK    9  A    between atoms: C_30  and  O_32
REMARK   10  A    between atoms: O_32  and  C_33
REMARK   11  A    between atoms: C_33  and  C_34
REMARK                            x       y       z     vdW  Elec       q    Type
REMARK                         _______ _______ _______ _____ _____    ______ ____
ROOT
ATOM      1  C   UNL     1       3.018   0.673   0.002  0.00  0.00    +0.162 C 
ATOM      2  C   UNL     1       3.454   0.741   1.447  0.00  0.00    +0.085 C 
ATOM      3  C   UNL     1       4.712   1.200   1.718  0.00  0.00    +0.053 C 
ATOM      4  N   UNL     1       5.521   1.573   0.735  0.00  0.00    -0.228 NA
ATOM      5  C   UNL     1       5.214   1.541  -0.538  0.00  0.00    +0.178 A 
ATOM      6  N   UNL     1       4.001   1.114  -1.027  0.00  0.00    -0.275 N 
ATOM      7  C   UNL     1       3.802   1.127  -2.351  0.00  0.00    +0.268 A 
ATOM      8  O   UNL     1       2.745   0.758  -2.830  0.00  0.00    -0.266 OA
ATOM      9  C   UNL     1       4.898   1.599  -3.209  0.00  0.00    +0.081 A 
ATOM     10  C   UNL     1       4.949   1.709  -4.562  0.00  0.00    +0.028 C 
ATOM     11  S   UNL     1       6.144   1.989  -1.991  0.00  0.00    -0.046 S 
ATOM     12  C   UNL     1       5.185   1.284   3.147  0.00  0.00    +0.066 C 
ENDROOT
BRANCH   1  16
ATOM     13  C   UNL     1      -0.496   3.067  -0.427  0.00  0.00    +0.121 A 
ATOM     14  C   UNL     1       0.755   3.667  -0.402  0.00  0.00    +0.046 A 
ATOM     15  C   UNL     1       1.889   2.890  -0.264  0.00  0.00    +0.009 A 
ATOM     16  C   UNL     1       1.779   1.517  -0.149  0.00  0.00    -0.020 A 
ATOM     17  C   UNL     1       0.533   0.917  -0.174  0.00  0.00    +0.009 A 
ATOM     18  C   UNL     1      -0.604   1.689  -0.313  0.00  0.00    +0.046 A 
BRANCH  13  19
ATOM     19  O   UNL     1      -1.613   3.828  -0.569  0.00  0.00    -0.492 OA
BRANCH  19  21
ATOM     20  C   UNL     1      -2.786   5.924  -0.832  0.00  0.00    +0.048 C 
ATOM     21  C   UNL     1      -1.426   5.240  -0.680  0.00  0.00    +0.225 C 
ENDBRANCH  19  21
ENDBRANCH  13  19
ENDBRANCH   1  16
BRANCH  10  22
ATOM     22  C   UNL     1       6.094   2.368  -5.202  0.00  0.00    -0.024 A 
ATOM     23  C   UNL     1       6.953   3.175  -4.446  0.00  0.00    +0.011 A 
ATOM     24  C   UNL     1       8.028   3.787  -5.050  0.00  0.00    +0.046 A 
ATOM     25  C   UNL     1       8.255   3.614  -6.410  0.00  0.00    +0.117 A 
ATOM     26  C   UNL     1       7.403   2.818  -7.167  0.00  0.00    +0.046 A 
ATOM     27  C   UNL     1       6.328   2.197  -6.572  0.00  0.00    +0.011 A 
BRANCH  25  28
ATOM     28  O   UNL     1       9.314   4.223  -7.002  0.00  0.00    -0.507 OA
ATOM     29  H   UNL     1       9.117   5.105  -7.348  0.00  0.00    +0.292 HD
ENDBRANCH  25  28
ENDBRANCH  10  22
BRANCH   2  30
ATOM     30  C   UNL     1       2.590   0.346   2.482  0.00  0.00    +0.339 C 
ATOM     31  O   UNL     1       2.917   0.509   3.644  0.00  0.00    -0.245 OA
BRANCH  30  32
ATOM     32  O   UNL     1       1.397  -0.216   2.188  0.00  0.00    -0.462 OA
BRANCH  32  33
ATOM     33  C   UNL     1       0.570  -0.595   3.290  0.00  0.00    +0.229 C 
ATOM     34  C   UNL     1      -0.730  -1.208   2.765  0.00  0.00    +0.048 C 
ENDBRANCH  32  33
ENDBRANCH  30  32
ENDBRANCH   2  30
TORSDOF 8
