REMARK  Name = ZINC34677950
REMARK  11 active torsions:
REMARK  status: ('A' for Active; 'I' for Inactive)
REMARK    1  A    between atoms: C_1  and  C_2
REMARK    2  A    between atoms: C_2  and  C_3
REMARK    3  A    between atoms: C_2  and  C_4
REMARK    4  A    between atoms: C_2  and  C_5
REMARK    5  A    between atoms: C_8  and  C_11
REMARK    6  A    between atoms: C_11  and  N_12
REMARK    7  A    between atoms: N_15  and  C_18
REMARK    8  A    between atoms: C_18  and  C_19
REMARK    9  A    between atoms: C_21  and  C_24
REMARK   10  A    between atoms: N_26  and  C_27
REMARK   11  A    between atoms: C_27  and  C_28
REMARK                            x       y       z     vdW  Elec       q    Type
REMARK                         _______ _______ _______ _____ _____    ______ ____
ROOT
ATOM      1  N   UNL     1       2.520  -0.895  -5.837  0.00  0.00    -0.302 NA
ATOM      2  C   UNL     1       1.110  -0.828  -6.247  0.00  0.00    +0.066 C 
ATOM      3  C   UNL     1       0.948   0.237  -7.333  0.00  0.00    -0.063 C 
ATOM      4  N   UNL     1       1.795  -0.105  -8.484  0.00  0.00    +0.387 N 
ATOM      5  C   UNL     1       3.202  -0.144  -8.064  0.00  0.00    -0.063 C 
ATOM      6  C   UNL     1       3.382  -1.212  -6.983  0.00  0.00    +0.066 C 
ATOM      7  H   UNL     1       1.526  -1.009  -8.843  0.00  0.00    -0.081 HD
ENDROOT
BRANCH   1   8
ATOM      8  C   UNL     1       2.707  -1.868  -4.752  0.00  0.00    +0.119 C 
BRANCH   8  12
ATOM      9  C   UNL     1       0.707  -0.490  -1.238  0.00  0.00    -0.042 A 
ATOM     10  C   UNL     1       0.036  -1.284  -2.148  0.00  0.00    +0.004 A 
ATOM     11  C   UNL     1       0.683  -1.730  -3.286  0.00  0.00    +0.005 A 
ATOM     12  C   UNL     1       2.001  -1.381  -3.513  0.00  0.00    -0.033 A 
ATOM     13  C   UNL     1       2.672  -0.586  -2.603  0.00  0.00    +0.005 A 
ATOM     14  C   UNL     1       2.024  -0.137  -1.467  0.00  0.00    +0.004 A 
BRANCH   9  16
ATOM     15  C   UNL     1      -0.019   1.526   0.010  0.00  0.00    +0.015 C 
ATOM     16  C   UNL     1       0.002  -0.004   0.002  0.00  0.00    -0.013 C 
ATOM     17  C   UNL     1       0.742  -0.511   1.242  0.00  0.00    +0.015 C 
ATOM     18  C   UNL     1      -1.433  -0.534   0.013  0.00  0.00    +0.015 C 
ENDBRANCH   9  16
ENDBRANCH   8  12
ENDBRANCH   1   8
BRANCH   4  19
ATOM     19  C   UNL     1       1.625   0.908  -9.534  0.00  0.00    +0.019 C 
BRANCH  19  20
ATOM     20  C   UNL     1       2.397   0.494 -10.761  0.00  0.00    +0.179 A 
ATOM     21  N   UNL     1       1.931  -0.225 -11.736  0.00  0.00    -0.210 NA
ATOM     22  C   UNL     1       2.916  -0.390 -12.660  0.00  0.00    +0.163 A 
ATOM     23  C   UNL     1       4.013   0.268 -12.197  0.00  0.00    +0.230 A 
ATOM     24  O   UNL     1       3.673   0.816 -11.019  0.00  0.00    -0.449 OA
BRANCH  22  25
ATOM     25  C   UNL     1       2.814  -1.141 -13.925  0.00  0.00    +0.266 C 
ATOM     26  O   UNL     1       3.774  -1.213 -14.668  0.00  0.00    -0.268 OA
ATOM     27  N   UNL     1       1.657  -1.747 -14.257  0.00  0.00    -0.303 N 
ATOM     28  H   UNL     1       0.892  -1.690 -13.664  0.00  0.00    +0.150 HD
BRANCH  27  29
ATOM     29  C   UNL     1       1.556  -2.494 -15.514  0.00  0.00    +0.179 C 
BRANCH  29  30
ATOM     30  C   UNL     1       0.170  -3.070 -15.646  0.00  0.00    +0.122 A 
ATOM     31  C   UNL     1      -0.880  -2.466 -16.231  0.00  0.00    +0.046 A 
ATOM     32  C   UNL     1      -1.973  -3.358 -16.131  0.00  0.00    +0.041 A 
ATOM     33  C   UNL     1      -1.525  -4.453 -15.490  0.00  0.00    +0.195 A 
ATOM     34  O   UNL     1      -0.225  -4.275 -15.204  0.00  0.00    -0.466 OA
ENDBRANCH  29  30
ENDBRANCH  27  29
ENDBRANCH  22  25
ENDBRANCH  19  20
ENDBRANCH   4  19
TORSDOF 8
