REMARK  Name = ZINC26895851
REMARK  8 active torsions:
REMARK  status: ('A' for Active; 'I' for Inactive)
REMARK    1  A    between atoms: C_1  and  C_2
REMARK    2  A    between atoms: C_2  and  C_4
REMARK    3  A    between atoms: C_2  and  N_12
REMARK    4  A    between atoms: C_4  and  C_5
REMARK    5  A    between atoms: C_5  and  C_6
REMARK    6  A    between atoms: N_12  and  C_13
REMARK    7  A    between atoms: C_32  and  C_34
REMARK    8  A    between atoms: C_32  and  C_35
REMARK                            x       y       z     vdW  Elec       q    Type
REMARK                         _______ _______ _______ _____ _____    ______ ____
ROOT
ATOM      1  C   UNL     1       0.176   5.466  -1.011  0.00  0.00    +0.188 C 
ATOM      2  C   UNL     1       0.528   6.324  -2.188  0.00  0.00    +0.050 A 
ATOM      3  C   UNL     1      -0.275   6.497  -3.280  0.00  0.00    +0.055 A 
ATOM      4  C   UNL     1       0.238   7.366  -4.344  0.00  0.00    +0.031 A 
ATOM      5  C   UNL     1      -0.372   7.710  -5.572  0.00  0.00    -0.025 A 
ATOM      6  C   UNL     1       0.266   8.543  -6.435  0.00  0.00    +0.020 A 
ATOM      7  C   UNL     1       1.528   9.055  -6.109  0.00  0.00    +0.105 A 
ATOM      8  N   UNL     1       2.106   8.734  -4.963  0.00  0.00    -0.337 N 
ATOM      9  C   UNL     1       1.515   7.933  -4.103  0.00  0.00    +0.089 A 
ATOM     10  S   UNL     1       1.967   7.295  -2.506  0.00  0.00    -0.070 S 
ATOM     11  N   UNL     1       2.178   9.905  -6.996  0.00  0.00    -0.312 N 
ATOM     12  C   UNL     1       3.450   9.323  -7.447  0.00  0.00    +0.134 C 
ATOM     13  C   UNL     1       4.102  10.263  -8.465  0.00  0.00    +0.178 C 
ATOM     14  O   UNL     1       4.277  11.552  -7.872  0.00  0.00    -0.377 OA
ATOM     15  C   UNL     1       3.058  12.149  -7.422  0.00  0.00    +0.178 C 
ATOM     16  C   UNL     1       2.395  11.229  -6.393  0.00  0.00    +0.134 C 
ATOM     17  C   UNL     1      -0.356   8.941  -7.749  0.00  0.00    +0.199 C 
ATOM     18  O   UNL     1      -1.432   8.062  -8.074  0.00  0.00    -0.369 OA
ATOM     19  C   UNL     1      -2.383   7.919  -7.012  0.00  0.00    +0.068 C 
ATOM     20  C   UNL     1      -1.726   7.128  -5.879  0.00  0.00    +0.070 C 
ATOM     21  C   UNL     1      -2.797   9.301  -6.502  0.00  0.00    +0.041 C 
ATOM     22  C   UNL     1      -3.614   7.166  -7.520  0.00  0.00    +0.041 C 
ATOM     23  N   UNL     1      -1.508   5.851  -3.308  0.00  0.00    -0.306 N 
ATOM     24  C   UNL     1      -1.957   5.291  -2.227  0.00  0.00    +0.157 C 
ATOM     25  N   UNL     1      -1.297   5.338  -1.024  0.00  0.00    -0.359 N 
ATOM     26  H   UNL     1      -1.863   5.280  -0.083  0.00  0.00    +0.162 HD
ATOM     27  H   UNL     1       3.099   9.139  -4.716  0.00  0.00    +0.168 HD
ATOM     28  H   UNL     1      -2.091   5.819  -4.240  0.00  0.00    +0.153 HD
ENDROOT
BRANCH   1  29
ATOM     29  N   UNL     1       0.800   4.143  -1.144  0.00  0.00    -0.290 NA
ATOM     30  H   UNL     1       1.592   4.202  -1.906  0.00  0.00    +0.124 HD
BRANCH  29  32
ATOM     31  C   UNL     1       2.789   4.282   0.278  0.00  0.00    +0.024 C 
ATOM     32  C   UNL     1       1.380   3.704   0.132  0.00  0.00    +0.053 C 
BRANCH  32  33
ATOM     33  C   UNL     1       1.450   2.176   0.161  0.00  0.00    +0.023 C 
BRANCH  33  34
ATOM     34  C   UNL     1       0.032   1.600   0.141  0.00  0.00    +0.036 C 
BRANCH  34  35
ATOM     35  C   UNL     1       0.101   0.095   0.170  0.00  0.00    -0.047 A 
ATOM     36  C   UNL     1       0.153  -0.617  -1.014  0.00  0.00    +0.003 A 
ATOM     37  C   UNL     1       0.221  -1.998  -0.988  0.00  0.00    +0.000 A 
ATOM     38  C   UNL     1       0.226  -2.667   0.222  0.00  0.00    +0.000 A 
ATOM     39  C   UNL     1       0.169  -1.954   1.406  0.00  0.00    +0.000 A 
ATOM     40  C   UNL     1       0.107  -0.574   1.379  0.00  0.00    +0.003 A 
ENDBRANCH  34  35
ENDBRANCH  33  34
ENDBRANCH  32  33
ENDBRANCH  29  32
ENDBRANCH   1  29
TORSDOF 5
