REMARK  Name = ZINC33619089
REMARK  5 active torsions:
REMARK  status: ('A' for Active; 'I' for Inactive)
REMARK    1  A    between atoms: C_4  and  C_7
REMARK    2  A    between atoms: C_7  and  C_8
REMARK    3  A    between atoms: C_8  and  C_29
REMARK    4  A    between atoms: C_13  and  C_16
REMARK    5  A    between atoms: C_19  and  C_22
REMARK                            x       y       z     vdW  Elec       q    Type
REMARK                         _______ _______ _______ _____ _____    ______ ____
ROOT
ATOM      1  C   UNL     1       4.171  -0.963   1.399  0.00  0.00    +0.138 C 
ATOM      2  C   UNL     1       5.476  -1.786   1.407  0.00  0.00    +0.122 C 
ATOM      3  C   UNL     1       5.335  -2.744   2.622  0.00  0.00    +0.113 C 
ATOM      4  C   UNL     1       3.967  -2.395   3.244  0.00  0.00    +0.098 C 
ATOM      5  N   UNL     1       3.185  -1.812   2.115  0.00  0.00    -0.293 NA
ATOM      6  C   UNL     1       5.269  -4.109   1.972  0.00  0.00    +0.245 C 
ATOM      7  O   UNL     1       5.145  -5.271   2.630  0.00  0.00    -0.273 OA
ATOM      8  N   UNL     1       5.350  -3.986   0.681  0.00  0.00    -0.145 NA
ATOM      9  C   UNL     1       5.477  -2.727   0.220  0.00  0.00    +0.245 C 
ATOM     10  O   UNL     1       5.573  -2.392  -0.943  0.00  0.00    -0.273 OA
ATOM     11  H   UNL     1       2.416  -1.259   2.461  0.00  0.00    +0.124 HD
ENDROOT
BRANCH   4  12
ATOM     12  C   UNL     1       3.286  -3.641   3.748  0.00  0.00    -0.030 A 
ATOM     13  C   UNL     1       2.626  -4.472   2.861  0.00  0.00    +0.006 A 
ATOM     14  C   UNL     1       2.001  -5.614   3.316  0.00  0.00    +0.019 A 
ATOM     15  C   UNL     1       2.035  -5.931   4.675  0.00  0.00    +0.052 A 
ATOM     16  C   UNL     1       2.703  -5.088   5.565  0.00  0.00    +0.019 A 
ATOM     17  C   UNL     1       3.329  -3.951   5.096  0.00  0.00    +0.006 A 
BRANCH  15  18
ATOM     18  C   UNL     1       1.388  -7.115   5.155  0.00  0.00    +0.099 C 
ATOM     19  N   UNL     1       0.874  -8.054   5.535  0.00  0.00    -0.191 NA
ENDBRANCH  15  18
ENDBRANCH   4  12
BRANCH   1  20
ATOM     20  C   UNL     1       4.367   0.342   2.127  0.00  0.00    +0.377 C 
ATOM     21  O   UNL     1       3.709   0.588   3.123  0.00  0.00    -0.244 OA
ATOM     22  O   UNL     1       5.183   1.151   1.720  0.00  0.00    -0.244 OA
ENDBRANCH   1  20
BRANCH   1  23
ATOM     23  C   UNL     1       3.711  -0.707  -0.038  0.00  0.00    +0.069 C 
BRANCH  23  27
ATOM     24  C   UNL     1      -0.017   1.378   0.010  0.00  0.00    +0.000 A 
ATOM     25  C   UNL     1       1.171   2.086   0.002  0.00  0.00    +0.000 A 
ATOM     26  C   UNL     1       2.377   1.411  -0.013  0.00  0.00    +0.004 A 
ATOM     27  C   UNL     1       2.396   0.029  -0.020  0.00  0.00    -0.045 A 
ATOM     28  C   UNL     1       1.208  -0.679  -0.012  0.00  0.00    +0.004 A 
ATOM     29  C   UNL     1       0.002  -0.004   0.002  0.00  0.00    +0.000 A 
ENDBRANCH  23  27
ENDBRANCH   1  23
TORSDOF 5
