REMARK  Name = ZINC38865716
REMARK  7 active torsions:
REMARK  status: ('A' for Active; 'I' for Inactive)
REMARK    1  A    between atoms: C_1  and  C_2
REMARK    2  A    between atoms: C_5  and  N_9
REMARK    3  A    between atoms: C_7  and  C_8
REMARK    4  A    between atoms: C_11  and  C_16
REMARK    5  A    between atoms: N_18  and  C_19
REMARK    6  A    between atoms: C_21  and  C_34
REMARK    7  A    between atoms: C_26  and  C_29
REMARK                            x       y       z     vdW  Elec       q    Type
REMARK                         _______ _______ _______ _____ _____    ______ ____
ROOT
ATOM      1  C   UNL     1       1.932  -6.550  -1.082  0.00  0.00    +0.223 C 
ATOM      2  O   UNL     1       2.561  -5.630  -1.562  0.00  0.00    -0.275 OA
ATOM      3  N   UNL     1       2.553  -7.709  -0.786  0.00  0.00    -0.270 N 
ATOM      4  H   UNL     1       2.050  -8.444  -0.402  0.00  0.00    +0.156 HD
ENDROOT
BRANCH   3   5
ATOM      5  C   UNL     1       3.918  -7.851  -1.030  0.00  0.00    +0.131 A 
ATOM      6  C   UNL     1       4.745  -6.906  -1.556  0.00  0.00    +0.068 A 
ATOM      7  C   UNL     1       6.028  -7.454  -1.634  0.00  0.00    +0.062 A 
ATOM      8  N   UNL     1       5.986  -8.678  -1.175  0.00  0.00    -0.168 NA
ATOM      9  N   UNL     1       4.671  -8.958  -0.782  0.00  0.00    -0.194 N 
ATOM     10  C   UNL     1       4.214 -10.156  -0.237  0.00  0.00    +0.196 A 
ATOM     11  N   UNL     1       4.885 -11.260   0.033  0.00  0.00    -0.221 NA
ATOM     12  C   UNL     1       4.287 -12.319   0.557  0.00  0.00    +0.087 A 
ATOM     13  C   UNL     1       2.944 -12.267   0.823  0.00  0.00    +0.077 A 
ATOM     14  S   UNL     1       2.565 -10.603   0.288  0.00  0.00    -0.056 S 
ATOM     15  C   UNL     1       7.255  -6.752  -2.158  0.00  0.00    +0.067 C 
BRANCH  12  16
ATOM     16  C   UNL     1       5.060 -13.545   0.851  0.00  0.00    +0.038 A 
ATOM     17  C   UNL     1       6.394 -13.789   0.665  0.00  0.00    +0.017 A 
ATOM     18  C   UNL     1       6.897 -15.023   1.018  0.00  0.00    +0.008 A 
ATOM     19  C   UNL     1       6.059 -15.955   1.538  0.00  0.00    +0.046 A 
ATOM     20  S   UNL     1       4.498 -15.089   1.549  0.00  0.00    -0.095 S 
ENDBRANCH  12  16
ENDBRANCH   3   5
BRANCH   1  23
ATOM     21  N   UNL     1       0.059  -4.170  -0.021  0.00  0.00    -0.271 N 
ATOM     22  C   UNL     1      -0.037  -4.992  -1.232  0.00  0.00    +0.127 C 
ATOM     23  C   UNL     1       0.457  -6.396  -0.817  0.00  0.00    +0.102 C 
ATOM     24  C   UNL     1       0.163  -6.397   0.701  0.00  0.00    +0.110 C 
ATOM     25  C   UNL     1       0.172  -4.933   1.080  0.00  0.00    +0.221 C 
ATOM     26  O   UNL     1       0.265  -4.509   2.212  0.00  0.00    -0.275 OA
BRANCH  21  31
ATOM     27  C   UNL     1      -0.015   1.503   0.010  0.00  0.00    +0.044 C 
ATOM     28  C   UNL     1       0.005  -0.004   0.002  0.00  0.00    -0.047 A 
ATOM     29  C   UNL     1       0.005  -0.701   1.197  0.00  0.00    +0.005 A 
ATOM     30  C   UNL     1       0.023  -2.082   1.193  0.00  0.00    +0.024 A 
ATOM     31  C   UNL     1       0.040  -2.771  -0.013  0.00  0.00    +0.037 A 
ATOM     32  C   UNL     1       0.039  -2.068  -1.211  0.00  0.00    +0.027 A 
ATOM     33  C   UNL     1       0.017  -0.687  -1.200  0.00  0.00    -0.046 A 
ATOM     34  C   UNL     1       0.010   0.076  -2.499  0.00  0.00    +0.044 C 
ENDBRANCH  21  31
ENDBRANCH   1  23
TORSDOF 4
