REMARK  Name = ZINC21258067
REMARK  8 active torsions:
REMARK  status: ('A' for Active; 'I' for Inactive)
REMARK    1  A    between atoms: C_1  and  C_2
REMARK    2  A    between atoms: C_2  and  C_3
REMARK    3  A    between atoms: C_2  and  O_4
REMARK    4  A    between atoms: O_4  and  C_5
REMARK    5  A    between atoms: C_8  and  C_13
REMARK    6  A    between atoms: C_10  and  O_11
REMARK    7  A    between atoms: O_11  and  C_12
REMARK    8  A    between atoms: C_18  and  C_28
REMARK                            x       y       z     vdW  Elec       q    Type
REMARK                         _______ _______ _______ _____ _____    ______ ____
ROOT
ATOM      1  C   UNL     1      -0.762   1.529  -1.767  0.00  0.00    +0.032 C 
ATOM      2  C   UNL     1      -2.202   1.269  -2.207  0.00  0.00    +0.059 C 
ATOM      3  C   UNL     1      -3.168   1.857  -1.192  0.00  0.00    +0.017 C 
ATOM      4  C   UNL     1      -2.844   1.901   0.112  0.00  0.00    +0.036 C 
ATOM      5  C   UNL     1      -3.707   2.453   1.221  0.00  0.00    +0.138 C 
ATOM      6  N   UNL     1      -5.077   2.722   0.839  0.00  0.00    -0.331 N 
ATOM      7  C   UNL     1      -5.380   3.699  -0.107  0.00  0.00    +0.049 A 
ATOM      8  C   UNL     1      -6.045   4.863   0.244  0.00  0.00    +0.025 A 
ATOM      9  C   UNL     1      -6.225   5.856  -0.704  0.00  0.00    +0.002 A 
ATOM     10  C   UNL     1      -5.747   5.689  -1.991  0.00  0.00    +0.002 A 
ATOM     11  C   UNL     1      -5.101   4.518  -2.350  0.00  0.00    +0.025 A 
ATOM     12  C   UNL     1      -4.937   3.517  -1.408  0.00  0.00    +0.052 A 
ATOM     13  N   UNL     1      -4.341   2.299  -1.713  0.00  0.00    -0.316 N 
ATOM     14  C   UNL     1      -1.586   1.415   0.553  0.00  0.00    +0.163 C 
ATOM     15  O   UNL     1      -1.325   1.443   1.740  0.00  0.00    -0.292 OA
ATOM     16  C   UNL     1      -0.566   0.866  -0.398  0.00  0.00    +0.088 C 
ATOM     17  H   UNL     1      -5.898   2.151   1.298  0.00  0.00    +0.147 HD
ATOM     18  H   UNL     1      -4.893   1.677  -2.433  0.00  0.00    +0.152 HD
ENDROOT
BRANCH   5  19
ATOM     19  C   UNL     1      -3.087   3.736   1.711  0.00  0.00    +0.002 A 
ATOM     20  C   UNL     1      -2.224   4.513   1.039  0.00  0.00    +0.089 A 
ATOM     21  N   UNL     1      -1.880   5.596   1.801  0.00  0.00    -0.360 N 
ATOM     22  H   UNL     1      -1.182   6.348   1.405  0.00  0.00    +0.165 HD
ATOM     23  C   UNL     1      -2.523   5.536   3.017  0.00  0.00    +0.047 A 
ATOM     24  C   UNL     1      -3.308   4.368   3.014  0.00  0.00    +0.005 A 
ATOM     25  C   UNL     1      -4.079   4.044   4.131  0.00  0.00    +0.010 A 
ATOM     26  C   UNL     1      -4.068   4.864   5.224  0.00  0.00    +0.001 A 
ATOM     27  C   UNL     1      -3.296   6.018   5.232  0.00  0.00    +0.002 A 
ATOM     28  C   UNL     1      -2.527   6.356   4.140  0.00  0.00    +0.026 A 
ENDBRANCH   5  19
BRANCH   1  32
ATOM     29  C   UNL     1       1.950  -0.173  -4.602  0.00  0.00    +0.162 A 
ATOM     30  C   UNL     1       1.019  -0.976  -3.961  0.00  0.00    +0.050 A 
ATOM     31  C   UNL     1       0.144  -0.422  -3.045  0.00  0.00    +0.008 A 
ATOM     32  C   UNL     1       0.195   0.931  -2.766  0.00  0.00    -0.040 A 
ATOM     33  C   UNL     1       1.117   1.738  -3.406  0.00  0.00    +0.053 A 
ATOM     34  C   UNL     1       2.000   1.189  -4.321  0.00  0.00    +0.162 A 
BRANCH  34  35
ATOM     35  O   UNL     1       2.912   1.980  -4.948  0.00  0.00    -0.491 OA
ATOM     36  C   UNL     1       2.906   3.369  -4.610  0.00  0.00    +0.277 C 
ENDBRANCH  34  35
BRANCH  29  37
ATOM     37  O   UNL     1       2.811  -0.716  -5.504  0.00  0.00    -0.486 OA
BRANCH  37  39
ATOM     38  C   UNL     1       1.688  -2.526  -6.646  0.00  0.00    +0.051 C 
ATOM     39  C   UNL     1       2.784  -2.137  -5.653  0.00  0.00    +0.167 C 
ATOM     40  C   UNL     1       4.139  -2.620  -6.174  0.00  0.00    +0.051 C 
ENDBRANCH  37  39
ENDBRANCH  29  37
ENDBRANCH   1  32
TORSDOF 5
