REMARK  Name = ZINC14743680
REMARK  11 active torsions:
REMARK  status: ('A' for Active; 'I' for Inactive)
REMARK    1  A    between atoms: C_1  and  C_2
REMARK    2  A    between atoms: C_2  and  C_4
REMARK    3  A    between atoms: C_2  and  C_14
REMARK    4  A    between atoms: C_4  and  C_5
REMARK    5  A    between atoms: C_14  and  N_15
REMARK    6  A    between atoms: N_23  and  C_31
REMARK    7  A    between atoms: N_26  and  C_27
REMARK    8  A    between atoms: C_27  and  C_28
REMARK    9  A    between atoms: C_28  and  C_29
REMARK   10  A    between atoms: C_28  and  C_30
REMARK   11  A    between atoms: C_31  and  C_32
REMARK                            x       y       z     vdW  Elec       q    Type
REMARK                         _______ _______ _______ _____ _____    ______ ____
ROOT
ATOM      1  N   UNL     1      -0.080  -0.053  -2.413  0.00  0.00    +0.380 N 
ATOM      2  C   UNL     1       0.022   1.373  -2.743  0.00  0.00    -0.076 C 
ATOM      3  C   UNL     1      -0.990   1.719  -3.839  0.00  0.00    +0.017 C 
ATOM      4  C   UNL     1      -0.704   0.869  -5.074  0.00  0.00    +0.112 C 
ATOM      5  C   UNL     1      -0.714  -0.613  -4.712  0.00  0.00    +0.017 C 
ATOM      6  C   UNL     1       0.286  -0.864  -3.580  0.00  0.00    -0.076 C 
ATOM      7  C   UNL     1      -1.716   1.155  -6.159  0.00  0.00    +0.247 C 
ATOM      8  O   UNL     1      -2.916   0.994  -6.105  0.00  0.00    -0.273 OA
ATOM      9  N   UNL     1      -1.001   1.630  -7.200  0.00  0.00    -0.218 N 
ATOM     10  C   UNL     1       0.307   1.679  -6.919  0.00  0.00    +0.312 C 
ATOM     11  O   UNL     1       1.152   2.071  -7.699  0.00  0.00    -0.252 OA
ATOM     12  N   UNL     1       0.581   1.245  -5.673  0.00  0.00    -0.271 N 
ATOM     13  H   UNL     1      -1.028  -0.267  -2.140  0.00  0.00    -0.082 HD
ENDROOT
BRANCH   1  14
ATOM     14  C   UNL     1       0.828  -0.363  -1.300  0.00  0.00    -0.075 C 
BRANCH  14  16
ATOM     15  C   UNL     1      -0.821  -1.945  -0.290  0.00  0.00    +0.006 C 
ATOM     16  C   UNL     1       0.600  -1.804  -0.841  0.00  0.00    -0.026 C 
BRANCH  16  17
ATOM     17  C   UNL     1       1.609  -2.157   0.254  0.00  0.00    +0.036 C 
BRANCH  17  18
ATOM     18  C   UNL     1       1.465  -3.611   0.620  0.00  0.00    -0.043 A 
ATOM     19  C   UNL     1       0.588  -3.988   1.620  0.00  0.00    +0.007 A 
ATOM     20  C   UNL     1       0.453  -5.321   1.959  0.00  0.00    +0.050 A 
ATOM     21  C   UNL     1       1.197  -6.284   1.296  0.00  0.00    +0.166 A 
ATOM     22  C   UNL     1       2.080  -5.905   0.289  0.00  0.00    +0.166 A 
ATOM     23  C   UNL     1       2.206  -4.567  -0.050  0.00  0.00    +0.053 A 
ATOM     24  O   UNL     1       2.687  -7.024  -0.204  0.00  0.00    -0.453 OA
ATOM     25  C   UNL     1       2.471  -8.046   0.787  0.00  0.00    +0.466 C 
ATOM     26  O   UNL     1       1.250  -7.641   1.435  0.00  0.00    -0.453 OA
ENDBRANCH  17  18
ENDBRANCH  16  17
ENDBRANCH  14  16
ENDBRANCH   1  14
BRANCH  12  27
ATOM     27  C   UNL     1       1.901   1.165  -5.043  0.00  0.00    +0.113 C 
BRANCH  27  28
ATOM     28  C   UNL     1       2.530   2.559  -4.996  0.00  0.00    +0.000 C 
ATOM     29  C   UNL     1       1.702   3.462  -4.080  0.00  0.00    +0.009 C 
ATOM     30  C   UNL     1       3.958   2.456  -4.457  0.00  0.00    +0.009 C 
ENDBRANCH  27  28
ENDBRANCH  12  27
BRANCH   9  31
ATOM     31  C   UNL     1      -1.584   2.039  -8.480  0.00  0.00    +0.173 C 
BRANCH  31  32
ATOM     32  C   UNL     1      -1.941   3.502  -8.425  0.00  0.00    +0.059 A 
ATOM     33  C   UNL     1      -1.050   4.442  -8.910  0.00  0.00    +0.025 A 
ATOM     34  C   UNL     1      -1.388   5.785  -8.854  0.00  0.00    +0.003 A 
ATOM     35  C   UNL     1      -2.615   6.135  -8.310  0.00  0.00    +0.020 A 
ATOM     36  C   UNL     1      -3.454   5.140  -7.845  0.00  0.00    +0.111 A 
ATOM     37  N   UNL     1      -3.101   3.871  -7.919  0.00  0.00    -0.258 NA
ENDBRANCH  31  32
ENDBRANCH   9  31
TORSDOF 8
