REMARK  Name = ZINC15775084
REMARK  7 active torsions:
REMARK  status: ('A' for Active; 'I' for Inactive)
REMARK    1  A    between atoms: C_1  and  C_2
REMARK    2  A    between atoms: C_5  and  C_8
REMARK    3  A    between atoms: C_8  and  N_9
REMARK    4  A    between atoms: C_10  and  C_12
REMARK    5  A    between atoms: C_12  and  C_13
REMARK    6  A    between atoms: C_19  and  S_24
REMARK    7  A    between atoms: S_24  and  N_27
REMARK                            x       y       z     vdW  Elec       q    Type
REMARK                         _______ _______ _______ _____ _____    ______ ____
ROOT
ATOM      1  C   UNL     1      -0.106   4.165  -0.271  0.00  0.00    +0.117 C 
ATOM      2  C   UNL     1      -1.214   3.398   0.465  0.00  0.00    +0.251 C 
ATOM      3  O   UNL     1      -1.207   2.039   0.019  0.00  0.00    -0.488 OA
ATOM      4  C   UNL     1      -0.017   1.382   0.010  0.00  0.00    +0.143 A 
ATOM      5  C   UNL     1       0.002  -0.004   0.002  0.00  0.00    +0.076 A 
ATOM      6  C   UNL     1       1.208  -0.680  -0.016  0.00  0.00    +0.109 A 
ATOM      7  C   UNL     1       2.400   0.020  -0.026  0.00  0.00    +0.030 A 
ATOM      8  C   UNL     1       2.391   1.403  -0.016  0.00  0.00    +0.028 A 
ATOM      9  C   UNL     1       1.185   2.085   0.002  0.00  0.00    +0.070 A 
ATOM     10  N   UNL     1       1.171   3.489   0.018  0.00  0.00    -0.334 N 
ATOM     11  H   UNL     1       1.974   3.997   0.212  0.00  0.00    +0.147 HD
ENDROOT
BRANCH   6  12
ATOM     12  S   UNL     1       1.226  -2.442  -0.026  0.00  0.00    +0.061 S 
ATOM     13  O   UNL     1       2.481  -2.839   0.507  0.00  0.00    -0.153 OA
ATOM     14  O   UNL     1      -0.009  -2.864   0.537  0.00  0.00    -0.153 OA
BRANCH  12  15
ATOM     15  N   UNL     1       1.212  -2.923  -1.611  0.00  0.00    -0.177 NA
ATOM     16  C   UNL     1       0.010  -3.189  -2.415  0.00  0.00    +0.109 C 
ATOM     17  C   UNL     1       0.484  -3.631  -3.815  0.00  0.00    +0.018 C 
ATOM     18  C   UNL     1       1.925  -4.141  -3.547  0.00  0.00    +0.018 C 
ATOM     19  C   UNL     1       2.402  -3.160  -2.447  0.00  0.00    +0.109 C 
ENDBRANCH  12  15
ENDBRANCH   6  12
BRANCH   1  20
ATOM     20  C   UNL     1      -0.373   4.147  -1.778  0.00  0.00    +0.121 C 
BRANCH  20  22
ATOM     21  N   UNL     1       0.642   5.094  -3.825  0.00  0.00    -0.311 N 
ATOM     22  C   UNL     1       0.676   4.967  -2.484  0.00  0.00    +0.215 C 
ATOM     23  O   UNL     1       1.551   5.512  -1.845  0.00  0.00    -0.276 OA
ATOM     24  H   UNL     1      -0.058   4.658  -4.336  0.00  0.00    +0.149 HD
BRANCH  21  25
ATOM     25  C   UNL     1       1.661   5.891  -4.511  0.00  0.00    +0.139 C 
BRANCH  25  30
ATOM     26  C   UNL     1       0.652   5.823 -10.201  0.00  0.00    +0.044 C 
ATOM     27  C   UNL     1       0.916   5.842  -8.717  0.00  0.00    -0.050 A 
ATOM     28  C   UNL     1       0.349   6.823  -7.926  0.00  0.00    +0.003 A 
ATOM     29  C   UNL     1       0.591   6.840  -6.565  0.00  0.00    +0.005 A 
ATOM     30  C   UNL     1       1.398   5.874  -5.995  0.00  0.00    -0.030 A 
ATOM     31  C   UNL     1       1.970   4.895  -6.787  0.00  0.00    +0.005 A 
ATOM     32  C   UNL     1       1.725   4.876  -8.147  0.00  0.00    +0.003 A 
ENDBRANCH  25  30
ENDBRANCH  21  25
ENDBRANCH  20  22
ENDBRANCH   1  20
TORSDOF 6
