REMARK  Name = ZINC60359349
REMARK  9 active torsions:
REMARK  status: ('A' for Active; 'I' for Inactive)
REMARK    1  A    between atoms: C_1  and  C_2
REMARK    2  A    between atoms: C_5  and  S_8
REMARK    3  A    between atoms: S_8  and  N_11
REMARK    4  A    between atoms: N_11  and  C_12
REMARK    5  A    between atoms: C_12  and  C_13
REMARK    6  A    between atoms: C_20  and  C_22
REMARK    7  A    between atoms: C_24  and  O_31
REMARK    8  A    between atoms: C_27  and  N_28
REMARK    9  A    between atoms: O_31  and  C_32
REMARK                            x       y       z     vdW  Elec       q    Type
REMARK                         _______ _______ _______ _____ _____    ______ ____
ROOT
ATOM      1  C   UNL     1       3.598  -5.160  -0.007  0.00  0.00    +0.022 C 
ATOM      2  C   UNL     1       4.268  -4.796   1.320  0.00  0.00    +0.008 C 
ATOM      3  C   UNL     1       5.491  -5.690   1.538  0.00  0.00    +0.019 C 
ATOM      4  C   UNL     1       6.498  -5.454   0.408  0.00  0.00    +0.108 C 
ATOM      5  N   UNL     1       5.821  -5.661  -0.879  0.00  0.00    -0.297 N 
ATOM      6  C   UNL     1       4.583  -4.919  -1.155  0.00  0.00    +0.113 C 
ATOM      7  C   UNL     1       6.326  -6.516  -1.791  0.00  0.00    +0.249 C 
ATOM      8  O   UNL     1       5.710  -6.749  -2.812  0.00  0.00    -0.270 OA
ENDROOT
BRANCH   7   9
ATOM      9  C   UNL     1       7.630  -7.169  -1.549  0.00  0.00    +0.070 A 
ATOM     10  C   UNL     1       8.772  -6.396  -1.336  0.00  0.00    +0.061 A 
ATOM     11  C   UNL     1       9.989  -7.015  -1.110  0.00  0.00    +0.121 A 
ATOM     12  C   UNL     1      10.072  -8.401  -1.096  0.00  0.00    +0.048 A 
ATOM     13  C   UNL     1       8.942  -9.169  -1.307  0.00  0.00    +0.037 A 
ATOM     14  C   UNL     1       7.722  -8.562  -1.527  0.00  0.00    +0.138 A 
BRANCH  14  15
ATOM     15  N   UNL     1       6.513  -9.387  -1.747  0.00  0.00    +0.057 N 
ATOM     16  O   UNL     1       6.612 -10.587  -1.855  0.00  0.00    -0.126 OA
ATOM     17  O   UNL     1       5.427  -8.861  -1.818  0.00  0.00    -0.126 OA
ENDBRANCH  14  15
BRANCH  11  18
ATOM     18  O   UNL     1      11.104  -6.266  -0.902  0.00  0.00    -0.495 OA
ATOM     19  C   UNL     1      12.326  -6.971  -0.675  0.00  0.00    +0.277 C 
ENDBRANCH  11  18
ENDBRANCH   7   9
BRANCH   1  20
ATOM     20  C   UNL     1       2.356  -4.289  -0.208  0.00  0.00    +0.111 C 
BRANCH  20  21
ATOM     21  N   UNL     1       1.651  -4.717  -1.419  0.00  0.00    -0.190 NA
ATOM     22  H   UNL     1       2.095  -5.292  -2.061  0.00  0.00    +0.148 HD
BRANCH  21  23
ATOM     23  S   UNL     1       0.095  -4.218  -1.690  0.00  0.00    +0.058 S 
ATOM     24  O   UNL     1      -0.625  -4.464  -0.490  0.00  0.00    -0.153 OA
ATOM     25  O   UNL     1      -0.296  -4.769  -2.940  0.00  0.00    -0.153 OA
BRANCH  23  30
ATOM     26  C   UNL     1       0.239   1.770  -2.418  0.00  0.00    +0.044 C 
ATOM     27  C   UNL     1       0.203   0.274  -2.236  0.00  0.00    -0.050 A 
ATOM     28  C   UNL     1       0.346  -0.558  -3.330  0.00  0.00    +0.005 A 
ATOM     29  C   UNL     1       0.313  -1.930  -3.163  0.00  0.00    +0.029 A 
ATOM     30  C   UNL     1       0.138  -2.469  -1.903  0.00  0.00    +0.105 A 
ATOM     31  C   UNL     1      -0.004  -1.636  -0.809  0.00  0.00    +0.029 A 
ATOM     32  C   UNL     1       0.034  -0.265  -0.975  0.00  0.00    +0.005 A 
ENDBRANCH  23  30
ENDBRANCH  21  23
ENDBRANCH  20  21
ENDBRANCH   1  20
TORSDOF 7
