REMARK  Name = ZINC12413722
REMARK  11 active torsions:
REMARK  status: ('A' for Active; 'I' for Inactive)
REMARK    1  A    between atoms: C_1  and  C_2
REMARK    2  A    between atoms: C_2  and  O_3
REMARK    3  A    between atoms: O_3  and  C_4
REMARK    4  A    between atoms: C_4  and  C_6
REMARK    5  A    between atoms: C_7  and  C_31
REMARK    6  A    between atoms: N_8  and  C_23
REMARK    7  A    between atoms: C_11  and  C_17
REMARK    8  A    between atoms: C_12  and  O_16
REMARK    9  A    between atoms: C_17  and  N_18
REMARK   10  A    between atoms: C_26  and  O_29
REMARK   11  A    between atoms: O_29  and  C_30
REMARK                            x       y       z     vdW  Elec       q    Type
REMARK                         _______ _______ _______ _____ _____    ______ ____
ROOT
ATOM      1  C   UNL     1      -2.845  -2.417   0.016  0.00  0.00    +0.088 A 
ATOM      2  C   UNL     1      -3.603  -2.739  -1.072  0.00  0.00    +0.036 A 
ATOM      3  N   UNL     1      -4.791  -3.251  -0.667  0.00  0.00    -0.312 N 
ATOM      4  C   UNL     1      -4.856  -3.284   0.714  0.00  0.00    +0.056 A 
ATOM      5  C   UNL     1      -3.644  -2.772   1.204  0.00  0.00    +0.019 A 
ATOM      6  C   UNL     1      -3.424  -2.689   2.576  0.00  0.00    -0.011 A 
ATOM      7  C   UNL     1      -4.403  -3.119   3.453  0.00  0.00    +0.133 A 
ATOM      8  C   UNL     1      -5.603  -3.630   2.966  0.00  0.00    +0.061 A 
ATOM      9  C   UNL     1      -5.832  -3.707   1.609  0.00  0.00    +0.045 A 
ATOM     10 BR   UNL     1      -6.933  -4.215   4.177  0.00  0.00    -0.046 Br
ATOM     11  C   UNL     1      -3.183  -2.553  -2.507  0.00  0.00    +0.065 C 
ENDROOT
BRANCH   3  12
ATOM     12  C   UNL     1      -5.810  -3.686  -1.527  0.00  0.00    +0.047 A 
ATOM     13  C   UNL     1      -7.028  -3.021  -1.552  0.00  0.00    +0.030 A 
ATOM     14  C   UNL     1      -8.031  -3.449  -2.400  0.00  0.00    +0.047 A 
ATOM     15  C   UNL     1      -7.821  -4.544  -3.225  0.00  0.00    +0.120 A 
ATOM     16  C   UNL     1      -6.604  -5.209  -3.201  0.00  0.00    +0.047 A 
ATOM     17  C   UNL     1      -5.598  -4.779  -2.358  0.00  0.00    +0.030 A 
BRANCH  15  18
ATOM     18  O   UNL     1      -8.809  -4.966  -4.059  0.00  0.00    -0.495 OA
ATOM     19  C   UNL     1      -8.524  -6.099  -4.881  0.00  0.00    +0.277 C 
ENDBRANCH  15  18
ENDBRANCH   3  12
BRANCH   1  20
ATOM     20  C   UNL     1      -1.497  -1.838   0.006  0.00  0.00    +0.342 C 
ATOM     21  O   UNL     1      -0.523  -2.565  -0.007  0.00  0.00    -0.245 OA
BRANCH  20  22
ATOM     22  O   UNL     1      -1.339  -0.499   0.012  0.00  0.00    -0.461 OA
BRANCH  22  24
ATOM     23  C   UNL     1      -0.019   1.526   0.010  0.00  0.00    +0.048 C 
ATOM     24  C   UNL     1       0.002  -0.004   0.002  0.00  0.00    +0.229 C 
ENDBRANCH  22  24
ENDBRANCH  20  22
ENDBRANCH   1  20
BRANCH   7  25
ATOM     25  O   UNL     1      -4.194  -3.041   4.794  0.00  0.00    -0.505 OA
ATOM     26  H   UNL     1      -4.482  -2.207   5.190  0.00  0.00    +0.292 HD
ENDBRANCH   7  25
BRANCH   6  27
ATOM     27  C   UNL     1      -2.125  -2.136   3.103  0.00  0.00    -0.039 C 
BRANCH  27  28
ATOM     28  N   UNL     1      -2.249  -0.684   3.286  0.00  0.00    +0.382 N 
ATOM     29  C   UNL     1      -3.186  -0.387   4.400  0.00  0.00    -0.078 C 
ATOM     30  C   UNL     1      -2.785   1.048   4.826  0.00  0.00    -0.020 C 
ATOM     31  C   UNL     1      -1.247   1.037   4.674  0.00  0.00    -0.020 C 
ATOM     32  C   UNL     1      -0.948  -0.107   3.688  0.00  0.00    -0.078 C 
ATOM     33  H   UNL     1      -2.573  -0.252   2.433  0.00  0.00    -0.081 HD
ENDBRANCH  27  28
ENDBRANCH   6  27
TORSDOF 8
