REMARK  Name = ZINC28865320
REMARK  7 active torsions:
REMARK  status: ('A' for Active; 'I' for Inactive)
REMARK    1  A    between atoms: C_1  and  C_2
REMARK    2  A    between atoms: C_2  and  O_3
REMARK    3  A    between atoms: O_3  and  C_4
REMARK    4  A    between atoms: C_11  and  C_18
REMARK    5  A    between atoms: C_13  and  O_17
REMARK    6  A    between atoms: C_18  and  O_19
REMARK    7  A    between atoms: O_19  and  C_20
REMARK                            x       y       z     vdW  Elec       q    Type
REMARK                         _______ _______ _______ _____ _____    ______ ____
ROOT
ATOM      1  C   UNL     1       0.305  -1.887  -1.679  0.00  0.00    +0.405 C 
ATOM      2  O   UNL     1       0.219  -2.588  -0.684  0.00  0.00    -0.226 OA
ATOM      3  N   UNL     1       0.849  -2.372  -2.787  0.00  0.00    -0.251 N 
ATOM      4  C   UNL     1       1.188  -3.687  -2.857  0.00  0.00    +0.040 A 
ATOM      5  C   UNL     1       0.655  -4.598  -1.929  0.00  0.00    +0.024 A 
ATOM      6  C   UNL     1       0.986  -5.914  -1.989  0.00  0.00    +0.014 A 
ATOM      7  C   UNL     1       1.868  -6.371  -2.986  0.00  0.00    +0.024 A 
ATOM      8  C   UNL     1       2.224  -7.733  -3.066  0.00  0.00    +0.007 A 
ATOM      9  C   UNL     1       3.093  -8.130  -4.063  0.00  0.00    +0.095 A 
ATOM     10  C   UNL     1       3.594  -7.196  -4.957  0.00  0.00    +0.285 A 
ATOM     11  O   UNL     1       3.254  -5.904  -4.877  0.00  0.00    -0.425 OA
ATOM     12  C   UNL     1       2.409  -5.462  -3.923  0.00  0.00    +0.141 A 
ATOM     13  C   UNL     1       2.061  -4.126  -3.856  0.00  0.00    +0.070 A 
ATOM     14  H   UNL     1       1.005  -1.790  -3.546  0.00  0.00    +0.158 HD
ENDROOT
BRANCH  10  15
ATOM     15  O   UNL     1       4.441  -7.596  -5.924  0.00  0.00    -0.480 OA
ATOM     16  H   UNL     1       4.742  -6.883  -6.503  0.00  0.00    +0.295 HD
ENDBRANCH  10  15
BRANCH   1  17
ATOM     17  O   UNL     1      -0.154  -0.616  -1.653  0.00  0.00    -0.450 OA
BRANCH  17  19
ATOM     18  C   UNL     1      -1.188   1.291  -0.587  0.00  0.00    +0.048 C 
ATOM     19  C   UNL     1      -0.729  -0.159  -0.426  0.00  0.00    +0.230 C 
ENDBRANCH  17  19
ENDBRANCH   1  17
BRANCH   8  20
ATOM     20  C   UNL     1       1.669  -8.733  -2.084  0.00  0.00    +0.265 C 
BRANCH  20  21
ATOM     21  O   UNL     1       2.746  -9.396  -1.419  0.00  0.00    -0.484 OA
BRANCH  21  22
ATOM     22  C   UNL     1       2.415 -10.336  -0.494  0.00  0.00    +0.156 A 
ATOM     23  C   UNL     1       1.082 -10.618  -0.237  0.00  0.00    +0.050 A 
ATOM     24  C   UNL     1       0.748 -11.575   0.703  0.00  0.00    +0.019 A 
ATOM     25  C   UNL     1       1.741 -12.251   1.388  0.00  0.00    +0.021 A 
ATOM     26  C   UNL     1       3.072 -11.972   1.135  0.00  0.00    +0.057 A 
ATOM     27  C   UNL     1       3.412 -11.019   0.191  0.00  0.00    +0.166 A 
ATOM     28  F   UNL     1       4.712 -10.750  -0.061  0.00  0.00    -0.202 F 
ATOM     29 BR   UNL     1       1.279 -13.557   2.674  0.00  0.00    -0.050 Br
ENDBRANCH  21  22
ENDBRANCH  20  21
ENDBRANCH   8  20
TORSDOF 6
