REMARK  Name = ZINC33280459
REMARK  7 active torsions:
REMARK  status: ('A' for Active; 'I' for Inactive)
REMARK    1  A    between atoms: C_1  and  C_2
REMARK    2  A    between atoms: C_3  and  C_29
REMARK    3  A    between atoms: C_9  and  C_28
REMARK    4  A    between atoms: C_10  and  C_11
REMARK    5  A    between atoms: N_13  and  C_14
REMARK    6  A    between atoms: C_19  and  C_20
REMARK    7  A    between atoms: C_20  and  C_22
REMARK                            x       y       z     vdW  Elec       q    Type
REMARK                         _______ _______ _______ _____ _____    ______ ____
ROOT
ATOM      1  C   UNL     1       1.106   1.874   0.027  0.00  0.00    +0.251 C 
ATOM      2  O   UNL     1       0.968   3.072  -0.133  0.00  0.00    -0.270 OA
ATOM      3  N   UNL     1       0.024   1.070   0.067  0.00  0.00    -0.281 N 
ATOM      4  H   UNL     1       0.151  -0.021   0.129  0.00  0.00    +0.155 HD
ENDROOT
BRANCH   1  14
ATOM      5  C   UNL     1       6.149  -0.001   3.231  0.00  0.00    +0.047 C 
ATOM      6  C   UNL     1       4.812   0.538   2.793  0.00  0.00    -0.016 A 
ATOM      7  C   UNL     1       3.853   1.038   3.596  0.00  0.00    +0.017 A 
ATOM      8  N   UNL     1       2.790   1.425   2.832  0.00  0.00    -0.357 N 
ATOM      9  H   UNL     1       1.900   1.861   3.309  0.00  0.00    +0.166 HD
ATOM     10  C   UNL     1       3.069   1.167   1.493  0.00  0.00    +0.067 A 
ATOM     11  C   UNL     1       4.339   0.611   1.477  0.00  0.00    +0.041 A 
ATOM     12  S   UNL     1       4.654   0.299  -0.239  0.00  0.00    -0.091 S 
ATOM     13  C   UNL     1       3.167   0.873  -0.915  0.00  0.00    +0.001 A 
ATOM     14  C   UNL     1       2.451   1.303   0.178  0.00  0.00    +0.071 A 
ATOM     15  C   UNL     1       2.754   0.899  -2.364  0.00  0.00    +0.052 C 
ATOM     16  C   UNL     1       3.940   1.152   5.096  0.00  0.00    +0.063 C 
ENDBRANCH   1  14
BRANCH   3  17
ATOM     17  C   UNL     1      -1.253   1.621   0.027  0.00  0.00    +0.045 A 
ATOM     18  C   UNL     1      -1.487   2.792  -0.681  0.00  0.00    +0.024 A 
ATOM     19  C   UNL     1      -2.756   3.333  -0.722  0.00  0.00    +0.002 A 
ATOM     20  C   UNL     1      -3.803   2.721  -0.051  0.00  0.00    +0.001 A 
ATOM     21  C   UNL     1      -3.589   1.562   0.662  0.00  0.00    +0.013 A 
ATOM     22  C   UNL     1      -2.311   0.998   0.709  0.00  0.00    +0.043 A 
BRANCH  22  23
ATOM     23  C   UNL     1      -2.075  -0.242   1.470  0.00  0.00    +0.195 C 
ATOM     24  O   UNL     1      -2.438  -1.311   1.018  0.00  0.00    -0.287 OA
BRANCH  23  25
ATOM     25  C   UNL     1      -1.398  -0.186   2.783  0.00  0.00    +0.022 A 
ATOM     26  C   UNL     1      -0.898   1.026   3.263  0.00  0.00    +0.012 A 
ATOM     27  C   UNL     1      -0.271   1.072   4.491  0.00  0.00    +0.001 A 
ATOM     28  C   UNL     1      -0.128  -0.082   5.241  0.00  0.00    +0.000 A 
ATOM     29  C   UNL     1      -0.616  -1.287   4.769  0.00  0.00    +0.001 A 
ATOM     30  C   UNL     1      -1.250  -1.347   3.545  0.00  0.00    +0.012 A 
ENDBRANCH  23  25
ENDBRANCH  22  23
ENDBRANCH   3  17
TORSDOF 4
