REMARK  Name = ZINC22418157
REMARK  10 active torsions:
REMARK  status: ('A' for Active; 'I' for Inactive)
REMARK    1  A    between atoms: C_1  and  C_2
REMARK    2  A    between atoms: C_4  and  C_11
REMARK    3  A    between atoms: C_7  and  N_8
REMARK    4  A    between atoms: N_13  and  C_14
REMARK    5  A    between atoms: C_14  and  C_15
REMARK    6  A    between atoms: C_15  and  C_17
REMARK    7  A    between atoms: C_15  and  N_26
REMARK    8  A    between atoms: C_20  and  N_23
REMARK    9  A    between atoms: N_23  and  C_24
REMARK   10  A    between atoms: N_23  and  C_25
REMARK                            x       y       z     vdW  Elec       q    Type
REMARK                         _______ _______ _______ _____ _____    ______ ____
ROOT
ATOM      1  C   UNL     1      -6.125   2.766   0.550  0.00  0.00    -0.020 C 
ENDROOT
BRANCH   1   2
ATOM      2  N   UNL     1      -6.030   1.457   1.211  0.00  0.00    +0.388 N 
ATOM      3  C   UNL     1      -7.345   0.799   1.270  0.00  0.00    -0.073 C 
ATOM      4  C   UNL     1      -7.135  -0.674   1.620  0.00  0.00    +0.017 C 
ATOM      5  C   UNL     1      -6.246  -0.794   2.831  0.00  0.00    -0.048 A 
ATOM      6  C   UNL     1      -6.218  -2.000   3.515  0.00  0.00    +0.004 A 
ATOM      7  C   UNL     1      -5.411  -2.155   4.624  0.00  0.00    +0.000 A 
ATOM      8  C   UNL     1      -4.627  -1.101   5.056  0.00  0.00    +0.000 A 
ATOM      9  C   UNL     1      -4.655   0.101   4.377  0.00  0.00    +0.002 A 
ATOM     10  C   UNL     1      -5.467   0.258   3.263  0.00  0.00    -0.061 A 
ATOM     11  C   UNL     1      -5.467   1.589   2.559  0.00  0.00    -0.042 C 
ATOM     12  H   UNL     1      -5.351   0.831   0.614  0.00  0.00    -0.080 HD
ENDBRANCH   1   2
BRANCH   1  13
ATOM     13  C   UNL     1      -7.477   3.371   0.827  0.00  0.00    -0.059 A 
ATOM     14  C   UNL     1      -7.981   3.375   2.115  0.00  0.00    +0.004 A 
ATOM     15  C   UNL     1      -9.217   3.934   2.373  0.00  0.00    +0.023 A 
ATOM     16  C   UNL     1      -9.960   4.483   1.336  0.00  0.00    +0.029 A 
ATOM     17  C   UNL     1      -9.454   4.472   0.042  0.00  0.00    +0.023 A 
ATOM     18  C   UNL     1      -8.214   3.916  -0.208  0.00  0.00    +0.004 A 
BRANCH  16  19
ATOM     19  N   UNL     1     -11.213   5.043   1.592  0.00  0.00    -0.336 N 
ATOM     20  C   UNL     1     -11.995   5.621   0.496  0.00  0.00    +0.129 C 
ATOM     21  C   UNL     1     -11.745   5.054   2.957  0.00  0.00    +0.129 C 
ENDBRANCH  16  19
ENDBRANCH   1  13
BRANCH   1  22
ATOM     22  C   UNL     1      -5.032   3.691   1.090  0.00  0.00    +0.094 C 
BRANCH  22  25
ATOM     23  C   UNL     1      -2.608   3.682   1.336  0.00  0.00    +0.244 C 
ATOM     24  O   UNL     1      -2.684   4.787   1.837  0.00  0.00    -0.270 OA
ATOM     25  N   UNL     1      -3.725   3.048   0.928  0.00  0.00    -0.313 N 
ATOM     26  H   UNL     1      -3.656   2.049   0.474  0.00  0.00    +0.149 HD
BRANCH  23  30
ATOM     27  C   UNL     1       2.350   3.781   1.893  0.00  0.00    +0.046 C 
ATOM     28  C   UNL     1       1.097   3.077   1.438  0.00  0.00    -0.020 A 
ATOM     29  C   UNL     1      -0.130   3.688   1.593  0.00  0.00    +0.018 A 
ATOM     30  C   UNL     1      -1.289   3.034   1.173  0.00  0.00    +0.037 A 
ATOM     31  C   UNL     1      -1.197   1.768   0.591  0.00  0.00    +0.015 A 
ATOM     32  C   UNL     1       0.035   1.167   0.447  0.00  0.00    +0.034 A 
ATOM     33  C   UNL     1       1.181   1.820   0.866  0.00  0.00    +0.129 A 
BRANCH  33  34
ATOM     34  N   UNL     1       2.501   1.172   0.702  0.00  0.00    +0.057 N 
ATOM     35  O   UNL     1       3.470   1.836   0.382  0.00  0.00    -0.126 OA
ATOM     36  O   UNL     1       2.619  -0.026   0.887  0.00  0.00    -0.126 OA
ENDBRANCH  33  34
ENDBRANCH  23  30
ENDBRANCH  22  25
ENDBRANCH   1  22
TORSDOF 7
