REMARK  Name = ZINC36046224
REMARK  9 active torsions:
REMARK  status: ('A' for Active; 'I' for Inactive)
REMARK    1  A    between atoms: C_1  and  C_2
REMARK    2  A    between atoms: C_2  and  O_4
REMARK    3  A    between atoms: O_4  and  N_5
REMARK    4  A    between atoms: N_5  and  C_6
REMARK    5  A    between atoms: N_5  and  C_27
REMARK    6  A    between atoms: C_6  and  C_7
REMARK    7  A    between atoms: C_19  and  C_26
REMARK    8  A    between atoms: C_27  and  C_28
REMARK    9  A    between atoms: C_40  and  C_47
REMARK                            x       y       z     vdW  Elec       q    Type
REMARK                         _______ _______ _______ _____ _____    ______ ____
ROOT
ATOM      1  N   UNL     1      -1.021  -2.104   0.003  0.00  0.00    -0.137 NA
ENDROOT
BRANCH   1   2
ATOM      2  O   UNL     1      -1.477  -0.716  -0.073  0.00  0.00    -0.367 OA
BRANCH   2   4
ATOM      3  C   UNL     1      -0.805   1.659  -0.085  0.00  0.00    +0.138 C 
ATOM      4  C   UNL     1      -0.487   0.188  -0.017  0.00  0.00    +0.323 C 
ATOM      5  O   UNL     1       0.660  -0.178   0.087  0.00  0.00    -0.249 OA
ENDBRANCH   2   4
ENDBRANCH   1   2
BRANCH   1   6
ATOM      6  C   UNL     1      -1.480  -2.742   1.244  0.00  0.00    +0.142 C 
BRANCH   6   7
ATOM      7  C   UNL     1      -0.780  -2.093   2.440  0.00  0.00    +0.121 C 
ATOM      8  C   UNL     1       0.742  -2.431   2.434  0.00  0.00    +0.045 C 
ATOM      9  C   UNL     1       0.889  -3.736   1.651  0.00  0.00    +0.016 C 
ATOM     10  C   UNL     1       2.231  -4.408   1.941  0.00  0.00    +0.021 C 
ATOM     11  C   UNL     1       2.282  -5.718   1.177  0.00  0.00    -0.073 C 
ATOM     12  C   UNL     1       3.164  -5.913   0.228  0.00  0.00    +0.008 C 
ATOM     13  C   UNL     1       1.282  -6.791   1.546  0.00  0.00    +0.030 C 
ATOM     14  C   UNL     1       1.340  -7.023   3.059  0.00  0.00    +0.005 C 
ATOM     15  C   UNL     1       1.149  -5.692   3.791  0.00  0.00    +0.007 C 
ATOM     16  C   UNL     1       2.300  -4.732   3.440  0.00  0.00    -0.022 C 
ATOM     17  C   UNL     1       2.218  -3.438   4.238  0.00  0.00    +0.052 C 
ATOM     18  C   UNL     1       0.957  -2.658   3.944  0.00  0.00    +0.181 C 
ATOM     19  O   UNL     1      -0.246  -3.312   4.363  0.00  0.00    -0.461 OA
ATOM     20  C   UNL     1      -1.280  -2.693   3.742  0.00  0.00    +0.312 C 
ATOM     21  O   UNL     1      -2.414  -2.629   4.154  0.00  0.00    -0.250 OA
ATOM     22  C   UNL     1       3.634  -5.415   3.748  0.00  0.00    +0.012 C 
ENDBRANCH   6   7
ENDBRANCH   1   6
BRANCH   1  23
ATOM     23  C   UNL     1      -1.457  -2.868  -1.173  0.00  0.00    +0.142 C 
BRANCH  23  24
ATOM     24  C   UNL     1      -0.760  -2.324  -2.422  0.00  0.00    +0.121 C 
ATOM     25  C   UNL     1      -1.261  -3.068  -3.698  0.00  0.00    +0.045 C 
ATOM     26  C   UNL     1      -1.766  -4.432  -3.229  0.00  0.00    +0.016 C 
ATOM     27  C   UNL     1      -1.865  -5.417  -4.394  0.00  0.00    +0.021 C 
ATOM     28  C   UNL     1      -2.317  -6.758  -3.847  0.00  0.00    -0.073 C 
ATOM     29  C   UNL     1      -3.465  -7.280  -4.200  0.00  0.00    +0.008 C 
ATOM     30  C   UNL     1      -1.398  -7.472  -2.881  0.00  0.00    +0.030 C 
ATOM     31  C   UNL     1      -0.000  -7.562  -3.500  0.00  0.00    +0.005 C 
ATOM     32  C   UNL     1       0.469  -6.166  -3.914  0.00  0.00    +0.007 C 
ATOM     33  C   UNL     1      -0.466  -5.599  -4.998  0.00  0.00    -0.022 C 
ATOM     34  C   UNL     1       0.032  -4.261  -5.528  0.00  0.00    +0.052 C 
ATOM     35  C   UNL     1       0.075  -3.196  -4.456  0.00  0.00    +0.181 C 
ATOM     36  O   UNL     1       1.030  -3.449  -3.419  0.00  0.00    -0.461 OA
ATOM     37  C   UNL     1       0.726  -2.633  -2.381  0.00  0.00    +0.312 C 
ATOM     38  O   UNL     1       1.506  -2.219  -1.557  0.00  0.00    -0.250 OA
ATOM     39  C   UNL     1      -0.544  -6.589  -6.161  0.00  0.00    +0.012 C 
ENDBRANCH  23  24
ENDBRANCH   1  23
TORSDOF 6
