REMARK  Name = ZINC13217875
REMARK  9 active torsions:
REMARK  status: ('A' for Active; 'I' for Inactive)
REMARK    1  A    between atoms: C_1  and  C_2
REMARK    2  A    between atoms: C_7  and  O_37
REMARK    3  A    between atoms: C_8  and  C_12
REMARK    4  A    between atoms: C_14  and  C_30
REMARK    5  A    between atoms: N_18  and  C_19
REMARK    6  A    between atoms: C_22  and  C_25
REMARK    7  A    between atoms: C_25  and  C_26
REMARK    8  A    between atoms: C_30  and  C_32
REMARK    9  A    between atoms: O_37  and  C_38
REMARK                            x       y       z     vdW  Elec       q    Type
REMARK                         _______ _______ _______ _____ _____    ______ ____
ROOT
ATOM      1  C   UNL     1       0.111  -4.111   3.139  0.00  0.00    +0.153 C 
ATOM      2  C   UNL     1      -0.515  -4.417   4.480  0.00  0.00    +0.080 C 
ATOM      3  C   UNL     1       0.473  -4.332   5.401  0.00  0.00    +0.250 C 
ATOM      4  C   UNL     1       1.738  -3.982   4.725  0.00  0.00    +0.292 C 
ATOM      5  O   UNL     1       2.808  -3.834   5.282  0.00  0.00    -0.266 OA
ATOM      6  N   UNL     1       1.532  -3.852   3.401  0.00  0.00    -0.253 N 
ATOM      7  O   UNL     1       0.325  -4.537   6.731  0.00  0.00    -0.282 OA
ENDROOT
BRANCH   1  14
ATOM      8  C   UNL     1      -3.403   0.058  -1.758  0.00  0.00    +0.052 C 
ATOM      9  C   UNL     1      -3.297  -0.558  -0.362  0.00  0.00    +0.175 C 
ATOM     10  C   UNL     1      -2.473   0.353   0.579  0.00  0.00    +0.083 C 
ATOM     11  C   UNL     1      -1.722  -0.662   1.420  0.00  0.00    +0.001 A 
ATOM     12  C   UNL     1      -1.036  -0.549   2.609  0.00  0.00    +0.053 A 
ATOM     13  C   UNL     1      -0.437  -1.667   3.171  0.00  0.00    +0.126 A 
ATOM     14  C   UNL     1      -0.534  -2.893   2.530  0.00  0.00    +0.023 A 
ATOM     15  C   UNL     1      -1.219  -3.003   1.339  0.00  0.00    +0.055 A 
ATOM     16  C   UNL     1      -1.819  -1.883   0.767  0.00  0.00    +0.125 A 
ATOM     17  O   UNL     1      -2.523  -1.769  -0.397  0.00  0.00    -0.488 OA
BRANCH  13  18
ATOM     18  O   UNL     1       0.242  -1.561   4.345  0.00  0.00    -0.495 OA
ATOM     19  C   UNL     1       0.402  -0.248   4.885  0.00  0.00    +0.277 C 
ENDBRANCH  13  18
ENDBRANCH   1  14
BRANCH   6  20
ATOM     20  C   UNL     1       2.499  -3.528   2.445  0.00  0.00    +0.038 A 
ATOM     21  C   UNL     1       2.145  -3.421   1.105  0.00  0.00    +0.024 A 
ATOM     22  C   UNL     1       3.102  -3.100   0.163  0.00  0.00    +0.006 A 
ATOM     23  C   UNL     1       4.412  -2.886   0.552  0.00  0.00    -0.037 A 
ATOM     24  C   UNL     1       4.768  -2.992   1.884  0.00  0.00    +0.006 A 
ATOM     25  C   UNL     1       3.814  -3.307   2.832  0.00  0.00    +0.024 A 
BRANCH  23  26
ATOM     26  C   UNL     1       5.455  -2.538  -0.479  0.00  0.00    +0.160 C 
BRANCH  26  27
ATOM     27  C   UNL     1       5.522  -1.041  -0.639  0.00  0.00    +0.360 C 
ATOM     28  O   UNL     1       4.791  -0.323   0.023  0.00  0.00    -0.246 OA
ATOM     29  O   UNL     1       6.307  -0.547  -1.430  0.00  0.00    -0.246 OA
ENDBRANCH  26  27
ENDBRANCH  23  26
ENDBRANCH   6  20
BRANCH   2  30
ATOM     30  C   UNL     1      -1.923  -4.742   4.734  0.00  0.00    +0.230 C 
ATOM     31  O   UNL     1      -2.328  -4.844   5.879  0.00  0.00    -0.283 OA
BRANCH  30  32
ATOM     32  C   UNL     1      -2.843  -4.944   3.611  0.00  0.00    +0.175 A 
ATOM     33  C   UNL     1      -4.208  -5.114   3.700  0.00  0.00    +0.053 A 
ATOM     34  C   UNL     1      -4.677  -5.271   2.388  0.00  0.00    +0.042 A 
ATOM     35  C   UNL     1      -3.605  -5.194   1.568  0.00  0.00    +0.196 A 
ATOM     36  O   UNL     1      -2.505  -4.993   2.306  0.00  0.00    -0.460 OA
ENDBRANCH  30  32
ENDBRANCH   2  30
TORSDOF 7
