REMARK  Name = ZINC63467761
REMARK  6 active torsions:
REMARK  status: ('A' for Active; 'I' for Inactive)
REMARK    1  A    between atoms: C_1  and  N_2
REMARK    2  A    between atoms: C_5  and  C_21
REMARK    3  A    between atoms: C_11  and  C_12
REMARK    4  A    between atoms: N_23  and  C_24
REMARK    5  A    between atoms: C_24  and  C_25
REMARK    6  A    between atoms: C_25  and  C_26
REMARK                            x       y       z     vdW  Elec       q    Type
REMARK                         _______ _______ _______ _____ _____    ______ ____
ROOT
ATOM      1  C   UNL     1      -0.366   1.265  -0.531  0.00  0.00    +0.138 C 
ATOM      2  N   UNL     1      -0.214  -0.174  -0.305  0.00  0.00    -0.269 N 
ATOM      3  C   UNL     1      -1.383  -0.905  -0.131  0.00  0.00    +0.051 A 
ATOM      4  C   UNL     1      -2.576  -0.363  -0.591  0.00  0.00    +0.037 A 
ATOM      5  C   UNL     1      -3.774  -1.062  -0.438  0.00  0.00    +0.039 A 
ATOM      6  C   UNL     1      -3.782  -2.316   0.180  0.00  0.00    +0.014 A 
ATOM      7  C   UNL     1      -2.601  -2.857   0.638  0.00  0.00    +0.017 A 
ATOM      8  C   UNL     1      -1.409  -2.160   0.488  0.00  0.00    +0.034 A 
ATOM      9  S   UNL     1       0.101  -2.862   1.085  0.00  0.00    -0.082 S 
ATOM     10  C   UNL     1       1.293  -2.070   0.037  0.00  0.00    +0.075 C 
ATOM     11  C   UNL     1       2.379  -2.728  -0.437  0.00  0.00    +0.028 C 
ATOM     12  C   UNL     1       1.034  -0.651  -0.294  0.00  0.00    +0.257 C 
ATOM     13  O   UNL     1       1.964   0.088  -0.555  0.00  0.00    -0.269 OA
ENDROOT
BRANCH  11  14
ATOM     14  C   UNL     1       2.515  -4.176  -0.219  0.00  0.00    -0.022 A 
ATOM     15  C   UNL     1       1.377  -4.989  -0.165  0.00  0.00    +0.008 A 
ATOM     16  C   UNL     1       1.512  -6.345   0.039  0.00  0.00    +0.002 A 
ATOM     17  C   UNL     1       2.769  -6.904   0.192  0.00  0.00    +0.020 A 
ATOM     18  C   UNL     1       3.900  -6.107   0.140  0.00  0.00    +0.042 A 
ATOM     19  C   UNL     1       3.782  -4.748  -0.070  0.00  0.00    +0.028 A 
ATOM     20 CL   UNL     1       5.471  -6.820   0.334  0.00  0.00    -0.084 Cl
ENDBRANCH  11  14
BRANCH   5  21
ATOM     21  C   UNL     1      -5.035  -0.477  -0.930  0.00  0.00    +0.244 C 
ATOM     22  O   UNL     1      -5.030   0.614  -1.468  0.00  0.00    -0.270 OA
ATOM     23  N   UNL     1      -6.193  -1.151  -0.783  0.00  0.00    -0.311 N 
ATOM     24  H   UNL     1      -6.197  -2.021  -0.354  0.00  0.00    +0.149 HD
BRANCH  23  25
ATOM     25  C   UNL     1      -7.446  -0.569  -1.272  0.00  0.00    +0.109 C 
BRANCH  25  26
ATOM     26  C   UNL     1      -8.601  -1.530  -0.983  0.00  0.00    +0.052 C 
BRANCH  26  27
ATOM     27  C   UNL     1      -9.890  -0.932  -1.485  0.00  0.00    -0.040 C 
ATOM     28  C   UNL     1     -10.482  -1.161  -2.679  0.00  0.00    -0.001 A 
ATOM     29  C   UNL     1     -10.116  -2.003  -3.825  0.00  0.00    +0.010 A 
ATOM     30  C   UNL     1     -10.927  -2.026  -4.907  0.00  0.00    +0.001 A 
ATOM     31  C   UNL     1     -12.104  -1.268  -4.962  0.00  0.00    +0.002 A 
ATOM     32  C   UNL     1     -12.507  -0.472  -3.949  0.00  0.00    +0.026 A 
ATOM     33  C   UNL     1     -11.731  -0.371  -2.762  0.00  0.00    +0.043 A 
ATOM     34  N   UNL     1     -11.904   0.320  -1.662  0.00  0.00    -0.380 N 
ATOM     35  C   UNL     1     -10.787   0.041  -0.753  0.00  0.00    +0.144 C 
ATOM     36  H   UNL     1     -12.649   0.913  -1.477  0.00  0.00    +0.160 HD
ENDBRANCH  26  27
ENDBRANCH  25  26
ENDBRANCH  23  25
ENDBRANCH   5  21
TORSDOF 5
