REMARK  Name = ZINC43710811
REMARK  3 active torsions:
REMARK  status: ('A' for Active; 'I' for Inactive)
REMARK    1  A    between atoms: C_4  and  C_7
REMARK    2  A    between atoms: C_7  and  C_9
REMARK    3  A    between atoms: N_28  and  C_31
REMARK                            x       y       z     vdW  Elec       q    Type
REMARK                         _______ _______ _______ _____ _____    ______ ____
ROOT
ATOM      1  C   UNL     1       3.752  -2.201  -0.059  0.00  0.00    +0.158 C 
ATOM      2  C   UNL     1       3.375  -2.726   1.333  0.00  0.00    +0.118 C 
ATOM      3  C   UNL     1       4.743  -3.045   2.010  0.00  0.00    +0.114 C 
ATOM      4  C   UNL     1       5.681  -3.305   0.824  0.00  0.00    +0.110 C 
ATOM      5  N   UNL     1       5.099  -2.667  -0.361  0.00  0.00    -0.311 N 
ATOM      6  C   UNL     1       5.845  -2.499  -1.527  0.00  0.00    +0.038 A 
ATOM      7  C   UNL     1       5.300  -2.489  -2.791  0.00  0.00    +0.024 A 
ATOM      8  C   UNL     1       6.129  -2.332  -3.889  0.00  0.00    +0.002 A 
ATOM      9  C   UNL     1       7.495  -2.188  -3.721  0.00  0.00    +0.001 A 
ATOM     10  C   UNL     1       8.054  -2.191  -2.457  0.00  0.00    +0.010 A 
ATOM     11  C   UNL     1       7.234  -2.339  -1.344  0.00  0.00    -0.004 A 
ATOM     12  C   UNL     1       7.770  -2.311   0.030  0.00  0.00    +0.007 C 
ATOM     13  C   UNL     1       7.054  -2.740   1.069  0.00  0.00    -0.003 C 
ATOM     14  C   UNL     1       4.433  -4.364   2.702  0.00  0.00    +0.232 C 
ATOM     15  O   UNL     1       5.053  -4.842   3.628  0.00  0.00    -0.274 OA
ATOM     16  N   UNL     1       3.356  -4.907   2.114  0.00  0.00    -0.210 N 
ATOM     17  C   UNL     1       2.730  -4.091   1.229  0.00  0.00    +0.232 C 
ATOM     18  O   UNL     1       1.825  -4.394   0.482  0.00  0.00    -0.274 OA
ENDROOT
BRANCH  16  19
ATOM     19  C   UNL     1       2.906  -6.204   2.396  0.00  0.00    +0.044 A 
ATOM     20  C   UNL     1       1.714  -6.661   1.850  0.00  0.00    +0.025 A 
ATOM     21  C   UNL     1       1.273  -7.940   2.130  0.00  0.00    +0.017 A 
ATOM     22  C   UNL     1       2.018  -8.765   2.954  0.00  0.00    +0.018 A 
ATOM     23  C   UNL     1       3.206  -8.312   3.499  0.00  0.00    +0.017 A 
ATOM     24  C   UNL     1       3.654  -7.036   3.218  0.00  0.00    +0.025 A 
ATOM     25 BR   UNL     1       1.411 -10.515   3.335  0.00  0.00    -0.050 Br
ENDBRANCH  16  19
BRANCH   1  26
ATOM     26  C   UNL     1       3.720  -0.695  -0.063  0.00  0.00    +0.184 C 
ATOM     27  O   UNL     1       4.756  -0.066  -0.052  0.00  0.00    -0.290 OA
BRANCH  26  31
ATOM     28  C   UNL     1       0.002   1.346  -0.116  0.00  0.00    +0.000 A 
ATOM     29  C   UNL     1       1.183   2.068  -0.102  0.00  0.00    +0.001 A 
ATOM     30  C   UNL     1       2.395   1.411  -0.085  0.00  0.00    +0.011 A 
ATOM     31  C   UNL     1       2.430   0.013  -0.081  0.00  0.00    +0.019 A 
ATOM     32  C   UNL     1       1.232  -0.708  -0.095  0.00  0.00    +0.011 A 
ATOM     33  C   UNL     1       0.027  -0.038  -0.112  0.00  0.00    +0.001 A 
ENDBRANCH  26  31
ENDBRANCH   1  26
TORSDOF 3
