REMARK  Name = ZINC67339385
REMARK  5 active torsions:
REMARK  status: ('A' for Active; 'I' for Inactive)
REMARK    1  A    between atoms: C_1  and  O_2
REMARK    2  A    between atoms: O_2  and  C_3
REMARK    3  A    between atoms: C_6  and  N_9
REMARK    4  A    between atoms: C_10  and  C_12
REMARK    5  A    between atoms: C_13  and  C_14
REMARK                            x       y       z     vdW  Elec       q    Type
REMARK                         _______ _______ _______ _____ _____    ______ ____
ROOT
ATOM      1  N   UNL     1      -4.889  -2.581   0.036  0.00  0.00    -0.282 N 
ATOM      2  C   UNL     1      -4.944  -3.923  -0.067  0.00  0.00    +0.241 C 
ATOM      3  O   UNL     1      -3.916  -4.576  -0.076  0.00  0.00    -0.270 OA
ATOM      4  H   UNL     1      -5.707  -2.067   0.121  0.00  0.00    +0.155 HD
ENDROOT
BRANCH   1   8
ATOM      5  C   UNL     1      -1.201  -0.637  -0.007  0.00  0.00    +0.120 A 
ATOM      6  C   UNL     1      -2.245  -0.128   0.752  0.00  0.00    +0.047 A 
ATOM      7  C   UNL     1      -3.466  -0.771   0.767  0.00  0.00    +0.027 A 
ATOM      8  C   UNL     1      -3.651  -1.928   0.021  0.00  0.00    +0.034 A 
ATOM      9  C   UNL     1      -2.606  -2.437  -0.739  0.00  0.00    +0.027 A 
ATOM     10  C   UNL     1      -1.387  -1.790  -0.757  0.00  0.00    +0.047 A 
BRANCH   5  12
ATOM     11  C   UNL     1       0.122   1.178   0.773  0.00  0.00    +0.277 C 
ATOM     12  O   UNL     1       0.002  -0.004  -0.021  0.00  0.00    -0.495 OA
ENDBRANCH   5  12
ENDBRANCH   1   8
BRANCH   2  13
ATOM     13  C   UNL     1      -6.199  -4.576  -0.164  0.00  0.00    +0.071 C 
ATOM     14  C   UNL     1      -6.255  -5.925  -0.267  0.00  0.00    +0.051 C 
BRANCH  14  15
ATOM     15  C   UNL     1      -7.548  -6.598  -0.368  0.00  0.00    +0.129 A 
ATOM     16  C   UNL     1      -7.726  -7.945  -0.470  0.00  0.00    +0.057 A 
ATOM     17  C   UNL     1      -9.171  -8.157  -0.544  0.00  0.00    +0.022 A 
ATOM     18  C   UNL     1      -9.984  -9.288  -0.657  0.00  0.00    +0.027 A 
ATOM     19  C   UNL     1     -11.343  -9.143  -0.702  0.00  0.00    +0.019 A 
ATOM     20  C   UNL     1     -11.918  -7.881  -0.637  0.00  0.00    +0.019 A 
ATOM     21  C   UNL     1     -11.133  -6.754  -0.525  0.00  0.00    +0.048 A 
ATOM     22  C   UNL     1      -9.749  -6.876  -0.477  0.00  0.00    +0.136 A 
ATOM     23  O   UNL     1      -8.748  -5.980  -0.367  0.00  0.00    -0.455 OA
ATOM     24 BR   UNL     1     -12.445 -10.672  -0.856  0.00  0.00    -0.050 Br
ENDBRANCH  14  15
ENDBRANCH   2  13
TORSDOF 4
