REMARK  Name = ZINC15692115
REMARK  9 active torsions:
REMARK  status: ('A' for Active; 'I' for Inactive)
REMARK    1  A    between atoms: C_1  and  C_2
REMARK    2  A    between atoms: C_7  and  C_9
REMARK    3  A    between atoms: C_7  and  C_28
REMARK    4  A    between atoms: C_7  and  N_59
REMARK    5  A    between atoms: C_9  and  N_10
REMARK    6  A    between atoms: C_11  and  C_13
REMARK    7  A    between atoms: C_16  and  N_19
REMARK    8  A    between atoms: N_19  and  S_20
REMARK    9  A    between atoms: S_20  and  C_23
REMARK                            x       y       z     vdW  Elec       q    Type
REMARK                         _______ _______ _______ _____ _____    ______ ____
ROOT
ATOM      1  N   UNL     1      -0.680   4.355  -0.251  0.00  0.00    -0.313 N 
ATOM      2  C   UNL     1      -0.661   5.666  -0.561  0.00  0.00    +0.244 C 
ATOM      3  O   UNL     1      -0.180   6.468   0.217  0.00  0.00    -0.270 OA
ATOM      4  H   UNL     1      -1.064   3.715  -0.871  0.00  0.00    +0.149 HD
ENDROOT
BRANCH   2   5
ATOM      5  C   UNL     1      -1.224   6.129  -1.843  0.00  0.00    +0.037 A 
ATOM      6  C   UNL     1      -1.773   5.208  -2.741  0.00  0.00    +0.015 A 
ATOM      7  C   UNL     1      -2.303   5.644  -3.933  0.00  0.00    +0.025 A 
ATOM      8  C   UNL     1      -2.282   7.000  -4.252  0.00  0.00    +0.048 A 
ATOM      9  C   UNL     1      -1.732   7.918  -3.363  0.00  0.00    +0.025 A 
ATOM     10  C   UNL     1      -1.206   7.489  -2.166  0.00  0.00    +0.015 A 
BRANCH   8  11
ATOM     11  N   UNL     1      -2.814   7.436  -5.461  0.00  0.00    -0.216 N 
ATOM     12  H   UNL     1      -3.775   7.471  -5.583  0.00  0.00    +0.174 HD
BRANCH  11  13
ATOM     13  S   UNL     1      -1.805   7.896  -6.691  0.00  0.00    +0.079 S 
ATOM     14  O   UNL     1      -2.636   8.232  -7.793  0.00  0.00    -0.149 OA
ATOM     15  O   UNL     1      -0.874   8.812  -6.131  0.00  0.00    -0.149 OA
BRANCH  13  16
ATOM     16  C   UNL     1      -0.884   6.472  -7.169  0.00  0.00    +0.146 A 
ATOM     17  C   UNL     1      -1.145   5.577  -8.153  0.00  0.00    +0.036 A 
ATOM     18  C   UNL     1      -0.272   4.524  -8.351  0.00  0.00    +0.010 A 
ATOM     19  C   UNL     1       0.820   4.418  -7.555  0.00  0.00    +0.047 A 
ATOM     20  S   UNL     1       0.640   5.837  -6.488  0.00  0.00    -0.077 S 
ENDBRANCH  13  16
ENDBRANCH  11  13
ENDBRANCH   8  11
ENDBRANCH   2   5
BRANCH   1  21
ATOM     21  C   UNL     1      -0.121   3.895   1.022  0.00  0.00    +0.094 C 
BRANCH  21  22
ATOM     22  C   UNL     1      -0.268   2.375   1.125  0.00  0.00    -0.013 C 
BRANCH  22  29
ATOM     23  C   UNL     1       2.810  -0.373  -2.830  0.00  0.00    +0.007 C 
ATOM     24  C   UNL     1       2.318   0.212  -1.505  0.00  0.00    -0.018 C 
ATOM     25  C   UNL     1       0.931  -0.349  -1.181  0.00  0.00    -0.015 C 
ATOM     26  C   UNL     1       0.418   0.285   0.113  0.00  0.00    -0.078 C 
ATOM     27  C   UNL     1       1.679   2.311  -0.313  0.00  0.00    -0.078 C 
ATOM     28  C   UNL     1       2.229   1.736  -1.621  0.00  0.00    -0.015 C 
ATOM     29  N   UNL     1       0.332   1.750  -0.072  0.00  0.00    +0.386 N 
ATOM     30  H   UNL     1      -0.262   1.948  -0.885  0.00  0.00    -0.081 HD
ENDBRANCH  22  29
BRANCH  22  31
ATOM     31  C   UNL     1       0.416   1.887   2.376  0.00  0.00    -0.022 A 
ATOM     32  C   UNL     1      -0.135   1.430   3.527  0.00  0.00    +0.009 A 
ATOM     33  C   UNL     1       0.696   1.031   4.556  0.00  0.00    +0.008 A 
ATOM     34  C   UNL     1       2.039   1.107   4.384  0.00  0.00    +0.045 A 
ATOM     35  S   UNL     1       2.162   1.754   2.725  0.00  0.00    -0.103 S 
ENDBRANCH  22  31
ENDBRANCH  21  22
ENDBRANCH   1  21
TORSDOF 8
