REMARK  Name = ZINC18437990
REMARK  8 active torsions:
REMARK  status: ('A' for Active; 'I' for Inactive)
REMARK    1  A    between atoms: C_1  and  C_2
REMARK    2  A    between atoms: C_2  and  C_4
REMARK    3  A    between atoms: C_2  and  N_65
REMARK    4  A    between atoms: C_7  and  S_15
REMARK    5  A    between atoms: N_8  and  C_9
REMARK    6  A    between atoms: S_15  and  C_16
REMARK    7  A    between atoms: C_16  and  C_18
REMARK    8  A    between atoms: C_16  and  C_19
REMARK                            x       y       z     vdW  Elec       q    Type
REMARK                         _______ _______ _______ _____ _____    ______ ____
ROOT
ATOM      1  C   UNL     1       1.176  -0.440   0.181  0.00  0.00    +0.125 A 
ATOM      2  N   UNL     1       1.738   0.734   0.235  0.00  0.00    -0.135 NA
ATOM      3  N   UNL     1       0.849   1.643   0.421  0.00  0.00    -0.122 NA
ATOM      4  C   UNL     1      -0.342   1.094   0.497  0.00  0.00    +0.197 A 
ATOM      5  N   UNL     1      -0.171  -0.254   0.346  0.00  0.00    -0.275 N 
ENDROOT
BRANCH   5   6
ATOM      6  C   UNL     1      -1.167  -1.241   0.357  0.00  0.00    +0.050 A 
ATOM      7  C   UNL     1      -1.187  -2.198   1.363  0.00  0.00    +0.026 A 
ATOM      8  C   UNL     1      -2.173  -3.165   1.375  0.00  0.00    +0.002 A 
ATOM      9  C   UNL     1      -3.132  -3.189   0.379  0.00  0.00    +0.000 A 
ATOM     10  C   UNL     1      -3.112  -2.240  -0.627  0.00  0.00    +0.002 A 
ATOM     11  C   UNL     1      -2.132  -1.267  -0.641  0.00  0.00    +0.026 A 
ENDBRANCH   5   6
BRANCH   1  13
ATOM     12  C   UNL     1       2.324  -1.875  -1.484  0.00  0.00    -0.005 C 
ATOM     13  C   UNL     1       1.878  -1.758  -0.025  0.00  0.00    -0.002 C 
BRANCH  13  19
ATOM     14  C   UNL     1       3.747  -3.115   0.701  0.00  0.00    -0.078 C 
ATOM     15  C   UNL     1       5.040  -3.098   1.518  0.00  0.00    -0.019 C 
ATOM     16  C   UNL     1       4.705  -2.849   2.991  0.00  0.00    -0.004 C 
ATOM     17  C   UNL     1       3.941  -1.528   3.117  0.00  0.00    -0.019 C 
ATOM     18  C   UNL     1       2.679  -1.591   2.253  0.00  0.00    -0.078 C 
ATOM     19  N   UNL     1       3.071  -1.807   0.844  0.00  0.00    +0.386 N 
ATOM     20  H   UNL     1       3.721  -1.064   0.562  0.00  0.00    -0.081 HD
ENDBRANCH  13  19
ENDBRANCH   1  13
BRANCH   4  21
ATOM     21  S   UNL     1      -1.870   1.937   0.740  0.00  0.00    -0.073 S 
BRANCH  21  22
ATOM     22  C   UNL     1      -1.275   3.643   0.846  0.00  0.00    +0.137 C 
ATOM     23  C   UNL     1      -0.671   4.057  -0.497  0.00  0.00    +0.029 C 
BRANCH  22  24
ATOM     24  C   UNL     1      -2.426   4.556   1.182  0.00  0.00    +0.233 C 
ATOM     25  O   UNL     1      -3.566   4.193   0.983  0.00  0.00    -0.274 OA
ATOM     26  N   UNL     1      -2.189   5.776   1.703  0.00  0.00    -0.260 N 
ATOM     27  C   UNL     1      -0.816   6.237   1.960  0.00  0.00    +0.209 C 
ATOM     28  C   UNL     1      -0.771   6.945   3.285  0.00  0.00    +0.235 C 
ATOM     29  O   UNL     1       0.256   6.941   3.931  0.00  0.00    -0.274 OA
ATOM     30  N   UNL     1      -1.857   7.579   3.767  0.00  0.00    -0.283 N 
ATOM     31  C   UNL     1      -3.067   7.557   3.066  0.00  0.00    +0.055 A 
ATOM     32  C   UNL     1      -3.244   6.644   2.024  0.00  0.00    +0.058 A 
ATOM     33  C   UNL     1      -4.438   6.606   1.327  0.00  0.00    +0.025 A 
ATOM     34  C   UNL     1      -5.457   7.479   1.665  0.00  0.00    +0.002 A 
ATOM     35  C   UNL     1      -5.285   8.385   2.694  0.00  0.00    +0.002 A 
ATOM     36  C   UNL     1      -4.093   8.428   3.396  0.00  0.00    +0.025 A 
ATOM     37  H   UNL     1      -1.799   8.057   4.609  0.00  0.00    +0.155 HD
ENDBRANCH  22  24
ENDBRANCH  21  22
ENDBRANCH   4  21
TORSDOF 6
