REMARK  Name = ZINC19220206
REMARK  6 active torsions:
REMARK  status: ('A' for Active; 'I' for Inactive)
REMARK    1  A    between atoms: C_1  and  C_2
REMARK    2  A    between atoms: C_8  and  C_31
REMARK    3  A    between atoms: C_9  and  C_12
REMARK    4  A    between atoms: C_19  and  C_21
REMARK    5  A    between atoms: C_21  and  C_22
REMARK    6  A    between atoms: N_29  and  C_30
REMARK                            x       y       z     vdW  Elec       q    Type
REMARK                         _______ _______ _______ _____ _____    ______ ____
ROOT
ATOM      1  C   UNL     1      -1.563   8.716   1.798  0.00  0.00    +0.054 C 
ATOM      2  C   UNL     1      -1.290   9.412   0.463  0.00  0.00    +0.013 C 
ATOM      3  C   UNL     1      -0.783   8.387  -0.555  0.00  0.00    +0.020 C 
ATOM      4  C   UNL     1      -1.859   7.319  -0.777  0.00  0.00    +0.108 C 
ATOM      5  N   UNL     1      -2.232   6.746   0.523  0.00  0.00    -0.301 N 
ATOM      6  C   UNL     1      -2.653   7.652   1.600  0.00  0.00    +0.117 C 
ATOM      7  C   UNL     1      -2.194   5.413   0.722  0.00  0.00    +0.214 C 
ATOM      8  O   UNL     1      -2.504   4.952   1.800  0.00  0.00    -0.276 OA
ENDROOT
BRANCH   1  17
ATOM      9  C   UNL     1      -2.886  13.431   7.492  0.00  0.00    +0.044 C 
ATOM     10  C   UNL     1      -3.016  12.686   6.189  0.00  0.00    -0.050 A 
ATOM     11  C   UNL     1      -4.082  12.958   5.343  0.00  0.00    +0.005 A 
ATOM     12  C   UNL     1      -4.219  12.287   4.148  0.00  0.00    +0.026 A 
ATOM     13  C   UNL     1      -3.280  11.326   3.783  0.00  0.00    +0.047 A 
ATOM     14  C   UNL     1      -2.203  11.056   4.644  0.00  0.00    +0.008 A 
ATOM     15  C   UNL     1      -2.083  11.746   5.849  0.00  0.00    +0.014 A 
ATOM     16  C   UNL     1      -1.406  10.011   3.980  0.00  0.00    +0.011 A 
ATOM     17  C   UNL     1      -2.030   9.732   2.808  0.00  0.00    +0.029 A 
ATOM     18  N   UNL     1      -3.141  10.512   2.680  0.00  0.00    -0.357 N 
ATOM     19  H   UNL     1      -3.877  10.560   1.864  0.00  0.00    +0.166 HD
BRANCH  16  20
ATOM     20  C   UNL     1      -0.165   9.387   4.492  0.00  0.00    -0.013 A 
ATOM     21  C   UNL     1      -0.129   8.029   4.827  0.00  0.00    +0.028 A 
ATOM     22  C   UNL     1       1.049   7.487   5.295  0.00  0.00    +0.111 A 
ATOM     23  N   UNL     1       2.129   8.232   5.437  0.00  0.00    -0.263 NA
ATOM     24  C   UNL     1       2.136   9.518   5.137  0.00  0.00    +0.111 A 
ATOM     25  C   UNL     1       1.003  10.139   4.658  0.00  0.00    +0.028 A 
ENDBRANCH  16  20
ENDBRANCH   1  17
BRANCH   7  26
ATOM     26  C   UNL     1      -1.765   4.497  -0.395  0.00  0.00    +0.090 C 
BRANCH  26  27
ATOM     27  C   UNL     1      -1.684   3.061   0.126  0.00  0.00    +0.028 C 
ATOM     28  C   UNL     1      -0.652   2.984   1.216  0.00  0.00    +0.200 C 
ATOM     29  O   UNL     1       0.399   3.570   1.064  0.00  0.00    -0.278 OA
ATOM     30  N   UNL     1      -0.845   2.297   2.347  0.00  0.00    -0.318 N 
ATOM     31  C   UNL     1      -2.086   1.587   2.643  0.00  0.00    +0.085 C 
ATOM     32  C   UNL     1      -2.883   1.371   1.356  0.00  0.00    -0.059 C 
ATOM     33  N   UNL     1      -2.996   2.656   0.648  0.00  0.00    +0.387 N 
ATOM     34  C   UNL     1      -3.990   2.578  -0.431  0.00  0.00    -0.095 C 
ATOM     35  H   UNL     1      -0.016   2.281   3.071  0.00  0.00    +0.149 HD
ATOM     36  H   UNL     1      -3.340   3.421   1.360  0.00  0.00    -0.081 HD
ENDBRANCH  26  27
ENDBRANCH   7  26
TORSDOF 4
