REMARK  Name = ZINC08789275
REMARK  6 active torsions:
REMARK  status: ('A' for Active; 'I' for Inactive)
REMARK    1  A    between atoms: C_1  and  C_2
REMARK    2  A    between atoms: N_9  and  C_10
REMARK    3  A    between atoms: C_13  and  O_16
REMARK    4  A    between atoms: O_16  and  C_17
REMARK    5  A    between atoms: C_17  and  C_19
REMARK    6  A    between atoms: C_27  and  C_29
REMARK                            x       y       z     vdW  Elec       q    Type
REMARK                         _______ _______ _______ _____ _____    ______ ____
ROOT
ATOM      1  C   UNL     1       3.545 -13.337  -1.151  0.00  0.00    +0.044 C 
ATOM      2  C   UNL     1       2.286 -12.508  -1.129  0.00  0.00    -0.050 A 
ATOM      3  C   UNL     1       1.056 -13.115  -1.327  0.00  0.00    +0.007 A 
ATOM      4  C   UNL     1      -0.106 -12.372  -1.310  0.00  0.00    +0.047 A 
ATOM      5  C   UNL     1      -0.049 -11.002  -1.092  0.00  0.00    +0.138 A 
ATOM      6  C   UNL     1       1.196 -10.389  -0.892  0.00  0.00    +0.041 A 
ATOM      7  C   UNL     1       2.363 -11.148  -0.912  0.00  0.00    +0.017 A 
ATOM      8  C   UNL     1       1.233  -8.928  -0.663  0.00  0.00    +0.054 A 
ATOM      9  N   UNL     1       2.376  -8.290  -0.467  0.00  0.00    -0.354 N 
ATOM     10  C   UNL     1      -0.009  -8.237  -0.655  0.00  0.00    +0.073 A 
ATOM     11  C   UNL     1      -1.157  -8.928  -0.863  0.00  0.00    +0.138 A 
ATOM     12  O   UNL     1      -1.176 -10.256  -1.071  0.00  0.00    -0.455 OA
ATOM     13  H   UNL     1       3.315  -8.858  -0.381  0.00  0.00    +0.166 HD
ENDROOT
BRANCH   9  14
ATOM     14  C   UNL     1       2.391  -6.929  -0.373  0.00  0.00    +0.040 A 
ATOM     15  C   UNL     1       2.338  -6.311   0.880  0.00  0.00    +0.029 A 
ATOM     16  C   UNL     1       2.353  -4.936   0.970  0.00  0.00    +0.048 A 
ATOM     17  C   UNL     1       2.422  -4.164  -0.182  0.00  0.00    +0.132 A 
ATOM     18  C   UNL     1       2.469  -4.772  -1.430  0.00  0.00    +0.048 A 
ATOM     19  C   UNL     1       2.460  -6.146  -1.530  0.00  0.00    +0.029 A 
BRANCH  17  20
ATOM     20  O   UNL     1       2.437  -2.808  -0.089  0.00  0.00    -0.422 OA
BRANCH  20  21
ATOM     21  C   UNL     1       3.596  -2.233   0.286  0.00  0.00    +0.344 C 
ATOM     22  O   UNL     1       4.540  -2.926   0.610  0.00  0.00    -0.245 OA
BRANCH  21  23
ATOM     23  C   UNL     1       3.719  -0.762   0.304  0.00  0.00    +0.060 A 
ATOM     24  C   UNL     1       4.920  -0.163   0.693  0.00  0.00    +0.015 A 
ATOM     25  C   UNL     1       5.029   1.212   0.707  0.00  0.00    +0.002 A 
ATOM     26  C   UNL     1       3.952   1.998   0.338  0.00  0.00    +0.015 A 
ATOM     27  C   UNL     1       2.759   1.412  -0.048  0.00  0.00    +0.019 A 
ATOM     28  C   UNL     1       2.636   0.037  -0.067  0.00  0.00    +0.030 A 
ATOM     29 BR   UNL     1       1.293   2.497  -0.550  0.00  0.00    -0.050 Br
ENDBRANCH  21  23
ENDBRANCH  20  21
ENDBRANCH  17  20
ENDBRANCH   9  14
BRANCH  11  30
ATOM     30  C   UNL     1      -2.438  -8.194  -0.856  0.00  0.00    +0.017 A 
ATOM     31  C   UNL     1      -2.455  -6.814  -0.637  0.00  0.00    +0.011 A 
ATOM     32  C   UNL     1      -3.654  -6.134  -0.636  0.00  0.00    +0.001 A 
ATOM     33  C   UNL     1      -4.841  -6.816  -0.841  0.00  0.00    +0.000 A 
ATOM     34  C   UNL     1      -4.832  -8.183  -1.054  0.00  0.00    +0.001 A 
ATOM     35  C   UNL     1      -3.639  -8.876  -1.062  0.00  0.00    +0.011 A 
ENDBRANCH  11  30
TORSDOF 5
