REMARK  Name = ZINC63405938
REMARK  10 active torsions:
REMARK  status: ('A' for Active; 'I' for Inactive)
REMARK    1  A    between atoms: C_1  and  C_2
REMARK    2  A    between atoms: C_3  and  C_10
REMARK    3  A    between atoms: C_4  and  C_8
REMARK    4  A    between atoms: C_4  and  C_9
REMARK    5  A    between atoms: C_10  and  C_11
REMARK    6  A    between atoms: C_12  and  C_13
REMARK    7  A    between atoms: C_12  and  C_14
REMARK    8  A    between atoms: N_15  and  N_16
REMARK    9  A    between atoms: C_17  and  C_19
REMARK   10  A    between atoms: C_21  and  C_30
REMARK                            x       y       z     vdW  Elec       q    Type
REMARK                         _______ _______ _______ _____ _____    ______ ____
ROOT
ATOM      1  N   UNL     1      -4.784   0.675  -4.768  0.00  0.00    -0.205 N 
ATOM      2  C   UNL     1      -5.834   0.547  -5.604  0.00  0.00    +0.259 C 
ATOM      3  O   UNL     1      -6.952   0.404  -5.156  0.00  0.00    -0.271 OA
ATOM      4  H   UNL     1      -3.901   0.859  -5.123  0.00  0.00    +0.177 HD
ENDROOT
BRANCH   2   5
ATOM      5  C   UNL     1      -5.619   0.583  -7.095  0.00  0.00    +0.199 C 
ATOM      6  C   UNL     1      -5.653   2.011  -7.592  0.00  0.00    -0.000 C 
ATOM      7  C   UNL     1      -6.706   2.069  -8.489  0.00  0.00    +0.005 A 
ATOM      8  C   UNL     1      -7.236   3.121  -9.276  0.00  0.00    +0.025 A 
ATOM      9  C   UNL     1      -8.298   2.886 -10.084  0.00  0.00    +0.019 A 
ATOM     10  C   UNL     1      -8.894   1.622 -10.166  0.00  0.00    +0.017 A 
ATOM     11  C   UNL     1      -8.442   0.570  -9.445  0.00  0.00    +0.027 A 
ATOM     12  C   UNL     1      -7.331   0.735  -8.573  0.00  0.00    +0.044 A 
ATOM     13  N   UNL     1      -6.713  -0.113  -7.780  0.00  0.00    -0.370 N 
ATOM     14 BR   UNL     1      -8.993   4.302 -11.127  0.00  0.00    -0.050 Br
ATOM     15  H   UNL     1      -6.943  -1.048  -7.666  0.00  0.00    +0.161 HD
BRANCH   6  16
ATOM     16  C   UNL     1      -4.760   3.104  -7.205  0.00  0.00    -0.019 A 
ATOM     17  C   UNL     1      -3.396   2.858  -6.988  0.00  0.00    +0.008 A 
ATOM     18  C   UNL     1      -2.563   3.893  -6.625  0.00  0.00    +0.001 A 
ATOM     19  C   UNL     1      -3.068   5.174  -6.473  0.00  0.00    +0.000 A 
ATOM     20  C   UNL     1      -4.414   5.427  -6.684  0.00  0.00    +0.001 A 
ATOM     21  C   UNL     1      -5.261   4.405  -7.054  0.00  0.00    +0.008 A 
ENDBRANCH   6  16
ENDBRANCH   2   5
BRANCH   1  23
ATOM     22  C   UNL     1      -3.957   0.665  -2.580  0.00  0.00    +0.133 C 
ATOM     23  N   UNL     1      -4.970   0.542  -3.386  0.00  0.00    -0.188 NA
BRANCH  22  25
ATOM     24  C   UNL     1      -3.115   0.651  -0.306  0.00  0.00    -0.018 C 
ATOM     25  C   UNL     1      -4.151   0.525  -1.132  0.00  0.00    -0.035 C 
ATOM     26  C   UNL     1      -5.524   0.239  -0.580  0.00  0.00    +0.045 C 
BRANCH  24  27
ATOM     27  C   UNL     1      -3.281   0.358   1.162  0.00  0.00    +0.058 C 
BRANCH  27  30
ATOM     28  C   UNL     1      -1.019   1.358   2.264  0.00  0.00    +0.039 C 
ATOM     29  C   UNL     1      -1.136  -0.138   2.126  0.00  0.00    -0.073 C 
ATOM     30  C   UNL     1      -2.220  -0.616   1.604  0.00  0.00    -0.061 C 
ATOM     31  C   UNL     1      -2.486  -2.080   1.411  0.00  0.00    -0.013 C 
ATOM     32  C   UNL     1      -1.179  -2.870   1.509  0.00  0.00    +0.011 C 
ATOM     33  C   UNL     1      -0.440  -2.432   2.780  0.00  0.00    +0.005 C 
ATOM     34  C   UNL     1       0.013  -0.981   2.596  0.00  0.00    +0.030 C 
ATOM     35  C   UNL     1      -3.113  -2.305   0.034  0.00  0.00    +0.015 C 
ATOM     36  C   UNL     1      -3.454  -2.567   2.492  0.00  0.00    +0.015 C 
ENDBRANCH  27  30
ENDBRANCH  24  27
ENDBRANCH  22  25
ENDBRANCH   1  23
TORSDOF 6
