REMARK  Name = ZINC36143481
REMARK  14 active torsions:
REMARK  status: ('A' for Active; 'I' for Inactive)
REMARK    1  A    between atoms: C_1  and  C_2
REMARK    2  A    between atoms: C_2  and  O_3
REMARK    3  A    between atoms: O_3  and  C_4
REMARK    4  A    between atoms: C_4  and  C_6
REMARK    5  A    between atoms: C_8  and  C_33
REMARK    6  A    between atoms: C_10  and  C_28
REMARK    7  A    between atoms: C_12  and  C_26
REMARK    8  A    between atoms: C_12  and  O_27
REMARK    9  A    between atoms: N_15  and  N_16
REMARK   10  A    between atoms: N_16  and  C_17
REMARK   11  A    between atoms: C_20  and  N_23
REMARK   12  A    between atoms: C_28  and  O_30
REMARK   13  A    between atoms: O_30  and  C_31
REMARK   14  A    between atoms: C_31  and  C_32
REMARK                            x       y       z     vdW  Elec       q    Type
REMARK                         _______ _______ _______ _____ _____    ______ ____
ROOT
ATOM      1  C   UNL     1      -2.879  -2.428   0.015  0.00  0.00    +0.152 C 
ATOM      2  C   UNL     1      -2.773  -3.956  -0.005  0.00  0.00    +0.055 C 
ATOM      3  C   UNL     1      -4.171  -4.561  -0.142  0.00  0.00    +0.138 C 
ATOM      4  C   UNL     1      -4.783  -4.153  -1.484  0.00  0.00    +0.082 C 
ATOM      5  C   UNL     1      -4.965  -2.632  -1.519  0.00  0.00    +0.088 C 
ATOM      6  C   UNL     1      -3.634  -1.978  -1.215  0.00  0.00    +0.054 C 
ATOM      7  N   UNL     1      -3.158  -1.070  -1.982  0.00  0.00    -0.190 NA
ATOM      8  C   UNL     1      -3.853  -4.582  -2.620  0.00  0.00    +0.042 C 
ENDROOT
BRANCH   2   9
ATOM      9  C   UNL     1      -2.142  -4.433   1.278  0.00  0.00    -0.039 A 
ATOM     10  C   UNL     1      -2.752  -4.161   2.489  0.00  0.00    +0.008 A 
ATOM     11  C   UNL     1      -2.177  -4.597   3.668  0.00  0.00    +0.050 A 
ATOM     12  C   UNL     1      -0.989  -5.308   3.639  0.00  0.00    +0.166 A 
ATOM     13  C   UNL     1      -0.375  -5.583   2.420  0.00  0.00    +0.166 A 
ATOM     14  C   UNL     1      -0.959  -5.147   1.241  0.00  0.00    +0.053 A 
ATOM     15  O   UNL     1       0.770  -6.288   2.656  0.00  0.00    -0.453 OA
ATOM     16  C   UNL     1       1.062  -6.089   4.052  0.00  0.00    +0.466 C 
ATOM     17  O   UNL     1      -0.229  -5.842   4.640  0.00  0.00    -0.453 OA
ENDBRANCH   2   9
BRANCH   1  18
ATOM     18  C   UNL     1      -1.498  -1.824   0.011  0.00  0.00    +0.316 C 
ATOM     19  O   UNL     1      -0.526  -2.541   0.000  0.00  0.00    -0.250 OA
BRANCH  18  20
ATOM     20  O   UNL     1      -1.349  -0.490   0.019  0.00  0.00    -0.464 OA
BRANCH  20  22
ATOM     21  C   UNL     1      -0.042   1.542   0.025  0.00  0.00    +0.048 C 
ATOM     22  C   UNL     1      -0.011   0.013   0.014  0.00  0.00    +0.229 C 
ENDBRANCH  20  22
ENDBRANCH  18  20
ENDBRANCH   1  18
BRANCH   7  23
ATOM     23  N   UNL     1      -3.822  -0.738  -3.171  0.00  0.00    -0.238 N 
ATOM     24  H   UNL     1      -4.681  -1.139  -3.375  0.00  0.00    +0.174 HD
BRANCH  23  25
ATOM     25  C   UNL     1      -3.247   0.172  -4.060  0.00  0.00    +0.048 A 
ATOM     26  C   UNL     1      -2.014   0.744  -3.772  0.00  0.00    +0.027 A 
ATOM     27  C   UNL     1      -1.449   1.643  -4.655  0.00  0.00    +0.034 A 
ATOM     28  C   UNL     1      -2.108   1.973  -5.825  0.00  0.00    +0.126 A 
ATOM     29  C   UNL     1      -3.335   1.406  -6.115  0.00  0.00    +0.034 A 
ATOM     30  C   UNL     1      -3.904   0.502  -5.239  0.00  0.00    +0.027 A 
BRANCH  28  31
ATOM     31  N   UNL     1      -1.498   2.937  -6.769  0.00  0.00    +0.056 N 
ATOM     32  O   UNL     1      -0.425   3.434  -6.516  0.00  0.00    -0.126 OA
ATOM     33  O   UNL     1      -2.073   3.227  -7.792  0.00  0.00    -0.126 OA
ENDBRANCH  28  31
ENDBRANCH  23  25
ENDBRANCH   7  23
BRANCH   4  34
ATOM     34  O   UNL     1      -6.053  -4.789  -1.641  0.00  0.00    -0.388 OA
ATOM     35  H   UNL     1      -6.500  -4.575  -2.472  0.00  0.00    +0.210 HD
ENDBRANCH   4  34
BRANCH   3  36
ATOM     36  C   UNL     1      -4.076  -6.063  -0.073  0.00  0.00    +0.314 C 
ATOM     37  O   UNL     1      -3.000  -6.595   0.071  0.00  0.00    -0.250 OA
BRANCH  36  38
ATOM     38  O   UNL     1      -5.186  -6.811  -0.172  0.00  0.00    -0.465 OA
BRANCH  38  39
ATOM     39  C   UNL     1      -5.022  -8.229  -0.098  0.00  0.00    +0.229 C 
ATOM     40  C   UNL     1      -6.387  -8.908  -0.229  0.00  0.00    +0.048 C 
ENDBRANCH  38  39
ENDBRANCH  36  38
ENDBRANCH   3  36
TORSDOF 11
