REMARK  Name = ZINC59891344
REMARK  9 active torsions:
REMARK  status: ('A' for Active; 'I' for Inactive)
REMARK    1  A    between atoms: C_1  and  C_2
REMARK    2  A    between atoms: C_7  and  C_9
REMARK    3  A    between atoms: C_7  and  N_31
REMARK    4  A    between atoms: C_9  and  N_10
REMARK    5  A    between atoms: C_11  and  C_13
REMARK    6  A    between atoms: C_16  and  C_19
REMARK    7  A    between atoms: C_19  and  N_20
REMARK    8  A    between atoms: N_31  and  C_32
REMARK    9  A    between atoms: N_31  and  C_33
REMARK                            x       y       z     vdW  Elec       q    Type
REMARK                         _______ _______ _______ _____ _____    ______ ____
ROOT
ATOM      1  C   UNL     1       2.724  -6.053  -0.938  0.00  0.00    +0.037 A 
ATOM      2  C   UNL     1       1.916  -6.856  -0.132  0.00  0.00    +0.013 A 
ATOM      3  C   UNL     1       1.959  -8.228  -0.267  0.00  0.00    +0.006 A 
ATOM      4  C   UNL     1       2.801  -8.808  -1.199  0.00  0.00    -0.030 A 
ATOM      5  C   UNL     1       3.605  -8.018  -2.001  0.00  0.00    +0.006 A 
ATOM      6  C   UNL     1       3.567  -6.644  -1.880  0.00  0.00    +0.013 A 
ENDROOT
BRANCH   1   8
ATOM      7  N   UNL     1       1.867  -4.013   0.111  0.00  0.00    -0.313 N 
ATOM      8  C   UNL     1       2.682  -4.581  -0.799  0.00  0.00    +0.244 C 
ATOM      9  O   UNL     1       3.383  -3.884  -1.506  0.00  0.00    -0.270 OA
ATOM     10  H   UNL     1       1.308  -4.569   0.676  0.00  0.00    +0.149 HD
BRANCH   7  11
ATOM     11  C   UNL     1       1.826  -2.555   0.249  0.00  0.00    +0.092 C 
BRANCH  11  17
ATOM     12  C   UNL     1       3.110  -2.682   4.380  0.00  0.00    +0.007 C 
ATOM     13  C   UNL     1       2.646  -2.132   3.030  0.00  0.00    -0.015 C 
ATOM     14  C   UNL     1       2.536  -0.608   3.111  0.00  0.00    +0.003 C 
ATOM     15  C   UNL     1       2.072  -0.058   1.761  0.00  0.00    -0.001 C 
ATOM     16  C   UNL     1       0.705  -0.649   1.412  0.00  0.00    -0.010 C 
ATOM     17  C   UNL     1       0.814  -2.173   1.331  0.00  0.00    -0.050 C 
ATOM     18  C   UNL     1       1.279  -2.724   2.681  0.00  0.00    -0.007 C 
BRANCH  17  19
ATOM     19  N   UNL     1      -0.498  -2.741   0.996  0.00  0.00    +0.381 N 
ATOM     20  C   UNL     1      -1.487  -2.311   1.994  0.00  0.00    -0.096 C 
ATOM     21  C   UNL     1      -0.910  -2.273  -0.334  0.00  0.00    -0.096 C 
ATOM     22  H   UNL     1      -0.439  -3.748   0.995  0.00  0.00    -0.082 HD
ENDBRANCH  17  19
ENDBRANCH  11  17
ENDBRANCH   7  11
ENDBRANCH   1   8
BRANCH   4  23
ATOM     23  C   UNL     1       2.843 -10.308  -1.340  0.00  0.00    +0.152 C 
BRANCH  23  24
ATOM     24  N   UNL     1       1.852 -10.733  -2.332  0.00  0.00    -0.230 N 
ATOM     25  C   UNL     1       0.575 -11.045  -2.047  0.00  0.00    +0.254 C 
ATOM     26  O   UNL     1       0.069 -11.021  -0.943  0.00  0.00    -0.270 OA
ATOM     27  C   UNL     1      -0.109 -11.423  -3.301  0.00  0.00    +0.049 A 
ATOM     28  C   UNL     1      -1.396 -11.829  -3.618  0.00  0.00    +0.014 A 
ATOM     29  C   UNL     1      -1.722 -12.116  -4.934  0.00  0.00    +0.001 A 
ATOM     30  C   UNL     1      -0.772 -12.002  -5.932  0.00  0.00    +0.001 A 
ATOM     31  C   UNL     1       0.519 -11.598  -5.630  0.00  0.00    +0.014 A 
ATOM     32  C   UNL     1       0.859 -11.307  -4.319  0.00  0.00    +0.049 A 
ATOM     33  C   UNL     1       2.098 -10.857  -3.649  0.00  0.00    +0.254 C 
ATOM     34  O   UNL     1       3.160 -10.637  -4.196  0.00  0.00    -0.270 OA
ENDBRANCH  23  24
ENDBRANCH   4  23
TORSDOF 6
