REMARK  Name = ZINC33140373
REMARK  5 active torsions:
REMARK  status: ('A' for Active; 'I' for Inactive)
REMARK    1  A    between atoms: C_1  and  C_2
REMARK    2  A    between atoms: C_5  and  C_36
REMARK    3  A    between atoms: C_6  and  N_8
REMARK    4  A    between atoms: C_16  and  C_24
REMARK    5  A    between atoms: C_26  and  C_29
REMARK                            x       y       z     vdW  Elec       q    Type
REMARK                         _______ _______ _______ _____ _____    ______ ____
ROOT
ATOM      1  N   UNL     1       2.353   3.888   0.001  0.00  0.00    -0.327 N 
ATOM      2  C   UNL     1       2.506   4.671   1.235  0.00  0.00    +0.124 C 
ATOM      3  C   UNL     1       3.863   5.378   1.223  0.00  0.00    +0.125 C 
ATOM      4  N   UNL     1       3.952   6.243   0.039  0.00  0.00    -0.314 N 
ATOM      5  C   UNL     1       3.800   5.460  -1.195  0.00  0.00    +0.125 C 
ATOM      6  C   UNL     1       2.442   4.753  -1.183  0.00  0.00    +0.124 C 
ATOM      7  C   UNL     1       5.143   6.955   0.032  0.00  0.00    +0.100 A 
ATOM      8  C   UNL     1       5.452   7.765   1.131  0.00  0.00    +0.055 A 
ATOM      9  C   UNL     1       6.642   8.479   1.141  0.00  0.00    +0.052 A 
ATOM     10  C   UNL     1       7.513   8.347  -0.029  0.00  0.00    +0.011 A 
ATOM     11  C   UNL     1       8.729   9.032  -0.115  0.00  0.00    +0.011 A 
ATOM     12  C   UNL     1       9.510   8.881  -1.223  0.00  0.00    +0.001 A 
ATOM     13  C   UNL     1       9.110   8.054  -2.269  0.00  0.00    +0.002 A 
ATOM     14  C   UNL     1       7.932   7.373  -2.216  0.00  0.00    +0.026 A 
ATOM     15  C   UNL     1       7.101   7.505  -1.090  0.00  0.00    +0.048 A 
ATOM     16  N   UNL     1       5.938   6.850  -1.010  0.00  0.00    -0.343 N 
ATOM     17  H   UNL     1       5.655   6.206  -1.855  0.00  0.00    +0.167 HD
ENDROOT
BRANCH   1  23
ATOM     18  C   UNL     1      -2.561   3.863   0.047  0.00  0.00    +0.044 C 
ATOM     19  C   UNL     1      -1.243   3.133   0.031  0.00  0.00    -0.049 A 
ATOM     20  C   UNL     1      -1.220   1.750   0.017  0.00  0.00    +0.004 A 
ATOM     21  C   UNL     1      -0.013   1.076   0.008  0.00  0.00    +0.005 A 
ATOM     22  C   UNL     1       1.175   1.782   0.000  0.00  0.00    -0.029 A 
ATOM     23  C   UNL     1       1.155   3.171   0.008  0.00  0.00    +0.033 A 
ATOM     24  C   UNL     1      -0.060   3.845   0.023  0.00  0.00    +0.026 A 
ATOM     25  C   UNL     1       2.490   1.046  -0.017  0.00  0.00    +0.045 C 
ENDBRANCH   1  23
BRANCH   9  26
ATOM     26  C   UNL     1       7.012   9.341   2.281  0.00  0.00    +0.259 A 
ATOM     27  N   UNL     1       6.309   9.535   3.381  0.00  0.00    -0.187 NA
ATOM     28  C   UNL     1       7.036  10.392   4.128  0.00  0.00    +0.202 A 
ATOM     29  N   UNL     1       8.123  10.670   3.456  0.00  0.00    -0.056 NA
ATOM     30  O   UNL     1       8.130  10.074   2.400  0.00  0.00    -0.332 OA
BRANCH  28  31
ATOM     31  C   UNL     1       6.669  10.921   5.465  0.00  0.00    +0.023 A 
ATOM     32  C   UNL     1       5.469  10.541   6.062  0.00  0.00    +0.013 A 
ATOM     33  C   UNL     1       5.134  11.033   7.307  0.00  0.00    +0.021 A 
ATOM     34  C   UNL     1       5.984  11.911   7.959  0.00  0.00    +0.041 A 
ATOM     35  C   UNL     1       7.175  12.295   7.367  0.00  0.00    +0.021 A 
ATOM     36  C   UNL     1       7.521  11.805   6.125  0.00  0.00    +0.013 A 
ATOM     37 CL   UNL     1       5.554  12.531   9.522  0.00  0.00    -0.084 Cl
ENDBRANCH  28  31
ENDBRANCH   9  26
TORSDOF 3
