REMARK  Name = ZINC20158060
REMARK  8 active torsions:
REMARK  status: ('A' for Active; 'I' for Inactive)
REMARK    1  A    between atoms: C_1  and  C_2
REMARK    2  A    between atoms: C_2  and  C_18
REMARK    3  A    between atoms: N_3  and  N_4
REMARK    4  A    between atoms: C_5  and  C_7
REMARK    5  A    between atoms: C_7  and  C_8
REMARK    6  A    between atoms: C_23  and  N_24
REMARK    7  A    between atoms: C_25  and  C_27
REMARK    8  A    between atoms: C_33  and  C_35
REMARK                            x       y       z     vdW  Elec       q    Type
REMARK                         _______ _______ _______ _____ _____    ______ ____
ROOT
ATOM      1  C   UNL     1      -4.141   1.411   2.670  0.00  0.00    +0.022 A 
ATOM      2  C   UNL     1      -4.848   1.893   3.775  0.00  0.00    +0.061 A 
ATOM      3  C   UNL     1      -4.243   2.772   4.652  0.00  0.00    +0.167 A 
ATOM      4  C   UNL     1      -2.926   3.182   4.436  0.00  0.00    +0.168 A 
ATOM      5  C   UNL     1      -2.218   2.704   3.344  0.00  0.00    +0.073 A 
ATOM      6  C   UNL     1      -2.817   1.825   2.456  0.00  0.00    +0.046 A 
ATOM      7  O   UNL     1      -2.569   4.042   5.434  0.00  0.00    -0.453 OA
ATOM      8  C   UNL     1      -3.533   3.836   6.483  0.00  0.00    +0.466 C 
ATOM      9  O   UNL     1      -4.706   3.377   5.786  0.00  0.00    -0.453 OA
ENDROOT
BRANCH   6  10
ATOM     10  N   UNL     1      -2.103   1.347   1.353  0.00  0.00    -0.285 N 
ATOM     11  C   UNL     1      -1.344   2.191   0.626  0.00  0.00    +0.221 C 
ATOM     12  O   UNL     1      -1.204   3.342   0.982  0.00  0.00    -0.275 OA
ATOM     13  H   UNL     1      -2.162   0.284   1.079  0.00  0.00    +0.155 HD
BRANCH  11  14
ATOM     14  C   UNL     1      -0.667   1.703  -0.629  0.00  0.00    +0.093 C 
ATOM     15  C   UNL     1      -0.940   2.677  -1.777  0.00  0.00    +0.040 C 
ATOM     16  C   UNL     1      -0.198   3.962  -1.552  0.00  0.00    -0.030 C 
ATOM     17  C   UNL     1       0.789   4.094  -0.725  0.00  0.00    -0.030 C 
ATOM     18  C   UNL     1       1.323   2.983   0.132  0.00  0.00    +0.042 C 
ATOM     19  C   UNL     1       0.848   1.631  -0.404  0.00  0.00    +0.118 C 
BRANCH  19  20
ATOM     20  C   UNL     1       1.160   0.551   0.601  0.00  0.00    +0.360 C 
ATOM     21  O   UNL     1       0.265  -0.097   1.089  0.00  0.00    -0.246 OA
ATOM     22  O   UNL     1       2.432   0.309   0.953  0.00  0.00    -0.246 OA
ENDBRANCH  19  20
ENDBRANCH  11  14
ENDBRANCH   6  10
BRANCH   1  24
ATOM     23  C   UNL     1      -6.179  -0.024   2.002  0.00  0.00    +0.068 C 
ATOM     24  C   UNL     1      -4.782   0.473   1.733  0.00  0.00    +0.065 C 
ATOM     25  N   UNL     1      -4.145   0.075   0.674  0.00  0.00    -0.184 NA
BRANCH  25  26
ATOM     26  N   UNL     1      -4.755  -0.817  -0.217  0.00  0.00    -0.207 N 
ATOM     27  C   UNL     1      -4.093  -1.231  -1.316  0.00  0.00    +0.233 C 
ATOM     28  O   UNL     1      -2.969  -0.831  -1.533  0.00  0.00    -0.274 OA
ATOM     29  H   UNL     1      -5.775  -1.180  -0.020  0.00  0.00    +0.177 HD
BRANCH  27  30
ATOM     30  C   UNL     1      -4.750  -2.190  -2.275  0.00  0.00    +0.104 C 
BRANCH  30  31
ATOM     31  C   UNL     1      -3.791  -2.496  -3.427  0.00  0.00    -0.020 C 
ATOM     32  C   UNL     1      -2.511  -3.125  -2.873  0.00  0.00    +0.011 C 
ATOM     33  C   UNL     1      -1.553  -3.430  -4.025  0.00  0.00    -0.010 C 
ATOM     34  C   UNL     1      -2.219  -4.404  -4.999  0.00  0.00    +0.007 C 
ATOM     35  C   UNL     1      -3.499  -3.776  -5.553  0.00  0.00    -0.010 C 
ATOM     36  C   UNL     1      -4.458  -3.470  -4.401  0.00  0.00    +0.011 C 
ATOM     37  C   UNL     1      -3.154  -2.478  -6.287  0.00  0.00    +0.007 C 
ATOM     38  C   UNL     1      -2.487  -1.504  -5.313  0.00  0.00    -0.010 C 
ATOM     39  C   UNL     1      -1.207  -2.133  -4.759  0.00  0.00    +0.007 C 
ATOM     40  C   UNL     1      -3.446  -1.198  -4.161  0.00  0.00    +0.011 C 
ENDBRANCH  30  31
ENDBRANCH  27  30
ENDBRANCH  25  26
ENDBRANCH   1  24
TORSDOF 7
