REMARK  Name = ZINC11471244
REMARK  10 active torsions:
REMARK  status: ('A' for Active; 'I' for Inactive)
REMARK    1  A    between atoms: C_1  and  C_2
REMARK    2  A    between atoms: C_2  and  C_4
REMARK    3  A    between atoms: C_2  and  O_16
REMARK    4  A    between atoms: N_6  and  C_7
REMARK    5  A    between atoms: C_11  and  N_13
REMARK    6  A    between atoms: O_16  and  C_17
REMARK    7  A    between atoms: C_17  and  C_19
REMARK    8  A    between atoms: C_20  and  C_21
REMARK    9  A    between atoms: C_26  and  O_27
REMARK   10  A    between atoms: O_27  and  C_28
REMARK                            x       y       z     vdW  Elec       q    Type
REMARK                         _______ _______ _______ _____ _____    ______ ____
ROOT
ATOM      1  C   UNL     1       0.397   7.825   1.569  0.00  0.00    +0.062 C 
ATOM      2  C   UNL     1       1.059   7.432   0.247  0.00  0.00    +0.259 C 
ENDROOT
BRANCH   2   3
ATOM      3  C   UNL     1       1.085   5.931   0.125  0.00  0.00    +0.258 C 
ATOM      4  O   UNL     1       2.146   5.342   0.112  0.00  0.00    -0.271 OA
ATOM      5  N   UNL     1      -0.069   5.242   0.030  0.00  0.00    -0.282 N 
ATOM      6  H   UNL     1      -0.913   5.715  -0.037  0.00  0.00    +0.155 HD
BRANCH   5   7
ATOM      7  C   UNL     1      -0.051   3.842   0.028  0.00  0.00    +0.036 A 
ATOM      8  C   UNL     1       0.907   3.158   0.766  0.00  0.00    +0.023 A 
ATOM      9  C   UNL     1       0.922   1.777   0.762  0.00  0.00    +0.004 A 
ATOM     10  C   UNL     1      -0.015   1.076   0.025  0.00  0.00    +0.033 A 
ATOM     11  C   UNL     1      -0.966   1.754  -0.714  0.00  0.00    +0.128 A 
ATOM     12  C   UNL     1      -0.990   3.135  -0.711  0.00  0.00    +0.056 A 
BRANCH  11  13
ATOM     13  N   UNL     1      -1.963   0.999  -1.506  0.00  0.00    +0.056 N 
ATOM     14  O   UNL     1      -1.945  -0.218  -1.506  0.00  0.00    -0.126 OA
ATOM     15  O   UNL     1      -2.801   1.596  -2.158  0.00  0.00    -0.126 OA
ENDBRANCH  11  13
ENDBRANCH   5   7
ENDBRANCH   2   3
BRANCH   2  16
ATOM     16  O   UNL     1       2.395   7.937   0.215  0.00  0.00    -0.449 OA
BRANCH  16  17
ATOM     17  C   UNL     1       2.572   9.172  -0.300  0.00  0.00    +0.333 C 
ATOM     18  O   UNL     1       1.616   9.802  -0.710  0.00  0.00    -0.246 OA
BRANCH  17  19
ATOM     19  C   UNL     1       3.872   9.734  -0.362  0.00  0.00    +0.092 C 
ATOM     20  C   UNL     1       4.048  10.971  -0.878  0.00  0.00    +0.018 C 
BRANCH  20  21
ATOM     21  C   UNL     1       5.395  11.554  -0.943  0.00  0.00    +0.018 A 
ATOM     22  C   UNL     1       6.498  10.832  -0.472  0.00  0.00    +0.026 A 
ATOM     23  C   UNL     1       7.759  11.386  -0.537  0.00  0.00    +0.019 A 
ATOM     24  C   UNL     1       7.939  12.655  -1.066  0.00  0.00    +0.019 A 
ATOM     25  C   UNL     1       6.859  13.378  -1.534  0.00  0.00    +0.047 A 
ATOM     26  C   UNL     1       5.585  12.836  -1.482  0.00  0.00    +0.127 A 
ATOM     27 BR   UNL     1       9.249  10.410   0.099  0.00  0.00    -0.050 Br
BRANCH  26  28
ATOM     28  O   UNL     1       4.524  13.543  -1.947  0.00  0.00    -0.495 OA
ATOM     29  C   UNL     1       4.794  14.841  -2.482  0.00  0.00    +0.277 C 
ENDBRANCH  26  28
ENDBRANCH  20  21
ENDBRANCH  17  19
ENDBRANCH  16  17
ENDBRANCH   2  16
TORSDOF 8
