REMARK  Name = ZINC62914495
REMARK  4 active torsions:
REMARK  status: ('A' for Active; 'I' for Inactive)
REMARK    1  A    between atoms: C_1  and  C_2
REMARK    2  A    between atoms: C_2  and  C_3
REMARK    3  A    between atoms: C_3  and  C_18
REMARK    4  A    between atoms: C_8  and  C_10
REMARK                            x       y       z     vdW  Elec       q    Type
REMARK                         _______ _______ _______ _____ _____    ______ ____
ROOT
ATOM      1  C   UNL     1       1.011  -0.585  -1.372  0.00  0.00    +0.089 C 
ATOM      2  C   UNL     1       0.892  -2.125  -1.435  0.00  0.00    +0.039 C 
ATOM      3  C   UNL     1      -0.394  -2.337  -2.272  0.00  0.00    +0.109 C 
ATOM      4  N   UNL     1      -0.324  -1.256  -3.282  0.00  0.00    -0.296 N 
ATOM      5  C   UNL     1       0.193  -0.072  -2.572  0.00  0.00    +0.126 C 
ATOM      6  C   UNL     1      -0.663  -1.339  -4.584  0.00  0.00    +0.247 C 
ATOM      7  O   UNL     1      -0.991  -2.407  -5.060  0.00  0.00    -0.270 OA
ENDROOT
BRANCH   6   8
ATOM      8  C   UNL     1      -0.635  -0.123  -5.437  0.00  0.00    +0.047 A 
ATOM      9  C   UNL     1       0.393   0.071  -6.361  0.00  0.00    +0.083 A 
ATOM     10  C   UNL     1       0.398   1.216  -7.147  0.00  0.00    +0.252 A 
ATOM     11  N   UNL     1      -0.583   2.138  -7.022  0.00  0.00    -0.290 N 
ATOM     12  C   UNL     1      -1.589   1.972  -6.134  0.00  0.00    +0.252 A 
ATOM     13  C   UNL     1      -1.639   0.841  -5.331  0.00  0.00    +0.083 A 
ATOM     14  O   UNL     1      -2.546   2.902  -6.033  0.00  0.00    -0.268 OA
ATOM     15  O   UNL     1       1.381   1.408  -8.036  0.00  0.00    -0.268 OA
ATOM     16  H   UNL     1      -0.564   2.933  -7.579  0.00  0.00    +0.172 HD
ENDBRANCH   6   8
BRANCH   1  17
ATOM     17  C   UNL     1       2.451  -0.163  -1.502  0.00  0.00    +0.364 C 
ATOM     18  O   UNL     1       2.977   0.493  -0.618  0.00  0.00    -0.246 OA
ATOM     19  O   UNL     1       3.092  -0.477  -2.490  0.00  0.00    -0.246 OA
ENDBRANCH   1  17
BRANCH   1  21
ATOM     20  C   UNL     1       0.481   1.470  -0.053  0.00  0.00    +0.005 C 
ATOM     21  C   UNL     1       0.420  -0.059  -0.062  0.00  0.00    +0.016 C 
ENDBRANCH   1  21
TORSDOF 3
