REMARK  Name = ZINC32796535
REMARK  3 active torsions:
REMARK  status: ('A' for Active; 'I' for Inactive)
REMARK    1  A    between atoms: N_8  and  C_11
REMARK    2  A    between atoms: C_11  and  C_12
REMARK    3  A    between atoms: C_17  and  C_20
REMARK                            x       y       z     vdW  Elec       q    Type
REMARK                         _______ _______ _______ _____ _____    ______ ____
ROOT
ATOM      1  C   UNL     1      -2.774   6.885   1.483  0.00  0.00    +0.240 C 
ATOM      2  O   UNL     1      -2.352   6.209   2.398  0.00  0.00    -0.273 OA
ATOM      3  N   UNL     1      -3.466   8.012   1.741  0.00  0.00    -0.263 N 
ATOM      4  C   UNL     1      -3.697   8.400   3.055  0.00  0.00    +0.165 A 
ATOM      5  N   UNL     1      -4.344   9.455   3.513  0.00  0.00    -0.225 NA
ATOM      6  C   UNL     1      -4.472   9.673   4.814  0.00  0.00    +0.080 A 
ATOM      7  C   UNL     1      -3.922   8.789   5.699  0.00  0.00    +0.076 A 
ATOM      8  S   UNL     1      -3.204   7.598   4.575  0.00  0.00    -0.060 S 
ATOM      9  H   UNL     1      -3.848   8.624   0.912  0.00  0.00    +0.157 HD
ENDROOT
BRANCH   6  10
ATOM     10  C   UNL     1      -5.204  10.866   5.304  0.00  0.00    +0.001 A 
ATOM     11  C   UNL     1      -5.341  11.088   6.673  0.00  0.00    +0.011 A 
ATOM     12  C   UNL     1      -6.019  12.202   7.125  0.00  0.00    +0.015 A 
ATOM     13  C   UNL     1      -6.572  13.092   6.220  0.00  0.00    +0.013 A 
ATOM     14  C   UNL     1      -6.443  12.873   4.860  0.00  0.00    +0.015 A 
ATOM     15  C   UNL     1      -5.763  11.765   4.398  0.00  0.00    +0.011 A 
ATOM     16  I   UNL     1      -7.608  14.776   6.913  0.00  0.00    -0.044 I 
ENDBRANCH   6  10
BRANCH   1  17
ATOM     17  C   UNL     1      -2.523   6.464   0.058  0.00  0.00    +0.245 C 
BRANCH  17  25
ATOM     18  C   UNL     1       1.203   1.791   0.000  0.00  0.00    +0.005 A 
ATOM     19  C   UNL     1      -0.013   1.076   0.008  0.00  0.00    +0.018 A 
ATOM     20  C   UNL     1      -1.189   1.726   0.017  0.00  0.00    +0.098 A 
ATOM     21  N   UNL     1      -1.232   3.100   0.030  0.00  0.00    -0.251 N 
ATOM     22  C   UNL     1      -0.056   3.827   0.022  0.00  0.00    +0.162 A 
ATOM     23  C   UNL     1       1.188   3.146   0.007  0.00  0.00    +0.049 A 
ATOM     24  N   UNL     1      -0.358   5.105   0.032  0.00  0.00    -0.148 NA
ATOM     25  N   UNL     1      -1.755   5.216   0.045  0.00  0.00    -0.203 N 
ATOM     26  C   UNL     1      -2.264   3.967   0.044  0.00  0.00    +0.351 A 
ATOM     27  O   UNL     1      -3.447   3.675   0.053  0.00  0.00    -0.244 OA
ENDBRANCH  17  25
ENDBRANCH   1  17
TORSDOF 3
