REMARK  Name = ZINC44960385
REMARK  12 active torsions:
REMARK  status: ('A' for Active; 'I' for Inactive)
REMARK    1  A    between atoms: C_1  and  C_2
REMARK    2  A    between atoms: C_9  and  C_10
REMARK    3  A    between atoms: C_9  and  C_11
REMARK    4  A    between atoms: C_13  and  N_15
REMARK    5  A    between atoms: C_16  and  C_18
REMARK    6  A    between atoms: N_24  and  C_25
REMARK    7  A    between atoms: C_25  and  C_26
REMARK    8  A    between atoms: C_28  and  C_34
REMARK    9  A    between atoms: C_31  and  O_32
REMARK   10  A    between atoms: O_32  and  C_33
REMARK   11  A    between atoms: C_34  and  C_35
REMARK   12  A    between atoms: C_34  and  C_36
REMARK                            x       y       z     vdW  Elec       q    Type
REMARK                         _______ _______ _______ _____ _____    ______ ____
ROOT
ATOM      1  C   UNL     1      -1.779   0.139   4.448  0.00  0.00    +0.020 C 
ATOM      2  C   UNL     1      -2.324  -1.291   4.438  0.00  0.00    -0.006 C 
ATOM      3  C   UNL     1      -3.439  -1.413   5.481  0.00  0.00    -0.003 C 
ATOM      4  C   UNL     1      -2.890  -1.010   6.852  0.00  0.00    -0.019 C 
ATOM      5  C   UNL     1      -2.323   0.409   6.772  0.00  0.00    -0.077 C 
ATOM      6  N   UNL     1      -1.244   0.453   5.778  0.00  0.00    +0.390 N 
ATOM      7  H   UNL     1      -0.535  -0.222   6.022  0.00  0.00    -0.080 HD
ENDROOT
BRANCH   1   9
ATOM      8  N   UNL     1      -0.980   0.594   2.152  0.00  0.00    -0.314 N 
ATOM      9  C   UNL     1      -0.680   0.263   3.423  0.00  0.00    +0.200 C 
ATOM     10  O   UNL     1       0.473   0.066   3.743  0.00  0.00    -0.278 OA
ATOM     11  H   UNL     1      -1.902   0.752   1.896  0.00  0.00    +0.149 HD
BRANCH   8  21
ATOM     12  C   UNL     1       0.037   3.099   0.353  0.00  0.00    +0.009 C 
ATOM     13  C   UNL     1      -0.370   1.655   0.043  0.00  0.00    +0.010 C 
ATOM     14  C   UNL     1       0.143   1.231  -1.333  0.00  0.00    -0.000 C 
ATOM     15  C   UNL     1      -0.436  -0.162  -1.687  0.00  0.00    +0.008 C 
ATOM     16  C   UNL     1       0.754  -0.694  -0.861  0.00  0.00    -0.003 C 
ATOM     17  C   UNL     1       1.511   0.547  -1.355  0.00  0.00    -0.029 C 
ATOM     18  C   UNL     1       2.082   0.377  -2.777  0.00  0.00    +0.011 C 
ATOM     19  C   UNL     1       2.575   1.087  -0.404  0.00  0.00    +0.011 C 
ATOM     20  C   UNL     1       0.447  -0.675   0.635  0.00  0.00    +0.026 C 
ATOM     21  C   UNL     1       0.096   0.716   1.148  0.00  0.00    +0.076 C 
ENDBRANCH   8  21
ENDBRANCH   1   9
BRANCH   6  22
ATOM     22  C   UNL     1      -0.651   1.797   5.761  0.00  0.00    -0.038 C 
BRANCH  22  23
ATOM     23  C   UNL     1       0.024   2.065   7.081  0.00  0.00    -0.022 A 
ATOM     24  C   UNL     1       1.378   1.829   7.226  0.00  0.00    +0.009 A 
ATOM     25  C   UNL     1       1.998   2.074   8.437  0.00  0.00    -0.044 A 
ATOM     26  C   UNL     1       1.266   2.556   9.506  0.00  0.00    +0.007 A 
ATOM     27  C   UNL     1      -0.088   2.794   9.367  0.00  0.00    +0.046 A 
ATOM     28  C   UNL     1      -0.712   2.554   8.151  0.00  0.00    +0.121 A 
BRANCH  25  29
ATOM     29  C   UNL     1       3.474   1.815   8.592  0.00  0.00    +0.013 C 
ATOM     30  C   UNL     1       4.184   3.117   8.970  0.00  0.00    +0.012 C 
ATOM     31  C   UNL     1       3.697   0.776   9.693  0.00  0.00    +0.012 C 
ENDBRANCH  25  29
BRANCH  28  32
ATOM     32  O   UNL     1      -2.042   2.792   8.009  0.00  0.00    -0.495 OA
ATOM     33  C   UNL     1      -2.736   3.295   9.153  0.00  0.00    +0.277 C 
ENDBRANCH  28  32
ENDBRANCH  22  23
ENDBRANCH   6  22
TORSDOF 6
