REMARK  Name = ZINC02254186
REMARK  8 active torsions:
REMARK  status: ('A' for Active; 'I' for Inactive)
REMARK    1  A    between atoms: C_1  and  O_2
REMARK    2  A    between atoms: O_2  and  C_3
REMARK    3  A    between atoms: C_6  and  C_11
REMARK    4  A    between atoms: C_8  and  O_9
REMARK    5  A    between atoms: O_9  and  C_10
REMARK    6  A    between atoms: C_25  and  S_37
REMARK    7  A    between atoms: C_28  and  C_30
REMARK    8  A    between atoms: S_37  and  C_38
REMARK                            x       y       z     vdW  Elec       q    Type
REMARK                         _______ _______ _______ _____ _____    ______ ____
ROOT
ATOM      1  C   UNL     1       2.507  -2.501  -4.386  0.00  0.00    +0.234 C 
ATOM      2  C   UNL     1       1.516  -2.628  -5.520  0.00  0.00    +0.025 C 
ATOM      3  C   UNL     1       1.394  -1.626  -6.394  0.00  0.00    +0.050 C 
ATOM      4  C   UNL     1       2.249  -0.428  -6.217  0.00  0.00    +0.038 A 
ATOM      5  C   UNL     1       1.954   0.775  -6.845  0.00  0.00    +0.013 A 
ATOM      6  C   UNL     1       2.783   1.864  -6.652  0.00  0.00    +0.001 A 
ATOM      7  C   UNL     1       3.898   1.759  -5.840  0.00  0.00    +0.004 A 
ATOM      8  C   UNL     1       4.198   0.564  -5.210  0.00  0.00    +0.046 A 
ATOM      9  C   UNL     1       3.377  -0.533  -5.393  0.00  0.00    +0.131 A 
ATOM     10  O   UNL     1       3.633  -1.721  -4.790  0.00  0.00    -0.479 OA
ATOM     11  N   UNL     1       0.496  -1.677  -7.466  0.00  0.00    -0.283 N 
ATOM     12  C   UNL     1      -0.060  -2.909  -7.773  0.00  0.00    +0.220 A 
ATOM     13  N   UNL     1      -0.719  -3.300  -8.829  0.00  0.00    -0.187 NA
ATOM     14  C   UNL     1      -1.060  -4.590  -8.690  0.00  0.00    +0.210 A 
ATOM     15  N   UNL     1      -0.616  -5.029  -7.532  0.00  0.00    -0.141 NA
ATOM     16  N   UNL     1       0.031  -3.957  -6.917  0.00  0.00    -0.220 N 
ATOM     17  C   UNL     1       0.693  -3.888  -5.619  0.00  0.00    +0.175 C 
ATOM     18  H   UNL     1       0.273  -0.882  -7.975  0.00  0.00    +0.155 HD
ENDROOT
BRANCH  17  19
ATOM     19  C   UNL     1      -0.347  -3.893  -4.528  0.00  0.00    +0.016 A 
ATOM     20  C   UNL     1      -1.291  -2.885  -4.468  0.00  0.00    +0.009 A 
ATOM     21  C   UNL     1      -2.244  -2.889  -3.468  0.00  0.00    +0.001 A 
ATOM     22  C   UNL     1      -2.255  -3.900  -2.526  0.00  0.00    +0.003 A 
ATOM     23  C   UNL     1      -1.313  -4.909  -2.583  0.00  0.00    +0.039 A 
ATOM     24  C   UNL     1      -0.360  -4.909  -3.589  0.00  0.00    +0.129 A 
ATOM     25  F   UNL     1       0.559  -5.898  -3.649  0.00  0.00    -0.205 F 
ENDBRANCH  17  19
BRANCH   1  29
ATOM     26  C   UNL     1       0.605  -0.618  -1.051  0.00  0.00    +0.162 A 
ATOM     27  C   UNL     1       0.866  -1.979  -1.026  0.00  0.00    +0.050 A 
ATOM     28  C   UNL     1       1.481  -2.585  -2.106  0.00  0.00    +0.011 A 
ATOM     29  C   UNL     1       1.837  -1.836  -3.212  0.00  0.00    +0.001 A 
ATOM     30  C   UNL     1       1.580  -0.478  -3.243  0.00  0.00    +0.057 A 
ATOM     31  C   UNL     1       0.959   0.135  -2.166  0.00  0.00    +0.162 A 
BRANCH  26  33
ATOM     32  C   UNL     1      -0.334  -0.856   1.121  0.00  0.00    +0.277 C 
ATOM     33  O   UNL     1       0.000  -0.021   0.011  0.00  0.00    -0.491 OA
ENDBRANCH  26  33
BRANCH  31  34
ATOM     34  O   UNL     1       0.700   1.469  -2.198  0.00  0.00    -0.491 OA
ATOM     35  C   UNL     1       1.090   2.178  -3.375  0.00  0.00    +0.277 C 
ENDBRANCH  31  34
ENDBRANCH   1  29
BRANCH  14  36
ATOM     36  S   UNL     1      -1.958  -5.543  -9.869  0.00  0.00    -0.088 S 
ATOM     37  C   UNL     1      -2.272  -4.380 -11.226  0.00  0.00    +0.093 C 
ENDBRANCH  14  36
TORSDOF 5
