REMARK  Name = ZINC10440126
REMARK  10 active torsions:
REMARK  status: ('A' for Active; 'I' for Inactive)
REMARK    1  A    between atoms: C_1  and  C_2
REMARK    2  A    between atoms: C_2  and  C_3
REMARK    3  A    between atoms: C_10  and  C_12
REMARK    4  A    between atoms: C_15  and  S_18
REMARK    5  A    between atoms: N_16  and  C_17
REMARK    6  A    between atoms: S_18  and  C_19
REMARK    7  A    between atoms: C_19  and  C_20
REMARK    8  A    between atoms: N_22  and  C_23
REMARK    9  A    between atoms: C_27  and  N_30
REMARK   10  A    between atoms: C_28  and  C_29
REMARK                            x       y       z     vdW  Elec       q    Type
REMARK                         _______ _______ _______ _____ _____    ______ ____
ROOT
ATOM      1  C   UNL     1       0.495   0.586   1.455  0.00  0.00    +0.171 A 
ATOM      2  N   UNL     1       0.254   1.878   1.423  0.00  0.00    -0.128 NA
ATOM      3  N   UNL     1      -1.000   2.086   1.240  0.00  0.00    -0.122 NA
ATOM      4  C   UNL     1      -1.638   0.942   1.137  0.00  0.00    +0.192 A 
ATOM      5  N   UNL     1      -0.711  -0.054   1.276  0.00  0.00    -0.305 N 
ATOM      6  C   UNL     1      -0.951  -1.498   1.236  0.00  0.00    +0.153 C 
ENDROOT
BRANCH   1  13
ATOM      7  C   UNL     1       6.533  -0.736   2.428  0.00  0.00    -0.007 C 
ATOM      8  C   UNL     1       6.336  -2.158   1.897  0.00  0.00    +0.009 C 
ATOM      9  C   UNL     1       4.963  -2.671   2.360  0.00  0.00    +0.043 C 
ATOM     10  C   UNL     1       3.947  -1.611   2.079  0.00  0.00    -0.006 A 
ATOM     11  C   UNL     1       4.176  -0.301   1.776  0.00  0.00    -0.036 A 
ATOM     12  C   UNL     1       3.057   0.493   1.554  0.00  0.00    +0.023 A 
ATOM     13  C   UNL     1       1.806  -0.056   1.646  0.00  0.00    +0.057 A 
ATOM     14  S   UNL     1       2.180  -1.751   2.067  0.00  0.00    -0.090 S 
ATOM     15  C   UNL     1       5.604   0.232   1.694  0.00  0.00    +0.039 C 
BRANCH   7  17
ATOM     16  C   UNL     1       8.217   1.062   2.846  0.00  0.00    +0.004 C 
ATOM     17  C   UNL     1       7.985  -0.308   2.206  0.00  0.00    +0.000 C 
ENDBRANCH   7  17
ENDBRANCH   1  13
BRANCH   4  18
ATOM     18  S   UNL     1      -3.367   0.730   0.873  0.00  0.00    -0.077 S 
BRANCH  18  19
ATOM     19  C   UNL     1      -3.889   2.461   0.797  0.00  0.00    +0.173 C 
BRANCH  19  20
ATOM     20  C   UNL     1      -5.377   2.529   0.571  0.00  0.00    +0.227 C 
ATOM     21  O   UNL     1      -6.022   1.506   0.470  0.00  0.00    -0.275 OA
ATOM     22  N   UNL     1      -5.991   3.725   0.480  0.00  0.00    -0.285 N 
ATOM     23  H   UNL     1      -5.490   4.541   0.634  0.00  0.00    +0.155 HD
BRANCH  22  24
ATOM     24  C   UNL     1      -7.353   3.790   0.163  0.00  0.00    +0.038 A 
ATOM     25  C   UNL     1      -7.976   2.712  -0.453  0.00  0.00    +0.024 A 
ATOM     26  C   UNL     1      -9.320   2.779  -0.765  0.00  0.00    +0.004 A 
ATOM     27  C   UNL     1     -10.045   3.918  -0.464  0.00  0.00    +0.033 A 
ATOM     28  C   UNL     1      -9.427   4.992   0.149  0.00  0.00    +0.131 A 
ATOM     29  C   UNL     1      -8.085   4.929   0.469  0.00  0.00    +0.001 A 
ATOM     30  C   UNL     1      -7.414   6.098   1.143  0.00  0.00    +0.048 C 
BRANCH  28  31
ATOM     31  N   UNL     1     -10.207   6.209   0.469  0.00  0.00    +0.057 N 
ATOM     32  O   UNL     1     -11.415   6.215   0.319  0.00  0.00    -0.126 OA
ATOM     33  O   UNL     1      -9.639   7.205   0.882  0.00  0.00    -0.126 OA
ENDBRANCH  28  31
ENDBRANCH  22  24
ENDBRANCH  19  20
ENDBRANCH  18  19
ENDBRANCH   4  18
TORSDOF 7
