REMARK  Name = ZINC03376554
REMARK  8 active torsions:
REMARK  status: ('A' for Active; 'I' for Inactive)
REMARK    1  A    between atoms: C_1  and  O_2
REMARK    2  A    between atoms: O_2  and  C_3
REMARK    3  A    between atoms: C_6  and  C_11
REMARK    4  A    between atoms: C_8  and  O_9
REMARK    5  A    between atoms: O_9  and  C_10
REMARK    6  A    between atoms: N_13  and  N_14
REMARK    7  A    between atoms: N_14  and  C_15
REMARK    8  A    between atoms: C_15  and  C_17
REMARK                            x       y       z     vdW  Elec       q    Type
REMARK                         _______ _______ _______ _____ _____    ______ ____
ROOT
ATOM      1  C   UNL     1      -1.308   2.114   0.020  0.00  0.00    +0.045 C 
ATOM      2  C   UNL     1      -2.455   1.431   0.021  0.00  0.00    +0.035 C 
ENDROOT
BRANCH   1   3
ATOM      3  C   UNL     1      -0.017   1.390   0.010  0.00  0.00    -0.001 A 
ATOM      4  C   UNL     1       1.182   2.102   0.002  0.00  0.00    +0.011 A 
ATOM      5  C   UNL     1       2.383   1.423  -0.011  0.00  0.00    +0.017 A 
ATOM      6  C   UNL     1       2.404   0.034  -0.018  0.00  0.00    +0.034 A 
ATOM      7  C   UNL     1       1.211  -0.687  -0.014  0.00  0.00    +0.046 A 
ATOM      8  C   UNL     1       0.002  -0.004   0.002  0.00  0.00    +0.034 A 
ATOM      9  N   UNL     1       1.193  -2.080  -0.033  0.00  0.00    -0.313 N 
ATOM     10  C   UNL     1       2.228  -2.895   0.418  0.00  0.00    +0.045 A 
ATOM     11  C   UNL     1       1.933  -4.193   0.822  0.00  0.00    +0.024 A 
ATOM     12  C   UNL     1       2.937  -5.030   1.270  0.00  0.00    +0.002 A 
ATOM     13  C   UNL     1       4.244  -4.583   1.320  0.00  0.00    +0.001 A 
ATOM     14  C   UNL     1       4.549  -3.294   0.923  0.00  0.00    +0.017 A 
ATOM     15  C   UNL     1       3.545  -2.448   0.473  0.00  0.00    +0.034 A 
ATOM     16  S   UNL     1       3.951  -0.808  -0.025  0.00  0.00    -0.086 S 
ATOM     17  H   UNL     1       0.401  -2.514  -0.386  0.00  0.00    +0.152 HD
ENDBRANCH   1   3
BRANCH   1  18
ATOM     18  N   UNL     1      -1.326   3.509   0.027  0.00  0.00    -0.264 N 
ATOM     19  H   UNL     1      -0.493   4.005   0.026  0.00  0.00    +0.170 HD
BRANCH  18  22
ATOM     20  C   UNL     1      -2.566   5.541   0.044  0.00  0.00    +0.260 C 
ATOM     21  O   UNL     1      -1.521   6.163   0.043  0.00  0.00    -0.269 OA
ATOM     22  N   UNL     1      -2.549   4.193   0.037  0.00  0.00    -0.232 N 
ATOM     23  H   UNL     1      -3.382   3.697   0.038  0.00  0.00    +0.173 HD
BRANCH  20  27
ATOM     24  C   UNL     1      -6.277   7.613   0.072  0.00  0.00    +0.162 A 
ATOM     25  C   UNL     1      -6.257   6.224   0.065  0.00  0.00    +0.050 A 
ATOM     26  C   UNL     1      -5.056   5.550   0.050  0.00  0.00    +0.017 A 
ATOM     27  C   UNL     1      -3.854   6.262   0.054  0.00  0.00    +0.042 A 
ATOM     28  C   UNL     1      -3.874   7.660   0.062  0.00  0.00    +0.062 A 
ATOM     29  C   UNL     1      -5.082   8.330   0.071  0.00  0.00    +0.162 A 
BRANCH  24  31
ATOM     30  C   UNL     1      -8.649   7.476   0.082  0.00  0.00    +0.277 C 
ATOM     31  O   UNL     1      -7.463   8.273   0.081  0.00  0.00    -0.491 OA
ENDBRANCH  24  31
BRANCH  29  32
ATOM     32  O   UNL     1      -5.104   9.690   0.079  0.00  0.00    -0.491 OA
ATOM     33  C   UNL     1      -3.842  10.360   0.077  0.00  0.00    +0.277 C 
ENDBRANCH  29  32
ENDBRANCH  20  27
ENDBRANCH  18  22
ENDBRANCH   1  18
TORSDOF 6
