REMARK  Name = ZINC39431134
REMARK  7 active torsions:
REMARK  status: ('A' for Active; 'I' for Inactive)
REMARK    1  A    between atoms: C_1  and  C_2
REMARK    2  A    between atoms: C_2  and  C_4
REMARK    3  A    between atoms: C_2  and  S_16
REMARK    4  A    between atoms: S_16  and  C_17
REMARK    5  A    between atoms: C_21  and  C_31
REMARK    6  A    between atoms: N_23  and  C_24
REMARK    7  A    between atoms: C_24  and  C_25
REMARK                            x       y       z     vdW  Elec       q    Type
REMARK                         _______ _______ _______ _____ _____    ______ ____
ROOT
ATOM      1  C   UNL     1      -0.166  -0.072   2.855  0.00  0.00    +0.257 C 
ATOM      2  N   UNL     1      -1.525  -0.605   2.704  0.00  0.00    -0.184 NA
ATOM      3  N   UNL     1      -2.374   0.263   2.933  0.00  0.00    -0.289 N 
ATOM      4  C   UNL     1      -1.744   1.543   3.281  0.00  0.00    +0.204 C 
ATOM      5  N   UNL     1      -0.331   1.404   2.839  0.00  0.00    -0.242 NA
ATOM      6  H   UNL     1      -3.332   0.117   2.889  0.00  0.00    +0.184 HD
ENDROOT
BRANCH   4   7
ATOM      7  C   UNL     1      -2.417   2.675   2.549  0.00  0.00    +0.026 A 
ATOM      8  C   UNL     1      -1.669   3.740   2.085  0.00  0.00    +0.010 A 
ATOM      9  C   UNL     1      -2.286   4.779   1.414  0.00  0.00    +0.001 A 
ATOM     10  C   UNL     1      -3.653   4.753   1.205  0.00  0.00    +0.003 A 
ATOM     11  C   UNL     1      -4.403   3.689   1.668  0.00  0.00    +0.039 A 
ATOM     12  C   UNL     1      -3.785   2.646   2.336  0.00  0.00    +0.130 A 
ATOM     13  F   UNL     1      -4.516   1.602   2.784  0.00  0.00    -0.205 F 
ENDBRANCH   4   7
BRANCH   1  14
ATOM     14  S   UNL     1       0.879  -0.605   1.472  0.00  0.00    -0.106 S 
BRANCH  14  16
ATOM     15  C   UNL     1      -0.019   1.526   0.010  0.00  0.00    +0.027 C 
ATOM     16  C   UNL     1       0.002  -0.004   0.002  0.00  0.00    +0.112 C 
BRANCH  16  17
ATOM     17  C   UNL     1       0.707  -0.490  -1.238  0.00  0.00    +0.123 A 
ATOM     18  N   UNL     1       0.263  -0.053  -2.445  0.00  0.00    -0.309 N 
ATOM     19  H   UNL     1      -0.490   0.556  -2.488  0.00  0.00    +0.170 HD
ATOM     20  C   UNL     1       0.863  -0.460  -3.588  0.00  0.00    +0.259 A 
ATOM     21  O   UNL     1       0.476  -0.076  -4.677  0.00  0.00    -0.267 OA
ATOM     22  C   UNL     1       2.000  -1.383  -3.465  0.00  0.00    +0.065 A 
ATOM     23  C   UNL     1       2.686  -1.862  -4.579  0.00  0.00    +0.015 A 
ATOM     24  C   UNL     1       3.745  -2.726  -4.405  0.00  0.00    +0.001 A 
ATOM     25  C   UNL     1       4.132  -3.122  -3.131  0.00  0.00    +0.002 A 
ATOM     26  C   UNL     1       3.467  -2.661  -2.017  0.00  0.00    +0.028 A 
ATOM     27  C   UNL     1       2.391  -1.784  -2.168  0.00  0.00    +0.078 A 
ATOM     28  N   UNL     1       1.712  -1.301  -1.097  0.00  0.00    -0.233 NA
ENDBRANCH  16  17
ENDBRANCH  14  16
ENDBRANCH   1  14
BRANCH   5  29
ATOM     29  C   UNL     1       0.586   2.047   3.790  0.00  0.00    +0.124 C 
BRANCH  29  30
ATOM     30  C   UNL     1       2.000   1.922   3.285  0.00  0.00    -0.033 A 
ATOM     31  C   UNL     1       2.765   0.826   3.637  0.00  0.00    +0.005 A 
ATOM     32  C   UNL     1       4.063   0.712   3.175  0.00  0.00    +0.000 A 
ATOM     33  C   UNL     1       4.596   1.693   2.360  0.00  0.00    +0.000 A 
ATOM     34  C   UNL     1       3.830   2.789   2.008  0.00  0.00    +0.000 A 
ATOM     35  C   UNL     1       2.531   2.901   2.467  0.00  0.00    +0.005 A 
ENDBRANCH  29  30
ENDBRANCH   5  29
TORSDOF 6
