REMARK  Name = ZINC61957664
REMARK  5 active torsions:
REMARK  status: ('A' for Active; 'I' for Inactive)
REMARK    1  A    between atoms: C_1  and  N_2
REMARK    2  A    between atoms: N_2  and  C_3
REMARK    3  A    between atoms: C_6  and  C_9
REMARK    4  A    between atoms: C_11  and  C_13
REMARK    5  A    between atoms: C_16  and  N_20
REMARK                            x       y       z     vdW  Elec       q    Type
REMARK                         _______ _______ _______ _____ _____    ______ ____
ROOT
ATOM      1  C   UNL     1      -1.184   1.140  -0.150  0.00  0.00    +0.138 C 
ATOM      2  N   UNL     1      -0.576  -0.192  -0.090  0.00  0.00    -0.270 N 
ATOM      3  C   UNL     1      -0.126  -0.778  -1.217  0.00  0.00    +0.253 C 
ATOM      4  O   UNL     1       0.294  -1.919  -1.183  0.00  0.00    -0.270 OA
ENDROOT
BRANCH   3   5
ATOM      5  C   UNL     1      -0.142  -0.037  -2.490  0.00  0.00    +0.072 A 
ATOM      6  C   UNL     1      -0.093   1.360  -2.489  0.00  0.00    +0.018 A 
ATOM      7  C   UNL     1      -0.108   2.046  -3.669  0.00  0.00    +0.023 A 
ATOM      8  C   UNL     1      -0.172   1.360  -4.880  0.00  0.00    +0.027 A 
ATOM      9  C   UNL     1      -0.221  -0.030  -4.894  0.00  0.00    +0.061 A 
ATOM     10  C   UNL     1      -0.201  -0.731  -3.706  0.00  0.00    +0.137 A 
ATOM     11  F   UNL     1      -0.244  -2.082  -3.715  0.00  0.00    -0.205 F 
BRANCH   8  12
ATOM     12  N   UNL     1      -0.188   2.067  -6.077  0.00  0.00    -0.358 N 
ATOM     13  H   UNL     1      -0.154   3.036  -6.069  0.00  0.00    +0.142 HD
ATOM     14  H   UNL     1      -0.232   1.590  -6.921  0.00  0.00    +0.142 HD
ENDBRANCH   8  12
ENDBRANCH   3   5
BRANCH   2  15
ATOM     15  C   UNL     1      -0.463  -0.852   1.133  0.00  0.00    +0.036 A 
ATOM     16  C   UNL     1       0.263  -2.036   1.218  0.00  0.00    +0.025 A 
ATOM     17  C   UNL     1       0.377  -2.691   2.424  0.00  0.00    +0.020 A 
ATOM     18  C   UNL     1      -0.238  -2.165   3.563  0.00  0.00    +0.052 A 
ATOM     19  C   UNL     1      -0.967  -0.975   3.474  0.00  0.00    +0.020 A 
ATOM     20  C   UNL     1      -1.072  -0.323   2.266  0.00  0.00    +0.025 A 
BRANCH  18  21
ATOM     21  C   UNL     1      -0.123  -2.843   4.819  0.00  0.00    +0.099 C 
ATOM     22  N   UNL     1      -0.031  -3.381   5.815  0.00  0.00    -0.191 NA
ENDBRANCH  18  21
ENDBRANCH   2  15
TORSDOF 4
