REMARK  Name = ZINC13277462
REMARK  12 active torsions:
REMARK  status: ('A' for Active; 'I' for Inactive)
REMARK    1  A    between atoms: C_1  and  C_2
REMARK    2  A    between atoms: C_5  and  C_33
REMARK    3  A    between atoms: C_7  and  N_8
REMARK    4  A    between atoms: C_9  and  C_21
REMARK    5  A    between atoms: C_11  and  C_16
REMARK    6  A    between atoms: C_16  and  C_18
REMARK    7  A    between atoms: C_24  and  O_29
REMARK    8  A    between atoms: C_25  and  O_27
REMARK    9  A    between atoms: O_27  and  C_28
REMARK   10  A    between atoms: O_29  and  C_30
REMARK   11  A    between atoms: C_30  and  C_31
REMARK   12  A    between atoms: C_30  and  C_32
REMARK                            x       y       z     vdW  Elec       q    Type
REMARK                         _______ _______ _______ _____ _____    ______ ____
ROOT
ATOM      1  N   UNL     1      -0.460  -0.867   1.480  0.00  0.00    -0.253 N 
ATOM      2  C   UNL     1      -1.377  -0.330   2.492  0.00  0.00    +0.149 C 
ATOM      3  C   UNL     1      -0.519   0.425   3.480  0.00  0.00    +0.072 C 
ATOM      4  C   UNL     1       0.763   0.314   3.050  0.00  0.00    +0.249 C 
ATOM      5  C   UNL     1       0.789  -0.494   1.811  0.00  0.00    +0.292 C 
ATOM      6  O   UNL     1       1.791  -0.778   1.185  0.00  0.00    -0.266 OA
ATOM      7  O   UNL     1       1.844   0.852   3.658  0.00  0.00    -0.282 OA
ENDROOT
BRANCH   1  14
ATOM      8  C   UNL     1      -0.777  -3.667   1.839  0.00  0.00    +0.045 C 
ATOM      9  C   UNL     1      -0.987  -3.010   0.500  0.00  0.00    -0.029 A 
ATOM     10  C   UNL     1      -1.350  -3.774  -0.594  0.00  0.00    +0.006 A 
ATOM     11  C   UNL     1      -1.544  -3.180  -1.823  0.00  0.00    +0.015 A 
ATOM     12  C   UNL     1      -1.375  -1.800  -1.967  0.00  0.00    +0.065 A 
ATOM     13  C   UNL     1      -1.009  -1.028  -0.863  0.00  0.00    +0.039 A 
ATOM     14  C   UNL     1      -0.821  -1.636   0.369  0.00  0.00    +0.041 A 
BRANCH  12  15
ATOM     15  C   UNL     1      -1.582  -1.161  -3.281  0.00  0.00    +0.387 C 
ATOM     16  O   UNL     1      -1.903  -1.839  -4.247  0.00  0.00    -0.241 OA
ATOM     17  O   UNL     1      -1.434   0.046  -3.404  0.00  0.00    -0.241 OA
ENDBRANCH  12  15
ENDBRANCH   1  14
BRANCH   2  18
ATOM     18  C   UNL     1      -2.370   0.603   1.849  0.00  0.00    -0.018 A 
ATOM     19  C   UNL     1      -1.933   1.580   0.973  0.00  0.00    +0.009 A 
ATOM     20  C   UNL     1      -2.840   2.438   0.380  0.00  0.00    +0.050 A 
ATOM     21  C   UNL     1      -4.191   2.320   0.662  0.00  0.00    +0.162 A 
ATOM     22  C   UNL     1      -4.632   1.336   1.543  0.00  0.00    +0.162 A 
ATOM     23  C   UNL     1      -3.718   0.476   2.130  0.00  0.00    +0.055 A 
BRANCH  22  24
ATOM     24  O   UNL     1      -5.957   1.216   1.823  0.00  0.00    -0.491 OA
ATOM     25  C   UNL     1      -6.337   0.185   2.736  0.00  0.00    +0.277 C 
ENDBRANCH  22  24
BRANCH  21  26
ATOM     26  O   UNL     1      -5.085   3.163   0.080  0.00  0.00    -0.486 OA
BRANCH  26  27
ATOM     27  C   UNL     1      -4.553   4.223  -0.717  0.00  0.00    +0.167 C 
ATOM     28  C   UNL     1      -4.294   3.713  -2.136  0.00  0.00    +0.051 C 
ATOM     29  C   UNL     1      -5.555   5.378  -0.765  0.00  0.00    +0.051 C 
ENDBRANCH  26  27
ENDBRANCH  21  26
ENDBRANCH   2  18
BRANCH   3  30
ATOM     30  C   UNL     1      -0.965   1.115   4.632  0.00  0.00    +0.168 C 
ATOM     31  O   UNL     1      -0.166   1.684   5.346  0.00  0.00    -0.292 OA
BRANCH  30  32
ATOM     32  C   UNL     1      -2.433   1.143   4.971  0.00  0.00    +0.060 C 
ATOM     33  C   UNL     1      -3.029   2.480   5.418  0.00  0.00    +0.012 C 
ATOM     34  C   UNL     1      -2.815   1.358   6.437  0.00  0.00    +0.012 C 
ENDBRANCH  30  32
ENDBRANCH   3  30
TORSDOF 8
