REMARK  Name = ZINC13148289
REMARK  9 active torsions:
REMARK  status: ('A' for Active; 'I' for Inactive)
REMARK    1  A    between atoms: C_1  and  C_2
REMARK    2  A    between atoms: C_5  and  S_8
REMARK    3  A    between atoms: S_8  and  N_11
REMARK    4  A    between atoms: C_14  and  N_23
REMARK    5  A    between atoms: N_23  and  S_24
REMARK    6  A    between atoms: S_24  and  C_27
REMARK    7  A    between atoms: C_28  and  C_35
REMARK    8  A    between atoms: C_30  and  C_34
REMARK    9  A    between atoms: C_32  and  C_33
REMARK                            x       y       z     vdW  Elec       q    Type
REMARK                         _______ _______ _______ _____ _____    ______ ____
ROOT
ATOM      1  N   UNL     1       2.680  -8.069   1.954  0.00  0.00    -0.125 NA
ATOM      2  C   UNL     1       2.131  -9.241   1.771  0.00  0.00    +0.135 C 
ATOM      3  C   UNL     1       0.836  -9.342   1.206  0.00  0.00    +0.058 C 
ATOM      4  C   UNL     1       0.243 -10.541   1.005  0.00  0.00    +0.058 C 
ATOM      5  C   UNL     1       0.913 -11.803   1.363  0.00  0.00    +0.008 A 
ATOM      6  C   UNL     1       0.282 -13.026   1.146  0.00  0.00    +0.010 A 
ATOM      7  C   UNL     1       0.924 -14.202   1.486  0.00  0.00    +0.001 A 
ATOM      8  C   UNL     1       2.192 -14.178   2.043  0.00  0.00    +0.001 A 
ATOM      9  C   UNL     1       2.835 -12.975   2.267  0.00  0.00    +0.012 A 
ATOM     10  C   UNL     1       2.203 -11.781   1.929  0.00  0.00    +0.033 A 
ATOM     11  C   UNL     1       2.867 -10.482   2.150  0.00  0.00    +0.213 C 
ATOM     12  O   UNL     1       3.981 -10.425   2.631  0.00  0.00    -0.285 OA
ENDROOT
BRANCH   1  13
ATOM     13  S   UNL     1       1.822  -6.692   1.621  0.00  0.00    +0.099 S 
ATOM     14  O   UNL     1       0.711  -6.681   2.506  0.00  0.00    -0.146 OA
ATOM     15  O   UNL     1       1.672  -6.638   0.209  0.00  0.00    -0.146 OA
BRANCH  13  20
ATOM     16  C   UNL     1       5.296  -2.005   3.162  0.00  0.00    +0.044 C 
ATOM     17  C   UNL     1       4.428  -3.176   2.777  0.00  0.00    -0.050 A 
ATOM     18  C   UNL     1       4.493  -3.693   1.497  0.00  0.00    +0.005 A 
ATOM     19  C   UNL     1       3.698  -4.766   1.144  0.00  0.00    +0.029 A 
ATOM     20  C   UNL     1       2.837  -5.324   2.071  0.00  0.00    +0.113 A 
ATOM     21  C   UNL     1       2.773  -4.808   3.352  0.00  0.00    +0.029 A 
ATOM     22  C   UNL     1       3.572  -3.737   3.706  0.00  0.00    +0.005 A 
ENDBRANCH  13  20
ENDBRANCH   1  13
BRANCH   4  23
ATOM     23  N   UNL     1      -1.023 -10.583   0.450  0.00  0.00    -0.216 N 
ATOM     24  H   UNL     1      -1.490 -11.430   0.369  0.00  0.00    +0.174 HD
BRANCH  23  25
ATOM     25  S   UNL     1      -1.743  -9.188  -0.077  0.00  0.00    +0.073 S 
ATOM     26  O   UNL     1      -0.782  -8.512  -0.877  0.00  0.00    -0.150 OA
ATOM     27  O   UNL     1      -3.024  -9.554  -0.572  0.00  0.00    -0.150 OA
BRANCH  25  28
ATOM     28  C   UNL     1      -2.020  -8.177   1.339  0.00  0.00    +0.114 A 
ATOM     29  C   UNL     1      -2.142  -8.757   2.588  0.00  0.00    -0.023 A 
ATOM     30  C   UNL     1      -2.359  -7.963   3.700  0.00  0.00    +0.008 A 
ATOM     31  C   UNL     1      -2.454  -6.591   3.562  0.00  0.00    -0.050 A 
ATOM     32  C   UNL     1      -2.332  -6.012   2.312  0.00  0.00    +0.008 A 
ATOM     33  C   UNL     1      -2.111  -6.805   1.202  0.00  0.00    -0.023 A 
ATOM     34  C   UNL     1      -1.972  -6.173  -0.159  0.00  0.00    +0.046 C 
ATOM     35  C   UNL     1      -2.692  -5.727   4.773  0.00  0.00    +0.044 C 
ATOM     36  C   UNL     1      -2.038 -10.252   2.739  0.00  0.00    +0.046 C 
ENDBRANCH  25  28
ENDBRANCH  23  25
ENDBRANCH   4  23
TORSDOF 5
