REMARK  Name = ZINC56935008
REMARK  6 active torsions:
REMARK  status: ('A' for Active; 'I' for Inactive)
REMARK    1  A    between atoms: C_1  and  C_2
REMARK    2  A    between atoms: C_3  and  C_18
REMARK    3  A    between atoms: C_9  and  C_12
REMARK    4  A    between atoms: N_20  and  C_21
REMARK    5  A    between atoms: N_24  and  C_27
REMARK    6  A    between atoms: C_27  and  C_28
REMARK                            x       y       z     vdW  Elec       q    Type
REMARK                         _______ _______ _______ _____ _____    ______ ____
ROOT
ATOM      1  C   UNL     1      -0.004  -0.358  -2.502  0.00  0.00    +0.266 C 
ATOM      2  O   UNL     1      -0.021   0.831  -2.756  0.00  0.00    -0.268 OA
ATOM      3  N   UNL     1       0.005  -1.261  -3.503  0.00  0.00    -0.307 N 
ATOM      4  H   UNL     1       0.019  -2.210  -3.300  0.00  0.00    +0.149 HD
ENDROOT
BRANCH   1   7
ATOM      5  C   UNL     1      -0.018   1.503   0.010  0.00  0.00    +0.068 C 
ATOM      6  C   UNL     1       0.002  -0.004   0.002  0.00  0.00    +0.076 A 
ATOM      7  C   UNL     1       0.009  -0.813  -1.099  0.00  0.00    +0.170 A 
ATOM      8  N   UNL     1       0.028  -2.092  -0.688  0.00  0.00    -0.124 NA
ATOM      9  N   UNL     1       0.033  -2.132   0.599  0.00  0.00    -0.058 NA
ATOM     10  N   UNL     1       0.023  -0.816   1.083  0.00  0.00    -0.192 N 
ATOM     11  C   UNL     1       0.031  -0.421   2.420  0.00  0.00    +0.196 A 
ATOM     12  N   UNL     1       0.057  -1.164   3.510  0.00  0.00    -0.221 NA
ATOM     13  C   UNL     1       0.060  -0.618   4.715  0.00  0.00    +0.080 A 
ATOM     14  C   UNL     1       0.036   0.745   4.834  0.00  0.00    +0.077 A 
ATOM     15  S   UNL     1       0.015   1.227   3.112  0.00  0.00    -0.056 S 
BRANCH  13  16
ATOM     16  C   UNL     1       0.089  -1.476   5.925  0.00  0.00    +0.001 A 
ATOM     17  C   UNL     1       0.086  -0.896   7.193  0.00  0.00    +0.010 A 
ATOM     18  C   UNL     1       0.113  -1.699   8.315  0.00  0.00    +0.001 A 
ATOM     19  C   UNL     1       0.143  -3.076   8.184  0.00  0.00    +0.000 A 
ATOM     20  C   UNL     1       0.146  -3.656   6.928  0.00  0.00    +0.001 A 
ATOM     21  C   UNL     1       0.113  -2.863   5.798  0.00  0.00    +0.010 A 
ENDBRANCH  13  16
ENDBRANCH   1   7
BRANCH   3  22
ATOM     22  C   UNL     1      -0.007  -0.810  -4.897  0.00  0.00    +0.070 C 
ATOM     23  C   UNL     1      -1.452  -0.562  -5.342  0.00  0.00    +0.004 C 
ATOM     24  C   UNL     1      -1.463  -0.168  -6.821  0.00  0.00    -0.077 C 
ATOM     25  N   UNL     1      -0.881  -1.250  -7.624  0.00  0.00    +0.382 N 
ATOM     26  C   UNL     1       0.526  -1.445  -7.252  0.00  0.00    -0.077 C 
ATOM     27  C   UNL     1       0.614  -1.888  -5.790  0.00  0.00    +0.004 C 
ATOM     28  H   UNL     1      -1.393  -2.104  -7.458  0.00  0.00    -0.081 HD
BRANCH  25  29
ATOM     29  C   UNL     1      -0.965  -0.901  -9.048  0.00  0.00    -0.043 C 
BRANCH  29  30
ATOM     30  C   UNL     1      -0.481  -2.061  -9.879  0.00  0.00    -0.064 A 
ATOM     31  C   UNL     1       0.857  -2.160 -10.215  0.00  0.00    +0.002 A 
ATOM     32  C   UNL     1       1.301  -3.224 -10.977  0.00  0.00    +0.000 A 
ATOM     33  C   UNL     1       0.408  -4.189 -11.404  0.00  0.00    +0.000 A 
ATOM     34  C   UNL     1      -0.929  -4.090 -11.068  0.00  0.00    +0.000 A 
ATOM     35  C   UNL     1      -1.373  -3.029 -10.302  0.00  0.00    +0.002 A 
ENDBRANCH  29  30
ENDBRANCH  25  29
ENDBRANCH   3  22
TORSDOF 5
