REMARK  Name = ZINC13058136
REMARK  16 active torsions:
REMARK  status: ('A' for Active; 'I' for Inactive)
REMARK    1  A    between atoms: C_1  and  C_2
REMARK    2  A    between atoms: C_2  and  O_3
REMARK    3  A    between atoms: O_3  and  C_4
REMARK    4  A    between atoms: C_4  and  C_6
REMARK    5  A    between atoms: C_7  and  C_27
REMARK    6  A    between atoms: C_10  and  N_11
REMARK    7  A    between atoms: C_12  and  C_14
REMARK    8  A    between atoms: C_14  and  N_64
REMARK    9  A    between atoms: C_15  and  N_64
REMARK   10  A    between atoms: C_16  and  C_17
REMARK   11  A    between atoms: C_16  and  N_64
REMARK   12  A    between atoms: C_20  and  O_25
REMARK   13  A    between atoms: C_21  and  O_23
REMARK   14  A    between atoms: O_23  and  C_24
REMARK   15  A    between atoms: O_25  and  C_26
REMARK   16  A    between atoms: C_30  and  C_33
REMARK                            x       y       z     vdW  Elec       q    Type
REMARK                         _______ _______ _______ _____ _____    ______ ____
ROOT
ATOM      1  N   UNL     1      -0.839   0.778  -4.788  0.00  0.00    -0.281 N 
ATOM      2  C   UNL     1      -1.114   1.262  -3.560  0.00  0.00    +0.201 C 
ATOM      3  O   UNL     1      -2.089   1.963  -3.389  0.00  0.00    -0.278 OA
ATOM      4  H   UNL     1      -0.060   0.216  -4.925  0.00  0.00    +0.155 HD
ENDROOT
BRANCH   1   9
ATOM      5  C   UNL     1      -1.551   0.681  -7.178  0.00  0.00    +0.095 A 
ATOM      6  C   UNL     1      -2.572   1.150  -8.096  0.00  0.00    +0.005 A 
ATOM      7  C   UNL     1      -3.547   1.937  -7.574  0.00  0.00    +0.056 A 
ATOM      8  S   UNL     1      -3.107   2.047  -5.853  0.00  0.00    -0.080 S 
ATOM      9  C   UNL     1      -1.670   1.082  -5.854  0.00  0.00    +0.086 A 
BRANCH   6  10
ATOM     10  C   UNL     1      -2.551   0.788  -9.534  0.00  0.00    -0.017 A 
ATOM     11  C   UNL     1      -1.388   0.962 -10.282  0.00  0.00    +0.009 A 
ATOM     12  C   UNL     1      -1.373   0.619 -11.619  0.00  0.00    +0.004 A 
ATOM     13  C   UNL     1      -2.512   0.113 -12.219  0.00  0.00    -0.050 A 
ATOM     14  C   UNL     1      -3.671  -0.057 -11.482  0.00  0.00    +0.004 A 
ATOM     15  C   UNL     1      -3.696   0.278 -10.144  0.00  0.00    +0.009 A 
ATOM     16  C   UNL     1      -2.491  -0.254 -13.680  0.00  0.00    +0.044 C 
ENDBRANCH   6  10
BRANCH   5  17
ATOM     17  C   UNL     1      -0.450  -0.172  -7.626  0.00  0.00    +0.342 C 
ATOM     18  O   UNL     1      -0.572  -1.383  -7.605  0.00  0.00    -0.245 OA
BRANCH  17  19
ATOM     19  O   UNL     1       0.699   0.383  -8.062  0.00  0.00    -0.461 OA
BRANCH  19  21
ATOM     20  C   UNL     1       2.966   0.282  -8.947  0.00  0.00    +0.048 C 
ATOM     21  C   UNL     1       1.748  -0.524  -8.490  0.00  0.00    +0.229 C 
ENDBRANCH  19  21
ENDBRANCH  17  19
ENDBRANCH   5  17
ENDBRANCH   1   9
BRANCH   2  22
ATOM     22  C   UNL     1      -0.211   0.930  -2.400  0.00  0.00    +0.019 C 
BRANCH  22  24
ATOM     23  C   UNL     1      -0.640   3.036  -1.283  0.00  0.00    -0.095 C 
ATOM     24  N   UNL     1      -0.751   1.565  -1.179  0.00  0.00    +0.386 N 
ATOM     25  H   UNL     1      -1.741   1.312  -1.081  0.00  0.00    -0.081 HD
BRANCH  24  26
ATOM     26  C   UNL     1      -0.013   1.086   0.008  0.00  0.00    -0.043 C 
BRANCH  26  27
ATOM     27  C   UNL     1      -0.718   1.572   1.248  0.00  0.00    -0.060 A 
ATOM     28  C   UNL     1      -0.359   2.779   1.817  0.00  0.00    +0.005 A 
ATOM     29  C   UNL     1      -1.006   3.232   2.952  0.00  0.00    +0.049 A 
ATOM     30  C   UNL     1      -2.011   2.470   3.526  0.00  0.00    +0.161 A 
ATOM     31  C   UNL     1      -2.369   1.252   2.957  0.00  0.00    +0.162 A 
ATOM     32  C   UNL     1      -1.719   0.807   1.817  0.00  0.00    +0.051 A 
BRANCH  31  33
ATOM     33  O   UNL     1      -3.354   0.501   3.517  0.00  0.00    -0.491 OA
ATOM     34  C   UNL     1      -3.669  -0.738   2.877  0.00  0.00    +0.277 C 
ENDBRANCH  31  33
BRANCH  30  35
ATOM     35  O   UNL     1      -2.646   2.912   4.645  0.00  0.00    -0.491 OA
ATOM     36  C   UNL     1      -2.226   4.171   5.175  0.00  0.00    +0.277 C 
ENDBRANCH  30  35
ENDBRANCH  26  27
ENDBRANCH  24  26
ENDBRANCH  22  24
ENDBRANCH   2  22
TORSDOF 11
