REMARK  Name = ZINC40567463
REMARK  7 active torsions:
REMARK  status: ('A' for Active; 'I' for Inactive)
REMARK    1  A    between atoms: C_3  and  C_9
REMARK    2  A    between atoms: C_12  and  C_14
REMARK    3  A    between atoms: N_18  and  C_22
REMARK    4  A    between atoms: C_22  and  C_24
REMARK    5  A    between atoms: C_22  and  C_29
REMARK    6  A    between atoms: C_24  and  C_25
REMARK    7  A    between atoms: C_25  and  C_26
REMARK                            x       y       z     vdW  Elec       q    Type
REMARK                         _______ _______ _______ _____ _____    ______ ____
ROOT
ATOM      1  C   UNL     1       5.871   4.675  -1.235  0.00  0.00    +0.066 C 
ATOM      2  C   UNL     1       5.256   5.338  -2.258  0.00  0.00    +0.080 C 
ATOM      3  C   UNL     1       5.737   6.415  -3.062  0.00  0.00    +0.259 C 
ATOM      4  O   UNL     1       6.848   6.882  -2.885  0.00  0.00    -0.269 OA
ATOM      5  N   UNL     1       4.941   6.891  -4.003  0.00  0.00    -0.241 N 
ATOM      6  C   UNL     1       3.708   6.373  -4.198  0.00  0.00    +0.121 C 
ATOM      7  S   UNL     1       2.522   6.829  -5.346  0.00  0.00    -0.027 S 
ATOM      8  S   UNL     1       3.632   5.087  -2.961  0.00  0.00    -0.061 S 
ENDROOT
BRANCH   1  12
ATOM      9  C   UNL     1       3.655   2.162  -0.022  0.00  0.00    +0.137 A 
ATOM     10  C   UNL     1       4.723   1.946   0.820  0.00  0.00    +0.050 A 
ATOM     11  C   UNL     1       5.710   2.871   0.472  0.00  0.00    +0.050 A 
ATOM     12  C   UNL     1       5.204   3.622  -0.574  0.00  0.00    +0.130 A 
ATOM     13  O   UNL     1       3.964   3.170  -0.857  0.00  0.00    -0.455 OA
BRANCH   9  16
ATOM     14  C   UNL     1      -0.017   1.381   0.010  0.00  0.00    +0.021 A 
ATOM     15  C   UNL     1       1.166   2.090   0.002  0.00  0.00    +0.014 A 
ATOM     16  C   UNL     1       2.385   1.409  -0.013  0.00  0.00    +0.036 A 
ATOM     17  C   UNL     1       2.398   0.010  -0.021  0.00  0.00    +0.053 A 
ATOM     18  C   UNL     1       1.207  -0.687  -0.013  0.00  0.00    +0.040 A 
ATOM     19  C   UNL     1       0.002  -0.004   0.002  0.00  0.00    +0.042 A 
ATOM     20 CL   UNL     1      -1.492  -0.888   0.011  0.00  0.00    -0.083 Cl
ATOM     21 CL   UNL     1       3.908  -0.846  -0.040  0.00  0.00    -0.083 Cl
ENDBRANCH   9  16
ENDBRANCH   1  12
BRANCH   5  22
ATOM     22  C   UNL     1       5.401   7.997  -4.847  0.00  0.00    +0.196 C 
BRANCH  22  23
ATOM     23  C   UNL     1       4.474   9.174  -4.683  0.00  0.00    +0.376 C 
ATOM     24  O   UNL     1       4.900  10.308  -4.813  0.00  0.00    -0.244 OA
ATOM     25  O   UNL     1       3.297   8.991  -4.420  0.00  0.00    -0.244 OA
ENDBRANCH  22  23
BRANCH  22  26
ATOM     26  C   UNL     1       5.408   7.553  -6.311  0.00  0.00    +0.046 C 
BRANCH  26  27
ATOM     27  C   UNL     1       6.441   6.440  -6.502  0.00  0.00    +0.127 C 
BRANCH  27  28
ATOM     28  C   UNL     1       6.447   6.003  -7.944  0.00  0.00    +0.356 C 
ATOM     29  O   UNL     1       5.695   6.532  -8.745  0.00  0.00    -0.246 OA
ATOM     30  O   UNL     1       7.204   5.120  -8.310  0.00  0.00    -0.246 OA
ENDBRANCH  27  28
ENDBRANCH  26  27
ENDBRANCH  22  26
ENDBRANCH   5  22
TORSDOF 7
