REMARK  Name = ZINC36005361
REMARK  13 active torsions:
REMARK  status: ('A' for Active; 'I' for Inactive)
REMARK    1  A    between atoms: C_1  and  C_2
REMARK    2  A    between atoms: C_2  and  O_3
REMARK    3  A    between atoms: O_3  and  C_4
REMARK    4  A    between atoms: C_4  and  C_6
REMARK    5  A    between atoms: C_7  and  C_23
REMARK    6  A    between atoms: N_8  and  C_22
REMARK    7  A    between atoms: C_12  and  C_14
REMARK    8  A    between atoms: C_17  and  C_21
REMARK    9  A    between atoms: C_19  and  C_20
REMARK   10  A    between atoms: C_23  and  N_24
REMARK   11  A    between atoms: C_31  and  C_33
REMARK   12  A    between atoms: C_33  and  O_34
REMARK   13  A    between atoms: O_34  and  C_35
REMARK                            x       y       z     vdW  Elec       q    Type
REMARK                         _______ _______ _______ _____ _____    ______ ____
ROOT
ATOM      1  C   UNL     1      -3.121  -2.311  -0.022  0.00  0.00    +0.076 C 
ATOM      2  C   UNL     1      -3.071  -3.660  -0.026  0.00  0.00    +0.010 C 
ATOM      3  N   UNL     1      -4.144  -4.404  -0.427  0.00  0.00    -0.264 N 
ATOM      4  C   UNL     1      -5.303  -3.873  -0.837  0.00  0.00    +0.307 C 
ATOM      5  O   UNL     1      -6.203  -4.617  -1.175  0.00  0.00    -0.252 OA
ATOM      6  N   UNL     1      -5.505  -2.542  -0.888  0.00  0.00    -0.288 N 
ATOM      7  C   UNL     1      -4.409  -1.651  -0.470  0.00  0.00    +0.144 C 
ATOM      8  C   UNL     1      -4.021  -5.863  -0.406  0.00  0.00    +0.139 C 
ATOM      9  H   UNL     1      -6.353  -2.179  -1.189  0.00  0.00    +0.151 HD
ENDROOT
BRANCH   7  10
ATOM     10  C   UNL     1      -4.087  -0.743  -1.629  0.00  0.00    -0.020 A 
ATOM     11  C   UNL     1      -2.927  -0.936  -2.357  0.00  0.00    +0.006 A 
ATOM     12  C   UNL     1      -2.632  -0.103  -3.420  0.00  0.00    +0.004 A 
ATOM     13  C   UNL     1      -3.497   0.921  -3.756  0.00  0.00    -0.050 A 
ATOM     14  C   UNL     1      -4.657   1.113  -3.030  0.00  0.00    +0.007 A 
ATOM     15  C   UNL     1      -4.954   0.278  -1.969  0.00  0.00    -0.045 A 
ATOM     16  C   UNL     1      -6.222   0.484  -1.180  0.00  0.00    +0.044 C 
ATOM     17  C   UNL     1      -3.174   1.830  -4.915  0.00  0.00    +0.044 C 
ENDBRANCH   7  10
BRANCH   1  18
ATOM     18  C   UNL     1      -2.010  -1.539   0.394  0.00  0.00    +0.339 C 
ATOM     19  O   UNL     1      -0.977  -2.090   0.726  0.00  0.00    -0.245 OA
BRANCH  18  20
ATOM     20  O   UNL     1      -2.096  -0.193   0.421  0.00  0.00    -0.462 OA
BRANCH  20  22
ATOM     21  C   UNL     1      -1.163   2.029   0.605  0.00  0.00    +0.048 C 
ATOM     22  C   UNL     1      -0.904   0.527   0.740  0.00  0.00    +0.229 C 
ENDBRANCH  20  22
ENDBRANCH  18  20
ENDBRANCH   1  18
BRANCH   2  23
ATOM     23  C   UNL     1      -1.811  -4.357   0.417  0.00  0.00    -0.026 C 
BRANCH  23  24
ATOM     24  N   UNL     1      -1.770  -4.408   1.885  0.00  0.00    +0.384 N 
ATOM     25  C   UNL     1      -0.437  -4.843   2.295  0.00  0.00    -0.077 C 
ATOM     26  C   UNL     1      -0.111  -4.249   3.647  0.00  0.00    +0.000 C 
ATOM     27  C   UNL     1      -0.500  -5.246   4.753  0.00  0.00    +0.106 C 
ATOM     28  N   UNL     1      -1.777  -5.917   4.437  0.00  0.00    -0.301 N 
ATOM     29  C   UNL     1      -2.908  -5.207   3.876  0.00  0.00    +0.089 C 
ATOM     30  C   UNL     1      -2.829  -5.229   2.332  0.00  0.00    -0.059 C 
ATOM     31  C   UNL     1      -1.895  -7.238   4.679  0.00  0.00    +0.241 C 
ATOM     32  O   UNL     1      -2.935  -7.810   4.429  0.00  0.00    -0.273 OA
ATOM     33  H   UNL     1      -1.920  -3.475   2.239  0.00  0.00    -0.081 HD
BRANCH  31  34
ATOM     34  C   UNL     1      -0.735  -8.003   5.262  0.00  0.00    +0.255 C 
BRANCH  34  35
ATOM     35  O   UNL     1      -1.103  -9.374   5.426  0.00  0.00    -0.374 OA
ATOM     36  C   UNL     1      -0.068 -10.192   5.975  0.00  0.00    +0.194 C 
ENDBRANCH  34  35
ENDBRANCH  31  34
ENDBRANCH  23  24
ENDBRANCH   2  23
TORSDOF 8
