REMARK  Name = ZINC09630113
REMARK  11 active torsions:
REMARK  status: ('A' for Active; 'I' for Inactive)
REMARK    1  A    between atoms: C_1  and  C_2
REMARK    2  A    between atoms: C_2  and  O_3
REMARK    3  A    between atoms: O_3  and  C_4
REMARK    4  A    between atoms: C_4  and  C_6
REMARK    5  A    between atoms: C_10  and  N_11
REMARK    6  A    between atoms: C_12  and  C_14
REMARK    7  A    between atoms: C_14  and  S_15
REMARK    8  A    between atoms: S_15  and  C_16
REMARK    9  A    between atoms: C_19  and  C_22
REMARK   10  A    between atoms: C_26  and  C_27
REMARK   11  A    between atoms: C_26  and  N_61
REMARK                            x       y       z     vdW  Elec       q    Type
REMARK                         _______ _______ _______ _____ _____    ______ ____
ROOT
ATOM      1  C   UNL     1       3.767   5.680  -5.249  0.00  0.00    +0.091 A 
ATOM      2  C   UNL     1       3.535   5.293  -3.869  0.00  0.00    -0.025 A 
ATOM      3  C   UNL     1       2.241   5.092  -3.535  0.00  0.00    -0.021 A 
ATOM      4  S   UNL     1       1.335   5.411  -5.021  0.00  0.00    -0.079 S 
ATOM      5  C   UNL     1       2.655   5.804  -6.073  0.00  0.00    +0.086 A 
ATOM      6  C   UNL     1       1.723   4.687  -2.190  0.00  0.00    -0.035 C 
ATOM      7  C   UNL     1       3.982   5.141  -1.440  0.00  0.00    -0.073 C 
ATOM      8  C   UNL     1       4.632   5.111  -2.826  0.00  0.00    +0.018 C 
ATOM      9  N   UNL     1       2.867   4.171  -1.400  0.00  0.00    +0.386 N 
ATOM     10  H   UNL     1       3.182   3.283  -1.808  0.00  0.00    -0.081 HD
ENDROOT
BRANCH   5  11
ATOM     11  N   UNL     1       2.612   6.157  -7.413  0.00  0.00    -0.279 N 
ATOM     12  C   UNL     1       1.428   6.227  -8.054  0.00  0.00    +0.228 C 
ATOM     13  O   UNL     1       0.401   5.980  -7.458  0.00  0.00    -0.275 OA
ATOM     14  H   UNL     1       3.433   6.355  -7.889  0.00  0.00    +0.155 HD
BRANCH  12  15
ATOM     15  C   UNL     1       1.381   6.611  -9.510  0.00  0.00    +0.170 C 
BRANCH  15  16
ATOM     16  S   UNL     1      -0.341   6.615 -10.079  0.00  0.00    -0.116 S 
BRANCH  16  17
ATOM     17  C   UNL     1      -0.228   7.077 -11.776  0.00  0.00    +0.008 A 
ATOM     18  C   UNL     1       1.012   7.341 -12.345  0.00  0.00    +0.015 A 
ATOM     19  C   UNL     1       1.097   7.697 -13.676  0.00  0.00    +0.004 A 
ATOM     20  C   UNL     1      -0.051   7.803 -14.440  0.00  0.00    -0.050 A 
ATOM     21  C   UNL     1      -1.288   7.545 -13.876  0.00  0.00    +0.004 A 
ATOM     22  C   UNL     1      -1.380   7.183 -12.547  0.00  0.00    +0.015 A 
ATOM     23  C   UNL     1       0.045   8.198 -15.891  0.00  0.00    +0.044 C 
ENDBRANCH  16  17
ENDBRANCH  15  16
ENDBRANCH  12  15
ENDBRANCH   5  11
BRANCH   1  24
ATOM     24  C   UNL     1       5.119   5.930  -5.752  0.00  0.00    +0.342 C 
ATOM     25  O   UNL     1       5.768   5.019  -6.231  0.00  0.00    -0.245 OA
BRANCH  24  26
ATOM     26  O   UNL     1       5.645   7.170  -5.684  0.00  0.00    -0.461 OA
BRANCH  26  28
ATOM     27  C   UNL     1       7.413   8.806  -6.041  0.00  0.00    +0.048 C 
ATOM     28  C   UNL     1       6.990   7.344  -6.202  0.00  0.00    +0.229 C 
ENDBRANCH  26  28
ENDBRANCH  24  26
ENDBRANCH   1  24
BRANCH   9  29
ATOM     29  C   UNL     1       2.451   3.937  -0.001  0.00  0.00    -0.043 C 
BRANCH  29  30
ATOM     30  C   UNL     1       1.156   3.165   0.008  0.00  0.00    -0.064 A 
ATOM     31  C   UNL     1       1.175   1.783   0.000  0.00  0.00    +0.002 A 
ATOM     32  C   UNL     1      -0.013   1.076   0.008  0.00  0.00    +0.000 A 
ATOM     33  C   UNL     1      -1.219   1.751   0.017  0.00  0.00    +0.000 A 
ATOM     34  C   UNL     1      -1.238   3.133   0.030  0.00  0.00    +0.000 A 
ATOM     35  C   UNL     1      -0.050   3.840   0.023  0.00  0.00    +0.002 A 
ENDBRANCH  29  30
ENDBRANCH   9  29
TORSDOF 9
