REMARK  Name = ZINC37030364
REMARK  6 active torsions:
REMARK  status: ('A' for Active; 'I' for Inactive)
REMARK    1  A    between atoms: C_1  and  C_2
REMARK    2  A    between atoms: C_2  and  C_4
REMARK    3  A    between atoms: C_2  and  N_10
REMARK    4  A    between atoms: N_10  and  S_11
REMARK    5  A    between atoms: S_11  and  C_14
REMARK    6  A    between atoms: C_16  and  C_20
REMARK                            x       y       z     vdW  Elec       q    Type
REMARK                         _______ _______ _______ _____ _____    ______ ____
ROOT
ATOM      1  S   UNL     1      -2.163  -0.790  -1.416  0.00  0.00    +0.061 S 
ATOM      2  O   UNL     1      -1.418  -1.681  -2.234  0.00  0.00    -0.153 OA
ATOM      3  O   UNL     1      -3.486  -1.077  -0.985  0.00  0.00    -0.153 OA
ENDROOT
BRANCH   1   4
ATOM      4  C   UNL     1      -2.236   0.744  -2.279  0.00  0.00    +0.127 A 
ATOM      5  C   UNL     1      -1.664   0.873  -3.519  0.00  0.00    +0.052 A 
ATOM      6  C   UNL     1      -1.780   2.125  -4.110  0.00  0.00    +0.103 A 
ATOM      7  S   UNL     1      -2.689   3.031  -2.873  0.00  0.00    -0.073 S 
ATOM      8  C   UNL     1      -2.865   1.815  -1.728  0.00  0.00    +0.082 A 
ATOM      9 BR   UNL     1      -3.737   1.915  -0.052  0.00  0.00    -0.041 Br
BRANCH   6  10
ATOM     10  C   UNL     1      -1.302   2.566  -5.368  0.00  0.00    +0.393 C 
ATOM     11  O   UNL     1      -0.689   1.794  -6.096  0.00  0.00    -0.240 OA
ATOM     12  O   UNL     1      -1.500   3.720  -5.729  0.00  0.00    -0.240 OA
ENDBRANCH   6  10
ENDBRANCH   1   4
BRANCH   1  13
ATOM     13  N   UNL     1      -1.264  -0.540  -0.048  0.00  0.00    -0.182 NA
ATOM     14  H   UNL     1      -1.677  -0.621   0.826  0.00  0.00    +0.149 HD
BRANCH  13  16
ATOM     15  C   UNL     1       0.322   1.322  -0.076  0.00  0.00    +0.031 C 
ATOM     16  C   UNL     1       0.156  -0.197  -0.157  0.00  0.00    +0.110 C 
BRANCH  16  17
ATOM     17  C   UNL     1       0.918  -0.846   0.969  0.00  0.00    +0.009 A 
ATOM     18  C   UNL     1       2.140  -1.433   0.946  0.00  0.00    +0.014 A 
ATOM     19  C   UNL     1       2.648  -1.970   2.115  0.00  0.00    +0.028 A 
ATOM     20  C   UNL     1       1.909  -1.893   3.249  0.00  0.00    +0.078 A 
ATOM     21  S   UNL     1       0.449  -1.035   2.681  0.00  0.00    -0.080 S 
ATOM     22 CL   UNL     1       2.286  -2.472   4.841  0.00  0.00    -0.076 Cl
ENDBRANCH  16  17
ENDBRANCH  13  16
ENDBRANCH   1  13
TORSDOF 5
