REMARK  Name = ZINC12701532
REMARK  5 active torsions:
REMARK  status: ('A' for Active; 'I' for Inactive)
REMARK    1  A    between atoms: C_4  and  C_7
REMARK    2  A    between atoms: C_7  and  C_8
REMARK    3  A    between atoms: C_14  and  C_16
REMARK    4  A    between atoms: C_16  and  C_17
REMARK    5  A    between atoms: C_24  and  N_61
REMARK                            x       y       z     vdW  Elec       q    Type
REMARK                         _______ _______ _______ _____ _____    ______ ____
ROOT
ATOM      1  C   UNL     1      -3.446   3.933  -1.395  0.00  0.00    -0.004 C 
ATOM      2  C   UNL     1      -2.383   4.822  -2.045  0.00  0.00    +0.023 C 
ATOM      3  C   UNL     1      -2.773   5.096  -3.501  0.00  0.00    +0.108 C 
ATOM      4  N   UNL     1      -4.130   5.660  -3.529  0.00  0.00    -0.301 N 
ATOM      5  C   UNL     1      -5.212   4.931  -2.853  0.00  0.00    +0.108 C 
ATOM      6  C   UNL     1      -4.794   4.658  -1.405  0.00  0.00    +0.023 C 
ATOM      7  C   UNL     1      -4.377   6.824  -4.161  0.00  0.00    +0.214 C 
ATOM      8  O   UNL     1      -5.501   7.279  -4.177  0.00  0.00    -0.276 OA
ENDROOT
BRANCH   1   9
ATOM      9  C   UNL     1      -3.042   3.629   0.049  0.00  0.00    +0.038 C 
BRANCH   9  13
ATOM     10  C   UNL     1       0.540   1.302   0.064  0.00  0.00    +0.000 A 
ATOM     11  C   UNL     1      -0.691   0.675   0.032  0.00  0.00    +0.000 A 
ATOM     12  C   UNL     1      -1.851   1.428   0.022  0.00  0.00    +0.003 A 
ATOM     13  C   UNL     1      -1.779   2.808   0.055  0.00  0.00    -0.047 A 
ATOM     14  C   UNL     1      -0.547   3.435   0.086  0.00  0.00    +0.003 A 
ATOM     15  C   UNL     1       0.612   2.682   0.091  0.00  0.00    +0.000 A 
ENDBRANCH   9  13
ENDBRANCH   1   9
BRANCH   7  16
ATOM     16  C   UNL     1      -3.256   7.560  -4.849  0.00  0.00    +0.090 C 
BRANCH  16  17
ATOM     17  C   UNL     1      -3.820   8.780  -5.580  0.00  0.00    +0.028 C 
ATOM     18  C   UNL     1      -4.411   9.732  -4.579  0.00  0.00    +0.200 C 
ATOM     19  O   UNL     1      -3.804   9.944  -3.550  0.00  0.00    -0.278 OA
ATOM     20  N   UNL     1      -5.577  10.355  -4.774  0.00  0.00    -0.318 N 
ATOM     21  C   UNL     1      -6.402  10.142  -5.960  0.00  0.00    +0.085 C 
ATOM     22  C   UNL     1      -5.565   9.513  -7.075  0.00  0.00    -0.058 C 
ATOM     23  H   UNL     1      -5.890  10.977  -4.098  0.00  0.00    +0.149 HD
ATOM     24  N   UNL     1      -4.870   8.336  -6.516  0.00  0.00    +0.390 N 
ATOM     25  H   UNL     1      -5.548   7.755  -6.008  0.00  0.00    -0.080 HD
BRANCH  24  26
ATOM     26  C   UNL     1      -4.270   7.534  -7.606  0.00  0.00    -0.067 C 
ATOM     27  C   UNL     1      -3.352   8.406  -8.488  0.00  0.00    -0.015 C 
ATOM     28  C   UNL     1      -3.584   7.872  -9.923  0.00  0.00    -0.002 C 
ATOM     29  C   UNL     1      -5.102   7.566  -9.932  0.00  0.00    -0.002 C 
ATOM     30  C   UNL     1      -5.383   7.000  -8.525  0.00  0.00    -0.015 C 
ENDBRANCH  24  26
ENDBRANCH  16  17
ENDBRANCH   7  16
TORSDOF 5
