REMARK  Name = ZINC15582284
REMARK  10 active torsions:
REMARK  status: ('A' for Active; 'I' for Inactive)
REMARK    1  A    between atoms: C_1  and  C_2
REMARK    2  A    between atoms: C_3  and  C_15
REMARK    3  A    between atoms: C_4  and  C_14
REMARK    4  A    between atoms: N_5  and  C_7
REMARK    5  A    between atoms: C_7  and  C_8
REMARK    6  A    between atoms: C_15  and  N_49
REMARK    7  A    between atoms: C_16  and  C_17
REMARK    8  A    between atoms: C_16  and  N_49
REMARK    9  A    between atoms: C_22  and  O_23
REMARK   10  A    between atoms: O_23  and  C_24
REMARK                            x       y       z     vdW  Elec       q    Type
REMARK                         _______ _______ _______ _____ _____    ______ ____
ROOT
ATOM      1  C   UNL     1       1.817  -1.851  -0.026  0.00  0.00    -0.043 C 
ENDROOT
BRANCH   1   4
ATOM      2  C   UNL     1      -1.206  -0.904   0.008  0.00  0.00    +0.068 C 
ATOM      3  C   UNL     1       0.002  -0.004   0.002  0.00  0.00    +0.062 A 
ATOM      4  C   UNL     1       1.337  -0.423  -0.013  0.00  0.00    -0.021 A 
ATOM      5  C   UNL     1       2.119   0.681  -0.015  0.00  0.00    +0.038 A 
ATOM      6  N   UNL     1       1.309   1.760  -0.001  0.00  0.00    -0.264 N 
ATOM      7  N   UNL     1      -0.016   1.304   0.009  0.00  0.00    -0.176 NA
ATOM      8  C   UNL     1       3.626   0.702  -0.030  0.00  0.00    +0.065 C 
BRANCH   6   9
ATOM      9  C   UNL     1       1.739   3.160   0.002  0.00  0.00    +0.178 C 
BRANCH   9  10
ATOM     10  C   UNL     1       1.900   3.633   1.424  0.00  0.00    -0.026 A 
ATOM     11  C   UNL     1       0.831   4.206   2.088  0.00  0.00    +0.005 A 
ATOM     12  C   UNL     1       0.978   4.635   3.394  0.00  0.00    +0.000 A 
ATOM     13  C   UNL     1       2.196   4.500   4.033  0.00  0.00    +0.000 A 
ATOM     14  C   UNL     1       3.267   3.932   3.367  0.00  0.00    +0.000 A 
ATOM     15  C   UNL     1       3.119   3.498   2.063  0.00  0.00    +0.005 A 
ENDBRANCH   9  10
ENDBRANCH   6   9
ENDBRANCH   1   4
BRANCH   1  16
ATOM     16  N   UNL     1       1.958  -2.301  -1.423  0.00  0.00    +0.385 N 
ATOM     17  H   UNL     1       2.637  -1.700  -1.906  0.00  0.00    -0.085 HD
ATOM     18  H   UNL     1       1.048  -2.236  -1.893  0.00  0.00    -0.085 HD
BRANCH  16  19
ATOM     19  C   UNL     1       2.429  -3.699  -1.466  0.00  0.00    -0.043 C 
BRANCH  19  20
ATOM     20  C   UNL     1       2.563  -4.131  -2.904  0.00  0.00    -0.021 A 
ATOM     21  C   UNL     1       1.571  -4.893  -3.492  0.00  0.00    +0.020 A 
ATOM     22  C   UNL     1       1.693  -5.289  -4.812  0.00  0.00    +0.019 A 
ATOM     23  C   UNL     1       2.807  -4.924  -5.546  0.00  0.00    +0.034 A 
ATOM     24  C   UNL     1       3.801  -4.162  -4.961  0.00  0.00    +0.061 A 
ATOM     25  C   UNL     1       3.678  -3.759  -3.639  0.00  0.00    +0.135 A 
ATOM     26 BR   UNL     1       5.324  -3.663  -5.965  0.00  0.00    -0.046 Br
ATOM     27 BR   UNL     1       0.334  -6.330  -5.614  0.00  0.00    -0.050 Br
BRANCH  25  28
ATOM     28  O   UNL     1       4.652  -3.005  -3.063  0.00  0.00    -0.494 OA
ATOM     29  C   UNL     1       5.716  -3.704  -2.415  0.00  0.00    +0.277 C 
ENDBRANCH  25  28
ENDBRANCH  19  20
ENDBRANCH  16  19
ENDBRANCH   1  16
TORSDOF 7
