REMARK  Name = ZINC09515847
REMARK  6 active torsions:
REMARK  status: ('A' for Active; 'I' for Inactive)
REMARK    1  A    between atoms: C_1  and  C_2
REMARK    2  A    between atoms: C_2  and  C_4
REMARK    3  A    between atoms: C_2  and  O_13
REMARK    4  A    between atoms: O_13  and  C_14
REMARK    5  A    between atoms: C_14  and  C_16
REMARK    6  A    between atoms: C_30  and  C_31
REMARK                            x       y       z     vdW  Elec       q    Type
REMARK                         _______ _______ _______ _____ _____    ______ ____
ROOT
ATOM      1  C   UNL     1       0.065   1.841  -2.339  0.00  0.00    +0.073 A 
ATOM      2  C   UNL     1      -0.699   2.082  -3.564  0.00  0.00    +0.015 A 
ATOM      3  C   UNL     1      -0.080   2.120  -4.817  0.00  0.00    +0.011 A 
ATOM      4  C   UNL     1      -0.831   2.344  -5.934  0.00  0.00    +0.001 A 
ATOM      5  C   UNL     1      -2.207   2.537  -5.841  0.00  0.00    +0.002 A 
ATOM      6  C   UNL     1      -2.841   2.507  -4.637  0.00  0.00    +0.028 A 
ATOM      7  C   UNL     1      -2.099   2.279  -3.463  0.00  0.00    +0.072 A 
ATOM      8  N   UNL     1      -2.690   2.247  -2.269  0.00  0.00    -0.247 NA
ATOM      9  C   UNL     1      -2.022   2.035  -1.148  0.00  0.00    +0.072 A 
ATOM     10  C   UNL     1      -0.632   1.821  -1.139  0.00  0.00    -0.007 A 
ATOM     11  C   UNL     1       0.125   1.569   0.136  0.00  0.00    +0.038 C 
ATOM     12  C   UNL     1      -0.632   2.110   1.345  0.00  0.00    +0.009 C 
ATOM     13  C   UNL     1      -2.048   1.523   1.363  0.00  0.00    +0.037 C 
ATOM     14  C   UNL     1      -2.767   2.030   0.132  0.00  0.00    -0.021 C 
ATOM     15  C   UNL     1      -4.038   2.461   0.197  0.00  0.00    +0.013 C 
ENDROOT
BRANCH  15  16
ATOM     16  C   UNL     1      -4.811   2.288   1.439  0.00  0.00    -0.025 A 
ATOM     17  C   UNL     1      -4.594   1.172   2.252  0.00  0.00    +0.011 A 
ATOM     18  C   UNL     1      -5.317   1.018   3.415  0.00  0.00    +0.039 A 
ATOM     19  C   UNL     1      -6.266   1.963   3.775  0.00  0.00    +0.123 A 
ATOM     20  C   UNL     1      -6.490   3.070   2.970  0.00  0.00    +0.039 A 
ATOM     21  C   UNL     1      -5.770   3.237   1.807  0.00  0.00    +0.011 A 
ATOM     22  F   UNL     1      -6.976   1.804   4.913  0.00  0.00    -0.205 F 
ENDBRANCH  15  16
BRANCH   1  23
ATOM     23  C   UNL     1       1.527   1.627  -2.379  0.00  0.00    +0.341 C 
ATOM     24  O   UNL     1       1.974   0.505  -2.502  0.00  0.00    -0.245 OA
BRANCH  23  25
ATOM     25  O   UNL     1       2.365   2.678  -2.278  0.00  0.00    -0.449 OA
BRANCH  25  27
ATOM     26  C   UNL     1       4.304   2.143  -0.906  0.00  0.00    +0.062 C 
ATOM     27  C   UNL     1       3.788   2.394  -2.325  0.00  0.00    +0.259 C 
BRANCH  27  28
ATOM     28  C   UNL     1       4.516   3.569  -2.924  0.00  0.00    +0.260 C 
ATOM     29  O   UNL     1       3.909   4.584  -3.193  0.00  0.00    -0.271 OA
ATOM     30  N   UNL     1       5.840   3.492  -3.161  0.00  0.00    -0.251 N 
ATOM     31  C   UNL     1       6.511   4.576  -3.713  0.00  0.00    +0.222 A 
ATOM     32  N   UNL     1       5.833   5.675  -4.006  0.00  0.00    -0.223 NA
ATOM     33  C   UNL     1       6.442   6.726  -4.529  0.00  0.00    +0.116 A 
ATOM     34  C   UNL     1       7.804   6.664  -4.778  0.00  0.00    +0.039 A 
ATOM     35  C   UNL     1       8.482   5.496  -4.464  0.00  0.00    +0.116 A 
ATOM     36  N   UNL     1       7.812   4.483  -3.939  0.00  0.00    -0.223 NA
ATOM     37  H   UNL     1       6.325   2.680  -2.945  0.00  0.00    +0.158 HD
ENDBRANCH  27  28
ENDBRANCH  25  27
ENDBRANCH  23  25
ENDBRANCH   1  23
TORSDOF 5
