REMARK  Name = ZINC23039079
REMARK  13 active torsions:
REMARK  status: ('A' for Active; 'I' for Inactive)
REMARK    1  A    between atoms: C_1  and  C_2
REMARK    2  A    between atoms: C_6  and  N_9
REMARK    3  A    between atoms: C_7  and  C_8
REMARK    4  A    between atoms: C_10  and  C_12
REMARK    5  A    between atoms: C_12  and  N_13
REMARK    6  A    between atoms: N_13  and  C_14
REMARK    7  A    between atoms: N_13  and  C_18
REMARK    8  A    between atoms: C_14  and  C_15
REMARK    9  A    between atoms: C_15  and  O_16
REMARK   10  A    between atoms: O_16  and  C_17
REMARK   11  A    between atoms: C_18  and  C_19
REMARK   12  A    between atoms: C_28  and  S_30
REMARK   13  A    between atoms: S_30  and  N_33
REMARK                            x       y       z     vdW  Elec       q    Type
REMARK                         _______ _______ _______ _____ _____    ______ ____
ROOT
ATOM      1  N   UNL     1      -0.812   6.769   0.003  0.00  0.00    +0.393 N 
ATOM      2  H   UNL     1      -1.396   6.390   0.854  0.00  0.00    -0.080 HD
ENDROOT
BRANCH   1   3
ATOM      3  C   UNL     1      -0.538   8.193   0.243  0.00  0.00    +0.020 C 
BRANCH   3   5
ATOM      4  N   UNL     1      -1.821  10.230   0.807  0.00  0.00    -0.287 N 
ATOM      5  C   UNL     1      -1.828   8.907   0.552  0.00  0.00    +0.201 C 
ATOM      6  O   UNL     1      -2.873   8.291   0.571  0.00  0.00    -0.278 OA
ATOM      7  H   UNL     1      -0.866  10.772   0.878  0.00  0.00    +0.155 HD
BRANCH   4  13
ATOM      8  C   UNL     1      -4.277  14.082   2.626  0.00  0.00    +0.044 C 
ATOM      9  C   UNL     1      -4.248  12.785   1.859  0.00  0.00    -0.046 A 
ATOM     10  C   UNL     1      -5.416  12.271   1.326  0.00  0.00    +0.004 A 
ATOM     11  C   UNL     1      -5.394  11.081   0.622  0.00  0.00    +0.002 A 
ATOM     12  C   UNL     1      -4.204  10.402   0.448  0.00  0.00    +0.023 A 
ATOM     13  C   UNL     1      -3.029  10.916   0.982  0.00  0.00    +0.036 A 
ATOM     14  C   UNL     1      -3.056  12.108   1.694  0.00  0.00    -0.026 A 
ATOM     15  C   UNL     1      -1.784  12.665   2.280  0.00  0.00    +0.046 C 
ENDBRANCH   4  13
ENDBRANCH   3   5
ENDBRANCH   1   3
BRANCH   1  16
ATOM     16  C   UNL     1      -1.614   6.585  -1.214  0.00  0.00    -0.049 C 
BRANCH  16  17
ATOM     17  C   UNL     1      -2.300   5.218  -1.170  0.00  0.00    +0.141 C 
BRANCH  17  18
ATOM     18  O   UNL     1      -3.247   5.194  -0.100  0.00  0.00    -0.385 OA
ATOM     19  C   UNL     1      -3.947   3.956   0.029  0.00  0.00    +0.193 C 
ENDBRANCH  17  18
ENDBRANCH  16  17
ENDBRANCH   1  16
BRANCH   1  20
ATOM     20  C   UNL     1       0.436   5.998  -0.067  0.00  0.00    +0.020 C 
BRANCH  20  21
ATOM     21  C   UNL     1       0.977   5.789   1.324  0.00  0.00    +0.203 C 
ATOM     22  O   UNL     1       0.421   6.300   2.274  0.00  0.00    -0.277 OA
ATOM     23  N   UNL     1       2.077   5.034   1.514  0.00  0.00    -0.272 N 
ATOM     24  C   UNL     1       2.832   4.368   0.449  0.00  0.00    +0.118 C 
ATOM     25  C   UNL     1       3.983   3.642   1.165  0.00  0.00    +0.056 C 
ATOM     26  C   UNL     1       3.785   3.965   2.629  0.00  0.00    -0.023 A 
ATOM     27  C   UNL     1       2.666   4.773   2.755  0.00  0.00    +0.040 A 
ATOM     28  C   UNL     1       2.280   5.204   4.026  0.00  0.00    +0.026 A 
ATOM     29  C   UNL     1       3.006   4.829   5.136  0.00  0.00    +0.030 A 
ATOM     30  C   UNL     1       4.121   4.022   5.000  0.00  0.00    +0.105 A 
ATOM     31  C   UNL     1       4.509   3.592   3.745  0.00  0.00    +0.034 A 
BRANCH  30  32
ATOM     32  S   UNL     1       5.045   3.546   6.422  0.00  0.00    +0.056 S 
ATOM     33  O   UNL     1       6.357   3.239   5.970  0.00  0.00    -0.153 OA
ATOM     34  O   UNL     1       4.793   4.527   7.419  0.00  0.00    -0.153 OA
BRANCH  32  35
ATOM     35  N   UNL     1       4.393   2.128   6.978  0.00  0.00    -0.204 NA
ATOM     36  H   UNL     1       4.945   1.795   7.869  0.00  0.00    +0.144 HD
ATOM     37  H   UNL     1       4.465   1.360   6.194  0.00  0.00    +0.144 HD
ENDBRANCH  32  35
ENDBRANCH  30  32
ENDBRANCH  20  21
ENDBRANCH   1  20
TORSDOF 10
