REMARK  Name = ZINC09865790
REMARK  4 active torsions:
REMARK  status: ('A' for Active; 'I' for Inactive)
REMARK    1  A    between atoms: C_12  and  C_14
REMARK    2  A    between atoms: C_14  and  O_15
REMARK    3  A    between atoms: O_15  and  C_16
REMARK    4  A    between atoms: C_16  and  C_18
REMARK                            x       y       z     vdW  Elec       q    Type
REMARK                         _______ _______ _______ _____ _____    ______ ____
ROOT
ATOM      1  C   UNL     1       1.046   6.115   0.012  0.00  0.00    +0.002 A 
ATOM      2  C   UNL     1       0.052   5.407  -0.640  0.00  0.00    +0.002 A 
ATOM      3  C   UNL     1       0.061   4.023  -0.625  0.00  0.00    +0.025 A 
ATOM      4  C   UNL     1       1.067   3.351   0.039  0.00  0.00    +0.059 A 
ATOM      5  C   UNL     1       2.066   4.063   0.711  0.00  0.00    +0.055 A 
ATOM      6  C   UNL     1       2.052   5.449   0.687  0.00  0.00    +0.025 A 
ATOM      7  N   UNL     1       3.068   3.370   1.399  0.00  0.00    -0.282 N 
ATOM      8  C   UNL     1       3.281   2.060   1.161  0.00  0.00    +0.241 C 
ATOM      9  O   UNL     1       4.164   1.477   1.754  0.00  0.00    -0.273 OA
ATOM     10  C   UNL     1       2.433   1.315   0.167  0.00  0.00    +0.118 C 
ATOM     11  N   UNL     1       1.112   1.947   0.070  0.00  0.00    -0.252 N 
ATOM     12  C   UNL     1      -0.014   1.209   0.009  0.00  0.00    +0.258 C 
ATOM     13  O   UNL     1       0.049   0.026  -0.251  0.00  0.00    -0.271 OA
ATOM     14  C   UNL     1       3.114   1.316  -1.212  0.00  0.00    +0.036 C 
ATOM     15  C   UNL     1       3.865  -0.040  -1.262  0.00  0.00    +0.003 C 
ATOM     16  C   UNL     1       2.884  -1.002  -0.547  0.00  0.00    +0.003 C 
ATOM     17  C   UNL     1       2.283  -0.152   0.593  0.00  0.00    +0.036 C 
ATOM     18  H   UNL     1       3.614   3.835   2.052  0.00  0.00    +0.155 HD
ENDROOT
BRANCH  12  19
ATOM     19  C   UNL     1      -1.353   1.855   0.257  0.00  0.00    +0.328 C 
BRANCH  19  20
ATOM     20  O   UNL     1      -2.379   0.830   0.327  0.00  0.00    -0.450 OA
BRANCH  20  21
ATOM     21  C   UNL     1      -3.644   1.244   0.546  0.00  0.00    +0.375 C 
ATOM     22  O   UNL     1      -3.882   2.430   0.674  0.00  0.00    -0.241 OA
BRANCH  21  23
ATOM     23  C   UNL     1      -4.731   0.266   0.630  0.00  0.00    +0.211 A 
ATOM     24  C   UNL     1      -6.051   0.548   0.846  0.00  0.00    +0.056 A 
ATOM     25  C   UNL     1      -6.730  -0.679   0.850  0.00  0.00    +0.042 A 
ATOM     26  C   UNL     1      -5.808  -1.645   0.638  0.00  0.00    +0.196 A 
ATOM     27  O   UNL     1      -4.606  -1.071   0.500  0.00  0.00    -0.456 OA
ENDBRANCH  21  23
ENDBRANCH  20  21
ENDBRANCH  19  20
ENDBRANCH  12  19
TORSDOF 4
