REMARK  Name = ZINC64316577
REMARK  3 active torsions:
REMARK  status: ('A' for Active; 'I' for Inactive)
REMARK    1  A    between atoms: C_1  and  C_2
REMARK    2  A    between atoms: C_10  and  C_11
REMARK    3  A    between atoms: C_21  and  C_23
REMARK                            x       y       z     vdW  Elec       q    Type
REMARK                         _______ _______ _______ _____ _____    ______ ____
ROOT
ATOM      1  C   UNL     1       0.031  -0.382   2.483  0.00  0.00    +0.287 C 
ATOM      2  O   UNL     1      -0.027  -0.750   1.325  0.00  0.00    -0.266 OA
ATOM      3  N   UNL     1       0.155  -1.289   3.473  0.00  0.00    -0.252 N 
ATOM      4  C   UNL     1       0.289  -2.667   3.285  0.00  0.00    +0.041 A 
ATOM      5  C   UNL     1       0.324  -3.398   2.096  0.00  0.00    +0.024 A 
ATOM      6  C   UNL     1       0.464  -4.769   2.127  0.00  0.00    +0.002 A 
ATOM      7  C   UNL     1       0.570  -5.431   3.337  0.00  0.00    +0.000 A 
ATOM      8  C   UNL     1       0.536  -4.714   4.518  0.00  0.00    +0.005 A 
ATOM      9  C   UNL     1       0.396  -3.339   4.492  0.00  0.00    -0.024 A 
ATOM     10  C   UNL     1       0.330  -2.327   5.614  0.00  0.00    +0.069 C 
ATOM     11  C   UNL     1       0.175  -0.973   4.904  0.00  0.00    +0.172 C 
ENDROOT
BRANCH   1  21
ATOM     12  C   UNL     1       0.048   1.919   0.391  0.00  0.00    +0.048 C 
ATOM     13  C   UNL     1      -0.026   2.056   1.890  0.00  0.00    +0.008 A 
ATOM     14  C   UNL     1      -0.110   3.299   2.656  0.00  0.00    +0.024 A 
ATOM     15  C   UNL     1      -0.148   4.653   2.314  0.00  0.00    +0.012 A 
ATOM     16  C   UNL     1      -0.231   5.598   3.297  0.00  0.00    +0.001 A 
ATOM     17  C   UNL     1      -0.277   5.221   4.633  0.00  0.00    +0.004 A 
ATOM     18  C   UNL     1      -0.241   3.891   4.991  0.00  0.00    +0.047 A 
ATOM     19  C   UNL     1      -0.158   2.911   4.008  0.00  0.00    +0.136 A 
ATOM     20  O   UNL     1      -0.106   1.566   4.048  0.00  0.00    -0.450 OA
ATOM     21  C   UNL     1      -0.034   1.050   2.803  0.00  0.00    +0.194 A 
ENDBRANCH   1  21
BRANCH  11  22
ATOM     22  C   UNL     1       1.343  -0.075   5.224  0.00  0.00    +0.232 C 
ATOM     23  O   UNL     1       2.098   0.275   4.343  0.00  0.00    -0.274 OA
ATOM     24  N   UNL     1       1.548   0.338   6.491  0.00  0.00    -0.328 N 
ATOM     25  H   UNL     1       0.944   0.057   7.196  0.00  0.00    +0.145 HD
ATOM     26  H   UNL     1       2.300   0.915   6.697  0.00  0.00    +0.145 HD
ENDBRANCH  11  22
TORSDOF 2
