REMARK  Name = ZINC09187485
REMARK  7 active torsions:
REMARK  status: ('A' for Active; 'I' for Inactive)
REMARK    1  A    between atoms: C_1  and  C_2
REMARK    2  A    between atoms: C_12  and  C_15
REMARK    3  A    between atoms: C_18  and  S_20
REMARK    4  A    between atoms: S_20  and  N_23
REMARK    5  A    between atoms: N_23  and  C_24
REMARK    6  A    between atoms: C_24  and  C_25
REMARK    7  A    between atoms: C_25  and  C_26
REMARK                            x       y       z     vdW  Elec       q    Type
REMARK                         _______ _______ _______ _____ _____    ______ ____
ROOT
ATOM      1  C   UNL     1      -4.192   1.525   4.494  0.00  0.00    +0.176 A 
ATOM      2  C   UNL     1      -3.823   0.366   5.108  0.00  0.00    +0.055 A 
ATOM      3  C   UNL     1      -2.421   0.280   5.003  0.00  0.00    +0.071 A 
ATOM      4  C   UNL     1      -2.006   1.376   4.338  0.00  0.00    +0.258 A 
ATOM      5  O   UNL     1      -3.077   2.129   4.037  0.00  0.00    -0.433 OA
ENDROOT
BRANCH   1  17
ATOM      6  C   UNL     1      -5.168   5.554   0.881  0.00  0.00    +0.068 C 
ATOM      7  C   UNL     1      -5.943   4.725   1.873  0.00  0.00    +0.067 A 
ATOM      8  C   UNL     1      -7.381   4.941   2.034  0.00  0.00    +0.008 A 
ATOM      9  C   UNL     1      -8.066   5.902   1.288  0.00  0.00    +0.010 A 
ATOM     10  C   UNL     1      -9.411   6.069   1.471  0.00  0.00    +0.001 A 
ATOM     11  C   UNL     1     -10.107   5.296   2.390  0.00  0.00    +0.001 A 
ATOM     12  C   UNL     1      -9.458   4.340   3.140  0.00  0.00    +0.012 A 
ATOM     13  C   UNL     1      -8.087   4.151   2.971  0.00  0.00    +0.030 A 
ATOM     14  C   UNL     1      -7.337   3.152   3.736  0.00  0.00    +0.186 A 
ATOM     15  N   UNL     1      -7.666   2.274   4.662  0.00  0.00    -0.127 NA
ATOM     16  N   UNL     1      -6.624   1.614   5.028  0.00  0.00    -0.124 NA
ATOM     17  C   UNL     1      -5.566   2.032   4.358  0.00  0.00    +0.220 A 
ATOM     18  N   UNL     1      -5.986   3.029   3.518  0.00  0.00    -0.189 N 
ATOM     19  N   UNL     1      -5.329   3.824   2.580  0.00  0.00    -0.168 NA
ENDBRANCH   1  17
BRANCH   4  20
ATOM     20  S   UNL     1      -0.334   1.762   3.936  0.00  0.00    +0.092 S 
ATOM     21  O   UNL     1       0.479   1.069   4.874  0.00  0.00    -0.150 OA
ATOM     22  O   UNL     1      -0.272   3.171   3.768  0.00  0.00    -0.150 OA
BRANCH  20  23
ATOM     23  N   UNL     1      -0.020   1.094   2.454  0.00  0.00    -0.187 NA
ATOM     24  H   UNL     1       0.633   0.382   2.371  0.00  0.00    +0.148 HD
BRANCH  23  25
ATOM     25  C   UNL     1      -0.729   1.579   1.267  0.00  0.00    +0.110 C 
BRANCH  25  26
ATOM     26  C   UNL     1      -0.013   1.086   0.008  0.00  0.00    +0.052 C 
BRANCH  26  27
ATOM     27  C   UNL     1      -0.742   1.585  -1.213  0.00  0.00    -0.046 A 
ATOM     28  C   UNL     1      -1.750   0.825  -1.775  0.00  0.00    +0.003 A 
ATOM     29  C   UNL     1      -2.422   1.285  -2.892  0.00  0.00    +0.000 A 
ATOM     30  C   UNL     1      -2.079   2.501  -3.453  0.00  0.00    +0.000 A 
ATOM     31  C   UNL     1      -1.066   3.259  -2.894  0.00  0.00    +0.000 A 
ATOM     32  C   UNL     1      -0.398   2.801  -1.774  0.00  0.00    +0.003 A 
ENDBRANCH  26  27
ENDBRANCH  25  26
ENDBRANCH  23  25
ENDBRANCH  20  23
ENDBRANCH   4  20
TORSDOF 6
