REMARK  Name = ZINC04652844
REMARK  8 active torsions:
REMARK  status: ('A' for Active; 'I' for Inactive)
REMARK    1  A    between atoms: C_1  and  C_2
REMARK    2  A    between atoms: C_2  and  C_3
REMARK    3  A    between atoms: C_4  and  C_20
REMARK    4  A    between atoms: C_5  and  C_13
REMARK    5  A    between atoms: C_7  and  C_11
REMARK    6  A    between atoms: C_8  and  N_10
REMARK    7  A    between atoms: C_20  and  O_22
REMARK    8  A    between atoms: O_22  and  C_23
REMARK                            x       y       z     vdW  Elec       q    Type
REMARK                         _______ _______ _______ _____ _____    ______ ____
ROOT
ATOM      1  C   UNL     1       2.349   1.460   0.134  0.00  0.00    +0.118 C 
ATOM      2  C   UNL     1       2.378   0.180   0.529  0.00  0.00    +0.087 C 
ATOM      3  C   UNL     1       1.164  -0.700   0.403  0.00  0.00    +0.106 C 
ATOM      4  C   UNL     1      -0.060   0.149   0.191  0.00  0.00    +0.098 C 
ATOM      5  C   UNL     1       0.053   1.445  -0.189  0.00  0.00    +0.198 C 
ATOM      6  O   UNL     1       1.250   2.022  -0.391  0.00  0.00    -0.445 OA
ENDROOT
BRANCH   3   7
ATOM      7  C   UNL     1       1.339  -1.630  -0.770  0.00  0.00    -0.016 A 
ATOM      8  C   UNL     1       1.500  -1.115  -2.042  0.00  0.00    +0.006 A 
ATOM      9  C   UNL     1       1.665  -1.968  -3.118  0.00  0.00    +0.000 A 
ATOM     10  C   UNL     1       1.659  -3.337  -2.922  0.00  0.00    +0.001 A 
ATOM     11  C   UNL     1       1.493  -3.853  -1.651  0.00  0.00    +0.020 A 
ATOM     12  C   UNL     1       1.333  -2.999  -0.574  0.00  0.00    +0.045 A 
ATOM     13 CL   UNL     1       1.125  -3.647   1.024  0.00  0.00    -0.083 Cl
ENDBRANCH   3   7
BRANCH   5  14
ATOM     14  N   UNL     1      -1.086   2.187  -0.377  0.00  0.00    -0.328 N 
ATOM     15  H   UNL     1      -1.957   1.783  -0.238  0.00  0.00    +0.145 HD
ATOM     16  H   UNL     1      -1.021   3.116  -0.648  0.00  0.00    +0.145 HD
ENDBRANCH   5  14
BRANCH   1  18
ATOM     17  C   UNL     1       3.683   2.824   1.718  0.00  0.00    +0.012 C 
ATOM     18  C   UNL     1       3.593   2.296   0.284  0.00  0.00    +0.071 C 
ENDBRANCH   1  18
BRANCH   4  19
ATOM     19  C   UNL     1      -1.359  -0.419   0.391  0.00  0.00    +0.101 C 
ATOM     20  N   UNL     1      -2.390  -0.870   0.550  0.00  0.00    -0.191 NA
ENDBRANCH   4  19
BRANCH   2  21
ATOM     21  C   UNL     1       3.572  -0.353   1.074  0.00  0.00    +0.339 C 
ATOM     22  O   UNL     1       4.517   0.379   1.300  0.00  0.00    -0.245 OA
BRANCH  21  23
ATOM     23  O   UNL     1       3.660  -1.672   1.342  0.00  0.00    -0.465 OA
ATOM     24  C   UNL     1       4.894  -2.142   1.891  0.00  0.00    +0.280 C 
ENDBRANCH  21  23
ENDBRANCH   2  21
TORSDOF 6
