REMARK  Name = ZINC62777898
REMARK  3 active torsions:
REMARK  status: ('A' for Active; 'I' for Inactive)
REMARK    1  A    between atoms: C_6  and  C_7
REMARK    2  A    between atoms: C_8  and  C_13
REMARK    3  A    between atoms: C_11  and  N_12
REMARK                            x       y       z     vdW  Elec       q    Type
REMARK                         _______ _______ _______ _____ _____    ______ ____
ROOT
ATOM      1  C   UNL     1      -1.270  -0.764   0.009  0.00  0.00    +0.072 A 
ATOM      2  C   UNL     1      -2.269  -0.788   1.081  0.00  0.00    +0.141 A 
ATOM      3  N   UNL     1      -3.239  -1.582   0.688  0.00  0.00    -0.074 NA
ATOM      4  O   UNL     1      -2.925  -2.084  -0.596  0.00  0.00    -0.339 OA
ATOM      5  C   UNL     1      -1.746  -1.583  -0.995  0.00  0.00    +0.224 A 
ENDROOT
BRANCH   1  11
ATOM      6  C   UNL     1      -0.017   1.390   0.010  0.00  0.00    +0.012 A 
ATOM      7  C   UNL     1       1.169   2.095   0.002  0.00  0.00    +0.050 A 
ATOM      8  C   UNL     1       2.383   1.423  -0.013  0.00  0.00    +0.162 A 
ATOM      9  C   UNL     1       2.408   0.032  -0.018  0.00  0.00    +0.163 A 
ATOM     10  C   UNL     1       1.221  -0.681  -0.012  0.00  0.00    +0.058 A 
ATOM     11  C   UNL     1       0.002  -0.004   0.002  0.00  0.00    -0.007 A 
ATOM     12  O   UNL     1       3.590  -0.643  -0.025  0.00  0.00    -0.485 OA
ATOM     13  C   UNL     1       4.753   0.099  -0.406  0.00  0.00    +0.270 C 
ATOM     14  C   UNL     1       4.735   1.439   0.341  0.00  0.00    +0.270 C 
ATOM     15  O   UNL     1       3.541   2.139  -0.024  0.00  0.00    -0.485 OA
ENDBRANCH   1  11
BRANCH   2  16
ATOM     16  C   UNL     1      -2.199  -0.056   2.364  0.00  0.00    +0.088 A 
ATOM     17  C   UNL     1      -2.657  -0.496   3.574  0.00  0.00    +0.051 A 
ATOM     18  C   UNL     1      -2.394   0.496   4.518  0.00  0.00    +0.135 A 
ATOM     19  N   UNL     1      -1.803   1.498   3.917  0.00  0.00    -0.182 NA
ATOM     20  N   UNL     1      -1.661   1.181   2.560  0.00  0.00    -0.275 N 
ATOM     21  H   UNL     1      -1.253   1.742   1.881  0.00  0.00    +0.189 HD
ENDBRANCH   2  16
BRANCH   5  22
ATOM     22  N   UNL     1      -1.119  -1.843  -2.196  0.00  0.00    -0.327 N 
ATOM     23  H   UNL     1      -0.262  -1.433  -2.394  0.00  0.00    +0.145 HD
ATOM     24  H   UNL     1      -1.534  -2.435  -2.842  0.00  0.00    +0.145 HD
ENDBRANCH   5  22
TORSDOF 3
