REMARK  Name = ZINC67299114
REMARK  7 active torsions:
REMARK  status: ('A' for Active; 'I' for Inactive)
REMARK    1  A    between atoms: C_1  and  C_2
REMARK    2  A    between atoms: C_5  and  N_9
REMARK    3  A    between atoms: C_11  and  C_22
REMARK    4  A    between atoms: C_17  and  O_20
REMARK    5  A    between atoms: O_20  and  C_21
REMARK    6  A    between atoms: N_24  and  C_25
REMARK    7  A    between atoms: C_25  and  C_26
REMARK                            x       y       z     vdW  Elec       q    Type
REMARK                         _______ _______ _______ _____ _____    ______ ____
ROOT
ATOM      1  N   UNL     1      -0.352  -4.295  -0.161  0.00  0.00    -0.324 N 
ATOM      2  C   UNL     1       0.548  -4.826  -0.960  0.00  0.00    +0.212 A 
ATOM      3  C   UNL     1       0.893  -6.259  -0.872  0.00  0.00    +0.097 A 
ATOM      4  C   UNL     1       1.371  -6.867  -2.025  0.00  0.00    +0.030 A 
ATOM      5  C   UNL     1       1.490  -6.035  -3.225  0.00  0.00    +0.022 A 
ATOM      6  C   UNL     1       1.705  -6.616  -4.481  0.00  0.00    +0.012 A 
ATOM      7  C   UNL     1       1.807  -5.822  -5.588  0.00  0.00    +0.004 A 
ATOM      8  C   UNL     1       1.700  -4.443  -5.481  0.00  0.00    +0.049 A 
ATOM      9  C   UNL     1       1.491  -3.846  -4.249  0.00  0.00    +0.163 A 
ATOM     10  C   UNL     1       1.385  -4.637  -3.108  0.00  0.00    +0.179 A 
ATOM     11  O   UNL     1       1.183  -4.075  -1.895  0.00  0.00    -0.435 OA
ATOM     12  H   UNL     1      -0.724  -4.818   0.567  0.00  0.00    +0.169 HD
ENDROOT
BRANCH   1  17
ATOM     13  C   UNL     1      -2.059   1.025  -0.971  0.00  0.00    +0.044 C 
ATOM     14  C   UNL     1      -1.603  -0.395  -0.754  0.00  0.00    -0.049 A 
ATOM     15  C   UNL     1      -1.389  -1.224  -1.842  0.00  0.00    +0.005 A 
ATOM     16  C   UNL     1      -0.973  -2.525  -1.652  0.00  0.00    +0.027 A 
ATOM     17  C   UNL     1      -0.765  -3.006  -0.357  0.00  0.00    +0.060 A 
ATOM     18  C   UNL     1      -0.983  -2.164   0.737  0.00  0.00    +0.065 A 
ATOM     19  C   UNL     1      -1.395  -0.863   0.531  0.00  0.00    +0.025 A 
ATOM     20 CL   UNL     1      -0.729  -2.751   2.351  0.00  0.00    -0.081 Cl
ENDBRANCH   1  17
BRANCH   3  21
ATOM     21  C   UNL     1       0.737  -7.011   0.385  0.00  0.00    +0.250 C 
ATOM     22  O   UNL     1       0.417  -6.430   1.405  0.00  0.00    -0.270 OA
ATOM     23  N   UNL     1       0.949  -8.341   0.406  0.00  0.00    -0.304 N 
ATOM     24  H   UNL     1       1.285  -8.791  -0.386  0.00  0.00    +0.149 HD
BRANCH  23  25
ATOM     25  C   UNL     1       0.671  -9.109   1.622  0.00  0.00    +0.179 C 
BRANCH  25  26
ATOM     26  C   UNL     1       0.989 -10.562   1.382  0.00  0.00    +0.122 A 
ATOM     27  C   UNL     1       2.177 -11.154   1.602  0.00  0.00    +0.046 A 
ATOM     28  C   UNL     1       2.029 -12.514   1.244  0.00  0.00    +0.041 A 
ATOM     29  C   UNL     1       0.760 -12.672   0.828  0.00  0.00    +0.195 A 
ATOM     30  O   UNL     1       0.133 -11.488   0.919  0.00  0.00    -0.466 OA
ENDBRANCH  25  26
ENDBRANCH  23  25
ENDBRANCH   3  21
BRANCH   9  31
ATOM     31  O   UNL     1       1.389  -2.494  -4.154  0.00  0.00    -0.491 OA
ATOM     32  C   UNL     1       1.508  -1.747  -5.367  0.00  0.00    +0.277 C 
ENDBRANCH   9  31
TORSDOF 5
