REMARK  Name = ZINC01450750
REMARK  9 active torsions:
REMARK  status: ('A' for Active; 'I' for Inactive)
REMARK    1  A    between atoms: C_1  and  C_2
REMARK    2  A    between atoms: C_5  and  C_8
REMARK    3  A    between atoms: N_10  and  N_11
REMARK    4  A    between atoms: C_15  and  C_16
REMARK    5  A    between atoms: C_19  and  O_22
REMARK    6  A    between atoms: O_22  and  C_23
REMARK    7  A    between atoms: C_23  and  C_25
REMARK    8  A    between atoms: C_29  and  O_31
REMARK    9  A    between atoms: O_31  and  C_32
REMARK                            x       y       z     vdW  Elec       q    Type
REMARK                         _______ _______ _______ _____ _____    ______ ____
ROOT
ATOM      1  N   UNL     1      -4.257   3.831   5.986  0.00  0.00    -0.169 N 
ATOM      2  C   UNL     1      -4.890   4.991   5.984  0.00  0.00    +0.275 C 
ATOM      3  O   UNL     1      -4.917   5.704   4.998  0.00  0.00    -0.267 OA
ATOM      4  C   UNL     1      -5.564   5.379   7.240  0.00  0.00    +0.079 C 
ATOM      5  C   UNL     1      -6.279   6.496   7.529  0.00  0.00    +0.028 C 
ATOM      6  S   UNL     1      -5.176   3.974   8.275  0.00  0.00    -0.059 S 
ATOM      7  C   UNL     1      -4.234   3.042   7.079  0.00  0.00    +0.138 C 
ATOM      8  S   UNL     1      -3.481   1.517   7.275  0.00  0.00    -0.026 S 
ENDROOT
BRANCH   5   9
ATOM      9  C   UNL     1      -7.001   6.596   8.804  0.00  0.00    -0.024 A 
ATOM     10  C   UNL     1      -7.110   5.477   9.639  0.00  0.00    +0.011 A 
ATOM     11  C   UNL     1      -7.784   5.578  10.836  0.00  0.00    +0.047 A 
ATOM     12  C   UNL     1      -8.365   6.784  11.210  0.00  0.00    +0.132 A 
ATOM     13  C   UNL     1      -8.264   7.896  10.383  0.00  0.00    +0.047 A 
ATOM     14  C   UNL     1      -7.588   7.809   9.187  0.00  0.00    +0.011 A 
BRANCH  12  15
ATOM     15  O   UNL     1      -9.032   6.877  12.389  0.00  0.00    -0.422 OA
BRANCH  15  16
ATOM     16  C   UNL     1     -10.378   6.866  12.332  0.00  0.00    +0.345 C 
ATOM     17  O   UNL     1     -10.941   6.866  11.255  0.00  0.00    -0.245 OA
BRANCH  16  18
ATOM     18  C   UNL     1     -11.170   6.854  13.579  0.00  0.00    +0.063 A 
ATOM     19  C   UNL     1     -10.526   6.853  14.819  0.00  0.00    +0.015 A 
ATOM     20  C   UNL     1     -11.269   6.843  15.981  0.00  0.00    +0.004 A 
ATOM     21  C   UNL     1     -12.651   6.832  15.924  0.00  0.00    +0.045 A 
ATOM     22  C   UNL     1     -13.300   6.833  14.697  0.00  0.00    +0.121 A 
ATOM     23  C   UNL     1     -12.565   6.849  13.523  0.00  0.00    +0.060 A 
BRANCH  22  24
ATOM     24  O   UNL     1     -14.658   6.823  14.647  0.00  0.00    -0.495 OA
ATOM     25  C   UNL     1     -15.353   6.812  15.895  0.00  0.00    +0.277 C 
ENDBRANCH  22  24
ENDBRANCH  16  18
ENDBRANCH  15  16
ENDBRANCH  12  15
ENDBRANCH   5   9
BRANCH   1  28
ATOM     26  C   UNL     1      -2.255   3.466   4.750  0.00  0.00    +0.261 C 
ATOM     27  O   UNL     1      -1.613   3.885   5.693  0.00  0.00    -0.269 OA
ATOM     28  N   UNL     1      -3.599   3.408   4.823  0.00  0.00    -0.222 N 
ATOM     29  H   UNL     1      -4.181   3.028   3.970  0.00  0.00    +0.174 HD
BRANCH  26  34
ATOM     30  C   UNL     1       0.445   1.729  -0.026  0.00  0.00    +0.044 C 
ATOM     31  C   UNL     1      -0.262   2.184   1.225  0.00  0.00    -0.050 A 
ATOM     32  C   UNL     1      -1.642   2.128   1.295  0.00  0.00    +0.004 A 
ATOM     33  C   UNL     1      -2.296   2.538   2.439  0.00  0.00    +0.013 A 
ATOM     34  C   UNL     1      -1.561   3.020   3.523  0.00  0.00    +0.038 A 
ATOM     35  C   UNL     1      -0.169   3.079   3.444  0.00  0.00    +0.013 A 
ATOM     36  C   UNL     1       0.472   2.661   2.297  0.00  0.00    +0.004 A 
ENDBRANCH  26  34
ENDBRANCH   1  28
TORSDOF 7
