REMARK  Name = ZINC02571716
REMARK  8 active torsions:
REMARK  status: ('A' for Active; 'I' for Inactive)
REMARK    1  A    between atoms: C_3  and  O_21
REMARK    2  A    between atoms: C_6  and  C_7
REMARK    3  A    between atoms: N_8  and  N_9
REMARK    4  A    between atoms: C_10  and  C_12
REMARK    5  A    between atoms: C_12  and  O_13
REMARK    6  A    between atoms: O_13  and  C_14
REMARK    7  A    between atoms: O_21  and  C_22
REMARK    8  A    between atoms: C_22  and  C_24
REMARK                            x       y       z     vdW  Elec       q    Type
REMARK                         _______ _______ _______ _____ _____    ______ ____
ROOT
ATOM      1  C   UNL     1       2.622  10.597  -0.050  0.00  0.00    +0.013 A 
ATOM      2  C   UNL     1       2.414  11.960  -0.043  0.00  0.00    +0.047 A 
ATOM      3  C   UNL     1       3.495  12.828   0.041  0.00  0.00    +0.132 A 
ATOM      4  C   UNL     1       4.788  12.329   0.122  0.00  0.00    +0.047 A 
ATOM      5  C   UNL     1       5.005  10.968   0.121  0.00  0.00    +0.013 A 
ATOM      6  C   UNL     1       3.921  10.090   0.038  0.00  0.00    -0.005 A 
ENDROOT
BRANCH   6   7
ATOM      7  C   UNL     1       4.148   8.633   0.036  0.00  0.00    +0.138 C 
ATOM      8  N   UNL     1       3.139   7.820  -0.042  0.00  0.00    -0.188 NA
BRANCH   8   9
ATOM      9  N   UNL     1       3.355   6.436  -0.043  0.00  0.00    -0.204 N 
ATOM     10  C   UNL     1       2.308   5.591  -0.124  0.00  0.00    +0.270 C 
ATOM     11  O   UNL     1       1.179   6.029  -0.195  0.00  0.00    -0.270 OA
ATOM     12  H   UNL     1       4.258   6.085   0.013  0.00  0.00    +0.177 HD
BRANCH  10  13
ATOM     13  C   UNL     1       2.540   4.102  -0.126  0.00  0.00    +0.326 C 
BRANCH  13  14
ATOM     14  O   UNL     1       1.285   3.424  -0.219  0.00  0.00    -0.483 OA
BRANCH  14  15
ATOM     15  C   UNL     1       1.317   2.066  -0.233  0.00  0.00    +0.121 A 
ATOM     16  C   UNL     1       0.135   1.344  -0.321  0.00  0.00    +0.047 A 
ATOM     17  C   UNL     1       0.170  -0.037  -0.335  0.00  0.00    +0.023 A 
ATOM     18  C   UNL     1       1.381  -0.701  -0.262  0.00  0.00    +0.041 A 
ATOM     19  C   UNL     1       2.561   0.017  -0.173  0.00  0.00    +0.023 A 
ATOM     20  C   UNL     1       2.531   1.398  -0.158  0.00  0.00    +0.047 A 
ATOM     21 CL   UNL     1       1.422  -2.436  -0.280  0.00  0.00    -0.084 Cl
ENDBRANCH  14  15
ENDBRANCH  13  14
ENDBRANCH  10  13
ENDBRANCH   8   9
ENDBRANCH   6   7
BRANCH   3  22
ATOM     22  O   UNL     1       3.286  14.171   0.041  0.00  0.00    -0.422 OA
BRANCH  22  23
ATOM     23  C   UNL     1       3.690  14.854  -1.048  0.00  0.00    +0.346 C 
ATOM     24  O   UNL     1       4.119  14.256  -2.015  0.00  0.00    -0.244 OA
BRANCH  23  25
ATOM     25  C   UNL     1       3.613  16.327  -1.065  0.00  0.00    +0.078 A 
ATOM     26  C   UNL     1       3.121  17.017   0.045  0.00  0.00    +0.018 A 
ATOM     27  C   UNL     1       3.051  18.394   0.022  0.00  0.00    +0.021 A 
ATOM     28  C   UNL     1       3.468  19.094  -1.099  0.00  0.00    +0.042 A 
ATOM     29  C   UNL     1       3.957  18.417  -2.203  0.00  0.00    +0.040 A 
ATOM     30  C   UNL     1       4.037  17.039  -2.191  0.00  0.00    +0.056 A 
ATOM     31 CL   UNL     1       4.657  16.192  -3.574  0.00  0.00    -0.083 Cl
ATOM     32 CL   UNL     1       3.376  20.827  -1.118  0.00  0.00    -0.083 Cl
ENDBRANCH  23  25
ENDBRANCH  22  23
ENDBRANCH   3  22
TORSDOF 8
