REMARK  Name = ZINC03116739
REMARK  5 active torsions:
REMARK  status: ('A' for Active; 'I' for Inactive)
REMARK    1  A    between atoms: C_2  and  C_27
REMARK    2  A    between atoms: C_5  and  C_8
REMARK    3  A    between atoms: N_9  and  O_10
REMARK    4  A    between atoms: N_14  and  C_17
REMARK    5  A    between atoms: C_20  and  C_22
REMARK                            x       y       z     vdW  Elec       q    Type
REMARK                         _______ _______ _______ _____ _____    ______ ____
ROOT
ATOM      1  C   UNL     1       0.013  -5.708  -1.595  0.00  0.00    +0.187 C 
ATOM      2  N   UNL     1      -1.213  -6.086  -1.384  0.00  0.00    -0.069 NA
ATOM      3  N   UNL     1       0.560  -4.681  -0.843  0.00  0.00    -0.308 N 
ATOM      4  C   UNL     1      -0.186  -4.084   0.275  0.00  0.00    +0.125 C 
ATOM      5  C   UNL     1      -0.191  -2.562   0.099  0.00  0.00    +0.125 C 
ATOM      6  N   UNL     1       1.190  -2.085  -0.051  0.00  0.00    -0.313 N 
ATOM      7  C   UNL     1       1.815  -2.634  -1.263  0.00  0.00    +0.125 C 
ATOM      8  C   UNL     1       1.902  -4.159  -1.143  0.00  0.00    +0.125 C 
ENDROOT
BRANCH   6   9
ATOM      9  C   UNL     1       1.241  -0.696  -0.050  0.00  0.00    +0.118 A 
ATOM     10  C   UNL     1       1.898  -0.030   0.982  0.00  0.00    +0.079 A 
ATOM     11  C   UNL     1       1.940   1.353   0.970  0.00  0.00    +0.037 A 
ATOM     12  C   UNL     1       1.323   2.026  -0.077  0.00  0.00    +0.072 A 
ATOM     13  C   UNL     1       0.689   1.302  -1.066  0.00  0.00    +0.096 A 
ATOM     14 CL   UNL     1       2.653  -0.922   2.265  0.00  0.00    -0.080 Cl
ATOM     15  N   UNL     1       0.627  -0.057  -1.087  0.00  0.00    -0.348 N 
ATOM     16  H   UNL     1       0.149  -0.569  -1.837  0.00  0.00    +0.167 HD
BRANCH  12  17
ATOM     17  C   UNL     1       1.344   3.532  -0.131  0.00  0.00    +0.419 C 
ATOM     18  F   UNL     1       0.660   3.967  -1.272  0.00  0.00    -0.166 F 
ATOM     19  F   UNL     1       0.723   4.049   1.010  0.00  0.00    -0.166 F 
ATOM     20  F   UNL     1       2.669   3.978  -0.183  0.00  0.00    -0.166 F 
ENDBRANCH  12  17
ENDBRANCH   6   9
BRANCH   1  25
ATOM     21  C   UNL     1       2.271  -8.159  -3.322  0.00  0.00    +0.036 A 
ATOM     22  C   UNL     1       2.307  -7.579  -4.582  0.00  0.00    +0.074 A 
ATOM     23  C   UNL     1       1.595  -6.416  -4.814  0.00  0.00    +0.124 A 
ATOM     24  N   UNL     1       0.882  -5.856  -3.860  0.00  0.00    -0.250 NA
ATOM     25  C   UNL     1       0.824  -6.375  -2.639  0.00  0.00    +0.125 A 
ATOM     26  C   UNL     1       1.517  -7.547  -2.334  0.00  0.00    +0.070 A 
ATOM     27 CL   UNL     1       1.436  -8.227  -0.739  0.00  0.00    -0.081 Cl
BRANCH  22  28
ATOM     28  C   UNL     1       3.115  -8.210  -5.686  0.00  0.00    +0.419 C 
ATOM     29  F   UNL     1       2.316  -9.120  -6.387  0.00  0.00    -0.166 F 
ATOM     30  F   UNL     1       3.566  -7.216  -6.561  0.00  0.00    -0.166 F 
ATOM     31  F   UNL     1       4.213  -8.881  -5.137  0.00  0.00    -0.166 F 
ENDBRANCH  22  28
ENDBRANCH   1  25
BRANCH   2  32
ATOM     32  O   UNL     1      -1.809  -7.058  -2.224  0.00  0.00    -0.408 OA
ATOM     33  H   UNL     1      -2.744  -7.219  -2.037  0.00  0.00    +0.328 HD
ENDBRANCH   2  32
TORSDOF 5
