REMARK  Name = ZINC40427279
REMARK  6 active torsions:
REMARK  status: ('A' for Active; 'I' for Inactive)
REMARK    1  A    between atoms: C_1  and  C_2
REMARK    2  A    between atoms: C_7  and  C_8
REMARK    3  A    between atoms: N_17  and  C_18
REMARK    4  A    between atoms: C_18  and  C_19
REMARK    5  A    between atoms: C_25  and  C_28
REMARK    6  A    between atoms: C_29  and  C_31
REMARK                            x       y       z     vdW  Elec       q    Type
REMARK                         _______ _______ _______ _____ _____    ______ ____
ROOT
ATOM      1  C   UNL     1      -1.432  -2.317   2.746  0.00  0.00    +0.020 C 
ENDROOT
BRANCH   1   2
ATOM      2  C   UNL     1      -1.671  -3.359   3.807  0.00  0.00    +0.199 C 
ATOM      3  O   UNL     1      -0.731  -3.884   4.365  0.00  0.00    -0.278 OA
ATOM      4  N   UNL     1      -2.931  -3.708   4.137  0.00  0.00    -0.300 N 
ATOM      5  C   UNL     1      -4.080  -3.085   3.465  0.00  0.00    +0.126 C 
ATOM      6  C   UNL     1      -5.000  -2.478   4.531  0.00  0.00    +0.127 C 
ATOM      7  N   UNL     1      -5.249  -3.489   5.568  0.00  0.00    -0.292 N 
ATOM      8  C   UNL     1      -4.100  -4.112   6.240  0.00  0.00    +0.091 C 
ATOM      9  C   UNL     1      -3.179  -4.724   5.170  0.00  0.00    +0.130 C 
ATOM     10  C   UNL     1      -3.337  -3.055   7.040  0.00  0.00    +0.029 C 
ATOM     11  C   UNL     1      -6.508  -3.838   5.898  0.00  0.00    +0.247 C 
ATOM     12  O   UNL     1      -7.448  -3.387   5.272  0.00  0.00    -0.270 OA
BRANCH  11  13
ATOM     13  C   UNL     1      -6.747  -4.770   7.020  0.00  0.00    +0.038 A 
ATOM     14  C   UNL     1      -6.003  -4.657   8.196  0.00  0.00    +0.013 A 
ATOM     15  C   UNL     1      -6.231  -5.529   9.240  0.00  0.00    +0.002 A 
ATOM     16  C   UNL     1      -7.194  -6.515   9.125  0.00  0.00    +0.020 A 
ATOM     17  C   UNL     1      -7.936  -6.633   7.962  0.00  0.00    +0.042 A 
ATOM     18  C   UNL     1      -7.721  -5.763   6.912  0.00  0.00    +0.033 A 
ATOM     19 CL   UNL     1      -9.143  -7.874   7.827  0.00  0.00    -0.084 Cl
ENDBRANCH  11  13
ENDBRANCH   1   2
BRANCH   1  28
ATOM     20  C   UNL     1       0.242  -1.190   1.458  0.00  0.00    -0.005 C 
ATOM     21  C   UNL     1       1.738  -0.907   1.351  0.00  0.00    -0.047 A 
ATOM     22  C   UNL     1       2.356  -0.404   0.209  0.00  0.00    +0.010 A 
ATOM     23  C   UNL     1       3.692  -0.186   0.204  0.00  0.00    +0.045 A 
ATOM     24  S   UNL     1       4.156  -0.693   1.853  0.00  0.00    -0.101 S 
ATOM     25  C   UNL     1       2.544  -1.153   2.422  0.00  0.00    -0.010 A 
ATOM     26  C   UNL     1       2.117  -1.685   3.751  0.00  0.00    +0.024 C 
ATOM     27  C   UNL     1       0.583  -1.585   3.819  0.00  0.00    -0.072 C 
ATOM     28  N   UNL     1       0.013  -2.117   2.573  0.00  0.00    +0.393 N 
ATOM     29  H   UNL     1       0.447  -3.003   2.363  0.00  0.00    -0.080 HD
BRANCH  20  36
ATOM     30  C   UNL     1      -0.571   0.492  -0.746  0.00  0.00    +0.044 C 
ATOM     31  C   UNL     1      -0.636  -1.007  -0.879  0.00  0.00    -0.049 A 
ATOM     32  C   UNL     1      -1.080  -1.578  -2.057  0.00  0.00    +0.003 A 
ATOM     33  C   UNL     1      -1.140  -2.954  -2.179  0.00  0.00    +0.000 A 
ATOM     34  C   UNL     1      -0.755  -3.759  -1.123  0.00  0.00    +0.000 A 
ATOM     35  C   UNL     1      -0.311  -3.188   0.055  0.00  0.00    +0.002 A 
ATOM     36  C   UNL     1      -0.247  -1.812   0.175  0.00  0.00    -0.054 A 
ENDBRANCH  20  36
ENDBRANCH   1  28
TORSDOF 4
