REMARK  Name = ZINC26372048
REMARK  15 active torsions:
REMARK  status: ('A' for Active; 'I' for Inactive)
REMARK    1  A    between atoms: C_1  and  C_2
REMARK    2  A    between atoms: C_4  and  C_35
REMARK    3  A    between atoms: C_5  and  N_9
REMARK    4  A    between atoms: C_6  and  C_8
REMARK    5  A    between atoms: C_10  and  C_12
REMARK    6  A    between atoms: C_12  and  N_13
REMARK    7  A    between atoms: N_13  and  C_14
REMARK    8  A    between atoms: N_13  and  C_15
REMARK    9  A    between atoms: C_15  and  C_17
REMARK   10  A    between atoms: C_15  and  C_18
REMARK   11  A    between atoms: N_20  and  C_21
REMARK   12  A    between atoms: N_20  and  C_22
REMARK   13  A    between atoms: C_22  and  C_23
REMARK   14  A    between atoms: C_28  and  O_33
REMARK   15  A    between atoms: O_33  and  C_34
REMARK                            x       y       z     vdW  Elec       q    Type
REMARK                         _______ _______ _______ _____ _____    ______ ____
ROOT
ATOM      1  C   UNL     1       0.436   3.512   4.555  0.00  0.00    +0.017 C 
ATOM      2  C   UNL     1       0.788   4.723   3.689  0.00  0.00    -0.004 C 
ENDROOT
BRANCH   1   3
ATOM      3  C   UNL     1       0.703   2.247   3.781  0.00  0.00    +0.202 C 
ATOM      4  O   UNL     1      -0.201   1.470   3.558  0.00  0.00    -0.277 OA
ATOM      5  N   UNL     1       1.947   1.979   3.337  0.00  0.00    -0.302 N 
ATOM      6  C   UNL     1       3.039   2.918   3.606  0.00  0.00    +0.132 C 
BRANCH   5   7
ATOM      7  C   UNL     1       2.207   0.749   2.584  0.00  0.00    +0.142 C 
BRANCH   7   8
ATOM      8  C   UNL     1       2.583  -0.354   3.540  0.00  0.00    -0.030 A 
ATOM      9  C   UNL     1       3.923  -0.547   3.872  0.00  0.00    +0.006 A 
ATOM     10  C   UNL     1       4.296  -1.534   4.732  0.00  0.00    +0.009 A 
ATOM     11  C   UNL     1       3.319  -2.373   5.294  0.00  0.00    -0.014 A 
ATOM     12  C   UNL     1       3.667  -3.402   6.184  0.00  0.00    +0.054 A 
ATOM     13  C   UNL     1       2.691  -4.199   6.710  0.00  0.00    +0.121 A 
ATOM     14  C   UNL     1       1.347  -4.003   6.375  0.00  0.00    +0.046 A 
ATOM     15  C   UNL     1       0.978  -3.016   5.516  0.00  0.00    +0.012 A 
ATOM     16  C   UNL     1       1.956  -2.177   4.955  0.00  0.00    -0.017 A 
ATOM     17  C   UNL     1       1.610  -1.147   4.064  0.00  0.00    +0.013 A 
BRANCH  13  18
ATOM     18  O   UNL     1       3.029  -5.194   7.572  0.00  0.00    -0.495 OA
ATOM     19  C   UNL     1       1.964  -5.994   8.089  0.00  0.00    +0.277 C 
ENDBRANCH  13  18
ENDBRANCH   7   8
ENDBRANCH   5   7
ENDBRANCH   1   3
BRANCH   1  20
ATOM     20  N   UNL     1      -0.985   3.569   4.923  0.00  0.00    +0.391 N 
ATOM     21  C   UNL     1      -1.839   3.584   3.728  0.00  0.00    -0.094 C 
ATOM     22  H   UNL     1      -1.223   2.662   5.498  0.00  0.00    -0.080 HD
BRANCH  20  23
ATOM     23  C   UNL     1      -1.260   4.730   5.781  0.00  0.00    +0.020 C 
BRANCH  23  25
ATOM     24  N   UNL     1      -3.131   5.585   7.155  0.00  0.00    -0.287 N 
ATOM     25  C   UNL     1      -2.657   4.625   6.336  0.00  0.00    +0.201 C 
ATOM     26  O   UNL     1      -3.355   3.676   6.047  0.00  0.00    -0.278 OA
ATOM     27  H   UNL     1      -2.479   6.414   7.465  0.00  0.00    +0.155 HD
BRANCH  24  32
ATOM     28  C   UNL     1      -8.490   5.346   9.001  0.00  0.00    +0.044 C 
ATOM     29  C   UNL     1      -7.067   5.410   8.510  0.00  0.00    -0.050 A 
ATOM     30  C   UNL     1      -6.032   5.560   9.415  0.00  0.00    +0.008 A 
ATOM     31  C   UNL     1      -4.726   5.618   8.969  0.00  0.00    -0.029 A 
ATOM     32  C   UNL     1      -4.453   5.526   7.610  0.00  0.00    +0.039 A 
ATOM     33  C   UNL     1      -5.495   5.381   6.704  0.00  0.00    -0.029 A 
ATOM     34  C   UNL     1      -6.798   5.317   7.157  0.00  0.00    +0.008 A 
ATOM     35  C   UNL     1      -5.204   5.287   5.228  0.00  0.00    +0.045 C 
ATOM     36  C   UNL     1      -3.598   5.782   9.955  0.00  0.00    +0.045 C 
ENDBRANCH  24  32
ENDBRANCH  23  25
ENDBRANCH  20  23
ENDBRANCH   1  20
TORSDOF 8
