REMARK  Name = ZINC49804086
REMARK  14 active torsions:
REMARK  status: ('A' for Active; 'I' for Inactive)
REMARK    1  A    between atoms: C_1  and  C_2
REMARK    2  A    between atoms: C_2  and  C_3
REMARK    3  A    between atoms: C_2  and  C_4
REMARK    4  A    between atoms: C_7  and  C_10
REMARK    5  A    between atoms: C_12  and  C_34
REMARK    6  A    between atoms: C_15  and  S_19
REMARK    7  A    between atoms: C_16  and  C_17
REMARK    8  A    between atoms: S_19  and  C_20
REMARK    9  A    between atoms: C_20  and  C_21
REMARK   10  A    between atoms: N_23  and  C_24
REMARK   11  A    between atoms: C_27  and  C_30
REMARK   12  A    between atoms: C_30  and  C_32
REMARK   13  A    between atoms: C_34  and  O_36
REMARK   14  A    between atoms: O_36  and  C_37
REMARK                            x       y       z     vdW  Elec       q    Type
REMARK                         _______ _______ _______ _____ _____    ______ ____
ROOT
ATOM      1  C   UNL     1       2.724  -1.868  -4.763  0.00  0.00    +0.085 C 
ATOM      2  C   UNL     1       4.148  -1.368  -4.781  0.00  0.00    +0.111 C 
ATOM      3  C   UNL     1       5.131  -2.090  -4.139  0.00  0.00    +0.282 C 
ATOM      4  N   UNL     1       4.845  -3.246  -3.523  0.00  0.00    -0.205 NA
ATOM      5  C   UNL     1       3.735  -3.896  -3.752  0.00  0.00    +0.096 C 
ATOM      6  C   UNL     1       2.733  -3.399  -4.765  0.00  0.00    +0.159 C 
ATOM      7  O   UNL     1       6.401  -1.627  -4.130  0.00  0.00    -0.265 OA
ENDROOT
BRANCH   1  11
ATOM      8  C   UNL     1       0.755  -0.457  -1.244  0.00  0.00    -0.045 A 
ATOM      9  C   UNL     1       0.265  -0.121  -2.493  0.00  0.00    +0.004 A 
ATOM     10  C   UNL     1       0.903  -0.577  -3.631  0.00  0.00    +0.004 A 
ATOM     11  C   UNL     1       2.030  -1.370  -3.522  0.00  0.00    -0.038 A 
ATOM     12  C   UNL     1       2.520  -1.706  -2.273  0.00  0.00    +0.004 A 
ATOM     13  C   UNL     1       1.885  -1.246  -1.135  0.00  0.00    +0.004 A 
BRANCH   8  15
ATOM     14  C   UNL     1       0.052   1.571  -0.002  0.00  0.00    +0.012 C 
ATOM     15  C   UNL     1       0.060   0.041  -0.003  0.00  0.00    +0.013 C 
ATOM     16  C   UNL     1      -1.379  -0.478   0.018  0.00  0.00    +0.012 C 
ENDBRANCH   8  15
ENDBRANCH   1  11
BRANCH   6  17
ATOM     17  C   UNL     1       1.392  -3.898  -4.418  0.00  0.00    +0.074 C 
ATOM     18  N   UNL     1       0.357  -4.283  -4.151  0.00  0.00    -0.196 NA
ENDBRANCH   6  17
BRANCH   2  19
ATOM     19  C   UNL     1       4.468  -0.177  -5.446  0.00  0.00    +0.341 C 
ATOM     20  O   UNL     1       5.619   0.223  -5.458  0.00  0.00    -0.245 OA
BRANCH  19  21
ATOM     21  O   UNL     1       3.501   0.527  -6.074  0.00  0.00    -0.465 OA
ATOM     22  C   UNL     1       3.899   1.732  -6.732  0.00  0.00    +0.280 C 
ENDBRANCH  19  21
ENDBRANCH   2  19
BRANCH   5  23
ATOM     23  S   UNL     1       3.420  -5.293  -2.913  0.00  0.00    -0.099 S 
BRANCH  23  24
ATOM     24  C   UNL     1       4.866  -5.492  -1.836  0.00  0.00    +0.171 C 
BRANCH  24  25
ATOM     25  C   UNL     1       4.706  -6.741  -1.007  0.00  0.00    +0.227 C 
ATOM     26  O   UNL     1       3.715  -7.429  -1.132  0.00  0.00    -0.275 OA
ATOM     27  N   UNL     1       5.665  -7.094  -0.129  0.00  0.00    -0.285 N 
ATOM     28  H   UNL     1       6.487  -6.582  -0.076  0.00  0.00    +0.155 HD
BRANCH  27  29
ATOM     29  C   UNL     1       5.476  -8.194   0.705  0.00  0.00    +0.033 A 
ATOM     30  C   UNL     1       5.977  -8.176   2.003  0.00  0.00    +0.024 A 
ATOM     31  C   UNL     1       5.793  -9.256   2.827  0.00  0.00    +0.013 A 
ATOM     32  C   UNL     1       5.099 -10.380   2.360  0.00  0.00    +0.017 A 
ATOM     33  C   UNL     1       4.597 -10.394   1.052  0.00  0.00    +0.013 A 
ATOM     34  C   UNL     1       4.782  -9.307   0.238  0.00  0.00    +0.024 A 
BRANCH  32  35
ATOM     35  C   UNL     1       4.900 -11.540   3.238  0.00  0.00    +0.160 C 
ATOM     36  O   UNL     1       5.254 -11.491   4.397  0.00  0.00    -0.292 OA
ATOM     37  C   UNL     1       4.255 -12.791   2.699  0.00  0.00    +0.091 C 
ENDBRANCH  32  35
ENDBRANCH  27  29
ENDBRANCH  24  25
ENDBRANCH  23  24
ENDBRANCH   5  23
TORSDOF 10
