REMARK  Name = ZINC66930752
REMARK  6 active torsions:
REMARK  status: ('A' for Active; 'I' for Inactive)
REMARK    1  A    between atoms: C_1  and  C_2
REMARK    2  A    between atoms: C_2  and  C_30
REMARK    3  A    between atoms: C_7  and  C_12
REMARK    4  A    between atoms: N_14  and  C_15
REMARK    5  A    between atoms: C_15  and  C_16
REMARK    6  A    between atoms: C_16  and  O_26
REMARK                            x       y       z     vdW  Elec       q    Type
REMARK                         _______ _______ _______ _____ _____    ______ ____
ROOT
ATOM      1  C   UNL     1      -4.229   0.799   4.879  0.00  0.00    +0.249 C 
ATOM      2  O   UNL     1      -3.637   0.949   5.931  0.00  0.00    -0.270 OA
ATOM      3  N   UNL     1      -5.570   0.927   4.837  0.00  0.00    -0.308 N 
ATOM      4  H   UNL     1      -6.050   0.735   4.016  0.00  0.00    +0.149 HD
ENDROOT
BRANCH   1  11
ATOM      5  C   UNL     1      -0.045   1.586  -0.008  0.00  0.00    +0.011 C 
ATOM      6  C   UNL     1      -0.004   0.057  -0.015  0.00  0.00    -0.023 C 
ATOM      7  C   UNL     1      -1.427  -0.491   0.007  0.00  0.00    +0.060 C 
ATOM      8  C   UNL     1      -2.129  -0.143   1.294  0.00  0.00    +0.030 A 
ATOM      9  C   UNL     1      -1.420   0.147   2.448  0.00  0.00    +0.038 A 
ATOM     10  C   UNL     1      -2.094   0.460   3.648  0.00  0.00    +0.031 A 
ATOM     11  C   UNL     1      -3.482   0.480   3.652  0.00  0.00    +0.102 A 
ATOM     12  C   UNL     1      -4.182   0.172   2.402  0.00  0.00    +0.261 A 
ATOM     13  O   UNL     1      -5.399   0.183   2.366  0.00  0.00    -0.267 OA
ATOM     14  N   UNL     1      -3.478  -0.120   1.297  0.00  0.00    -0.325 N 
ATOM     15  H   UNL     1      -3.953  -0.321   0.476  0.00  0.00    +0.169 HD
ATOM     16  C   UNL     1       0.053   0.141   2.437  0.00  0.00    +0.165 C 
ATOM     17  O   UNL     1       0.687   0.588   3.369  0.00  0.00    -0.292 OA
ATOM     18  C   UNL     1       0.749  -0.442   1.226  0.00  0.00    +0.086 C 
ATOM     19  C   UNL     1       0.712  -0.430  -1.277  0.00  0.00    +0.011 C 
ENDBRANCH   1  11
BRANCH   3  20
ATOM     20  C   UNL     1      -6.303   1.354   6.031  0.00  0.00    +0.144 C 
BRANCH  20  21
ATOM     21  C   UNL     1      -7.807   1.300   5.753  0.00  0.00    +0.107 C 
ATOM     22  C   UNL     1      -8.133   2.205   4.567  0.00  0.00    +0.041 C 
ATOM     23  C   UNL     1      -9.657   2.309   4.442  0.00  0.00    +0.008 C 
ATOM     24  C   UNL     1     -10.182   3.125   5.621  0.00  0.00    +0.035 C 
ATOM     25  C   UNL     1      -9.649   2.582   6.921  0.00  0.00    -0.041 A 
ATOM     26  C   UNL     1      -8.555   1.747   6.982  0.00  0.00    -0.011 A 
ATOM     27  C   UNL     1      -8.110   1.286   8.214  0.00  0.00    +0.007 A 
ATOM     28  C   UNL     1      -8.756   1.655   9.376  0.00  0.00    +0.000 A 
ATOM     29  C   UNL     1      -9.855   2.490   9.314  0.00  0.00    +0.000 A 
ATOM     30  C   UNL     1     -10.299   2.951   8.091  0.00  0.00    +0.004 A 
BRANCH  21  31
ATOM     31  O   UNL     1      -8.180  -0.043   5.437  0.00  0.00    -0.382 OA
ATOM     32  H   UNL     1      -7.995  -0.679   6.141  0.00  0.00    +0.211 HD
ENDBRANCH  21  31
ENDBRANCH  20  21
ENDBRANCH   3  20
TORSDOF 4
