REMARK  Name = ZINC46549990
REMARK  8 active torsions:
REMARK  status: ('A' for Active; 'I' for Inactive)
REMARK    1  A    between atoms: C_1  and  N_2
REMARK    2  A    between atoms: N_2  and  C_3
REMARK    3  A    between atoms: N_2  and  C_4
REMARK    4  A    between atoms: C_4  and  C_6
REMARK    5  A    between atoms: C_4  and  C_28
REMARK    6  A    between atoms: C_6  and  N_7
REMARK    7  A    between atoms: C_15  and  C_17
REMARK    8  A    between atoms: C_17  and  N_18
REMARK                            x       y       z     vdW  Elec       q    Type
REMARK                         _______ _______ _______ _____ _____    ______ ____
ROOT
ATOM      1  N   UNL     1       0.284  -2.199   0.449  0.00  0.00    -0.330 N 
ATOM      2  C   UNL     1       0.775  -3.491   0.417  0.00  0.00    +0.131 A 
ATOM      3  C   UNL     1       1.639  -3.959   1.446  0.00  0.00    +0.051 A 
ATOM      4  C   UNL     1       2.135  -3.243   2.623  0.00  0.00    -0.025 A 
ATOM      5  C   UNL     1       2.952  -3.923   3.453  0.00  0.00    -0.004 A 
ATOM      6  S   UNL     1       3.109  -5.534   2.731  0.00  0.00    -0.073 S 
ATOM      7  C   UNL     1       2.076  -5.292   1.309  0.00  0.00    +0.114 A 
ATOM      8  N   UNL     1       1.701  -6.040   0.290  0.00  0.00    -0.223 NA
ATOM      9  C   UNL     1       0.897  -5.550  -0.635  0.00  0.00    +0.146 A 
ATOM     10  N   UNL     1       0.444  -4.311  -0.567  0.00  0.00    -0.216 NA
ATOM     11  C   UNL     1       3.588  -3.420   4.713  0.00  0.00    +0.043 C 
ATOM     12  C   UNL     1       3.475  -1.889   4.736  0.00  0.00    +0.005 C 
ATOM     13  C   UNL     1       2.035  -1.498   4.390  0.00  0.00    +0.005 C 
ATOM     14  C   UNL     1       1.757  -1.794   2.915  0.00  0.00    +0.037 C 
ATOM     15  H   UNL     1       0.586  -1.581   1.133  0.00  0.00    +0.147 HD
ENDROOT
BRANCH   1  16
ATOM     16  C   UNL     1      -0.694  -1.762  -0.551  0.00  0.00    +0.093 C 
BRANCH  16  17
ATOM     17  C   UNL     1      -1.168  -0.346  -0.217  0.00  0.00    -0.014 C 
BRANCH  17  18
ATOM     18  C   UNL     1      -1.913  -0.362   1.092  0.00  0.00    -0.022 A 
ATOM     19  C   UNL     1      -1.479  -0.008   2.326  0.00  0.00    +0.009 A 
ATOM     20  C   UNL     1      -2.349  -0.104   3.397  0.00  0.00    +0.008 A 
ATOM     21  C   UNL     1      -3.610  -0.549   3.180  0.00  0.00    +0.045 A 
ATOM     22  S   UNL     1      -3.601  -0.843   1.419  0.00  0.00    -0.103 S 
ENDBRANCH  17  18
BRANCH  17  24
ATOM     23  C   UNL     1      -2.569   1.467  -0.927  0.00  0.00    -0.096 C 
ATOM     24  N   UNL     1      -2.058   0.136  -1.282  0.00  0.00    +0.382 N 
ATOM     25  C   UNL     1      -1.311   0.219  -2.544  0.00  0.00    -0.096 C 
ATOM     26  H   UNL     1      -2.831  -0.503  -1.390  0.00  0.00    -0.082 HD
ENDBRANCH  17  24
ENDBRANCH  16  17
ENDBRANCH   1  16
BRANCH   9  27
ATOM     27  C   UNL     1       0.483  -6.425  -1.790  0.00  0.00    +0.160 C 
BRANCH  27  28
ATOM     28  N   UNL     1      -0.750  -7.144  -1.442  0.00  0.00    -0.291 NA
ATOM     29  C   UNL     1      -0.511  -8.103  -0.353  0.00  0.00    +0.113 C 
ATOM     30  C   UNL     1      -1.830  -8.785   0.017  0.00  0.00    +0.175 C 
ATOM     31  O   UNL     1      -2.380  -9.411  -1.145  0.00  0.00    -0.377 OA
ATOM     32  C   UNL     1      -2.626  -8.506  -2.224  0.00  0.00    +0.175 C 
ATOM     33  C   UNL     1      -1.315  -7.821  -2.618  0.00  0.00    +0.113 C 
ENDBRANCH  27  28
ENDBRANCH   9  27
TORSDOF 6
