REMARK  Name = ZINC09015287
REMARK  5 active torsions:
REMARK  status: ('A' for Active; 'I' for Inactive)
REMARK    1  A    between atoms: C_1  and  C_2
REMARK    2  A    between atoms: C_5  and  N_28
REMARK    3  A    between atoms: C_7  and  C_8
REMARK    4  A    between atoms: C_9  and  C_22
REMARK    5  A    between atoms: C_11  and  C_14
REMARK                            x       y       z     vdW  Elec       q    Type
REMARK                         _______ _______ _______ _____ _____    ______ ____
ROOT
ATOM      1  C   UNL     1       5.923  -1.065  -0.086  0.00  0.00    +0.075 A 
ATOM      2  C   UNL     1       5.138  -2.330  -0.200  0.00  0.00    +0.097 A 
ATOM      3  N   UNL     1       3.864  -1.981  -0.194  0.00  0.00    -0.227 NA
ATOM      4  C   UNL     1       3.753  -0.658  -0.090  0.00  0.00    +0.139 A 
ATOM      5  N   UNL     1       4.992  -0.070  -0.028  0.00  0.00    -0.337 N 
ATOM      6  H   UNL     1       5.179   0.910   0.046  0.00  0.00    +0.167 HD
ENDROOT
BRANCH   4   7
ATOM      7  C   UNL     1       2.485   0.069  -0.054  0.00  0.00    +0.018 A 
ATOM      8  C   UNL     1       2.477   1.473   0.057  0.00  0.00    +0.014 A 
ATOM      9  C   UNL     1       1.289   2.144   0.089  0.00  0.00    +0.040 A 
ATOM     10  C   UNL     1       0.088   1.446   0.014  0.00  0.00    +0.137 A 
ATOM     11  C   UNL     1       0.087   0.058  -0.096  0.00  0.00    +0.054 A 
ATOM     12  C   UNL     1       1.266  -0.629  -0.130  0.00  0.00    +0.029 A 
ATOM     13 BR   UNL     1      -1.554  -0.878  -0.197  0.00  0.00    -0.047 Br
ATOM     14  F   UNL     1      -1.083   2.119   0.041  0.00  0.00    -0.204 F 
ENDBRANCH   4   7
BRANCH   1  21
ATOM     15  C   UNL     1       7.356  -2.121   2.180  0.00  0.00    +0.044 C 
ATOM     16  C   UNL     1       8.064  -1.434   1.041  0.00  0.00    -0.041 A 
ATOM     17  C   UNL     1       9.422  -1.296   1.062  0.00  0.00    +0.006 A 
ATOM     18  C   UNL     1      10.077  -0.662   0.014  0.00  0.00    +0.033 A 
ATOM     19  C   UNL     1       9.363  -0.161  -1.067  0.00  0.00    +0.127 A 
ATOM     20  C   UNL     1       8.005  -0.291  -1.114  0.00  0.00    +0.043 A 
ATOM     21  C   UNL     1       7.325  -0.929  -0.052  0.00  0.00    +0.005 A 
BRANCH  19  22
ATOM     22  N   UNL     1      10.078   0.511  -2.175  0.00  0.00    +0.056 N 
ATOM     23  O   UNL     1      11.388   0.633  -2.135  0.00  0.00    -0.126 OA
ATOM     24  O   UNL     1       9.403   0.987  -3.201  0.00  0.00    -0.126 OA
ENDBRANCH  19  22
ENDBRANCH   1  21
BRANCH   2  25
ATOM     25  C   UNL     1       5.675  -3.692  -0.299  0.00  0.00    +0.002 A 
ATOM     26  C   UNL     1       6.795  -3.953  -1.107  0.00  0.00    +0.010 A 
ATOM     27  C   UNL     1       7.295  -5.232  -1.190  0.00  0.00    +0.001 A 
ATOM     28  C   UNL     1       6.691  -6.265  -0.488  0.00  0.00    +0.000 A 
ATOM     29  C   UNL     1       5.582  -6.018   0.308  0.00  0.00    +0.001 A 
ATOM     30  C   UNL     1       5.070  -4.744   0.408  0.00  0.00    +0.010 A 
ENDBRANCH   2  25
TORSDOF 4
