REMARK  Name = ZINC48647027
REMARK  5 active torsions:
REMARK  status: ('A' for Active; 'I' for Inactive)
REMARK    1  A    between atoms: C_7  and  C_11
REMARK    2  A    between atoms: C_11  and  C_12
REMARK    3  A    between atoms: C_12  and  N_13
REMARK    4  A    between atoms: C_14  and  C_16
REMARK    5  A    between atoms: N_18  and  C_19
REMARK                            x       y       z     vdW  Elec       q    Type
REMARK                         _______ _______ _______ _____ _____    ______ ____
ROOT
ATOM      1  C   UNL     1      -2.111  -6.366  -2.609  0.00  0.00    +0.303 C 
ATOM      2  O   UNL     1      -2.397  -6.911  -1.563  0.00  0.00    -0.265 OA
ATOM      3  N   UNL     1      -2.625  -6.823  -3.769  0.00  0.00    -0.278 N 
ATOM      4  H   UNL     1      -2.450  -6.348  -4.596  0.00  0.00    +0.155 HD
ENDROOT
BRANCH   3   5
ATOM      5  C   UNL     1      -3.409  -7.978  -3.778  0.00  0.00    +0.037 A 
ATOM      6  C   UNL     1      -3.337  -8.854  -4.859  0.00  0.00    +0.024 A 
ATOM      7  C   UNL     1      -4.108  -9.996  -4.874  0.00  0.00    +0.014 A 
ATOM      8  C   UNL     1      -4.958 -10.271  -3.807  0.00  0.00    +0.028 A 
ATOM      9  C   UNL     1      -5.896 -11.369  -3.504  0.00  0.00    +0.028 A 
ATOM     10  C   UNL     1      -6.274 -12.529  -4.171  0.00  0.00    +0.012 A 
ATOM     11  C   UNL     1      -7.204 -13.374  -3.602  0.00  0.00    +0.001 A 
ATOM     12  C   UNL     1      -7.759 -13.067  -2.369  0.00  0.00    +0.004 A 
ATOM     13  C   UNL     1      -7.391 -11.919  -1.699  0.00  0.00    +0.047 A 
ATOM     14  C   UNL     1      -6.456 -11.056  -2.257  0.00  0.00    +0.136 A 
ATOM     15  O   UNL     1      -5.925  -9.890  -1.828  0.00  0.00    -0.455 OA
ATOM     16  C   UNL     1      -5.035  -9.393  -2.716  0.00  0.00    +0.138 A 
ATOM     17  C   UNL     1      -4.249  -8.249  -2.710  0.00  0.00    +0.070 A 
ENDBRANCH   3   5
BRANCH   1  19
ATOM     18  N   UNL     1      -0.677  -4.734  -1.452  0.00  0.00    -0.307 N 
ATOM     19  C   UNL     1      -1.190  -5.191  -2.612  0.00  0.00    +0.299 C 
ATOM     20  O   UNL     1      -0.904  -4.646  -3.658  0.00  0.00    -0.265 OA
ATOM     21  H   UNL     1      -0.905  -5.170  -0.616  0.00  0.00    +0.149 HD
BRANCH  18  22
ATOM     22  C   UNL     1       0.227  -3.581  -1.455  0.00  0.00    +0.109 C 
BRANCH  22  23
ATOM     23  C   UNL     1       0.663  -3.271  -0.022  0.00  0.00    +0.056 C 
BRANCH  23  30
ATOM     24  C   UNL     1      -0.051   1.361   0.035  0.00  0.00    +0.001 A 
ATOM     25  C   UNL     1       1.131   2.091   0.024  0.00  0.00    +0.002 A 
ATOM     26  C   UNL     1       2.351   1.452  -0.001  0.00  0.00    +0.026 A 
ATOM     27  C   UNL     1       2.402   0.061  -0.015  0.00  0.00    +0.047 A 
ATOM     28  C   UNL     1       1.203  -0.673  -0.004  0.00  0.00    +0.003 A 
ATOM     29  C   UNL     1      -0.023  -0.005   0.020  0.00  0.00    +0.010 A 
ATOM     30  C   UNL     1       1.592  -2.085  -0.024  0.00  0.00    -0.021 A 
ATOM     31  C   UNL     1       2.934  -2.122  -0.045  0.00  0.00    +0.087 A 
ATOM     32  N   UNL     1       3.435  -0.849  -0.040  0.00  0.00    -0.360 N 
ATOM     33  H   UNL     1       4.378  -0.621  -0.052  0.00  0.00    +0.165 HD
ENDBRANCH  23  30
ENDBRANCH  22  23
ENDBRANCH  18  22
ENDBRANCH   1  19
TORSDOF 5
