REMARK  Name = ZINC18196308
REMARK  5 active torsions:
REMARK  status: ('A' for Active; 'I' for Inactive)
REMARK    1  A    between atoms: C_3  and  C_6
REMARK    2  A    between atoms: C_11  and  C_21
REMARK    3  A    between atoms: C_18  and  O_19
REMARK    4  A    between atoms: C_23  and  N_28
REMARK    5  A    between atoms: C_26  and  O_27
REMARK                            x       y       z     vdW  Elec       q    Type
REMARK                         _______ _______ _______ _____ _____    ______ ____
ROOT
ATOM      1  C   UNL     1       3.761   1.845  -0.024  0.00  0.00    +0.039 C 
ATOM      2  C   UNL     1       4.482   1.337  -1.274  0.00  0.00    +0.060 C 
ATOM      3  C   UNL     1       5.915   1.817  -1.265  0.00  0.00    +0.017 C 
ATOM      4  C   UNL     1       6.577   1.995  -0.102  0.00  0.00    +0.024 C 
ATOM      5  C   UNL     1       8.018   2.454  -0.050  0.00  0.00    +0.096 C 
ATOM      6  C   UNL     1       8.425   2.994  -1.391  0.00  0.00    +0.067 A 
ATOM      7  C   UNL     1       7.681   2.786  -2.522  0.00  0.00    +0.126 A 
ATOM      8  N   UNL     1       8.312   3.389  -3.547  0.00  0.00    -0.260 N 
ATOM      9  H   UNL     1       8.016   3.406  -4.471  0.00  0.00    +0.190 HD
ATOM     10  N   UNL     1       9.476   3.989  -3.039  0.00  0.00    -0.134 NA
ATOM     11  C   UNL     1       9.538   3.749  -1.748  0.00  0.00    +0.237 A 
ATOM     12  N   UNL     1       6.494   2.063  -2.485  0.00  0.00    -0.303 N 
ATOM     13  C   UNL     1       5.942   1.764   1.132  0.00  0.00    +0.162 C 
ATOM     14  O   UNL     1       6.568   1.926   2.161  0.00  0.00    -0.292 OA
ATOM     15  C   UNL     1       4.507   1.323   1.208  0.00  0.00    +0.088 C 
ATOM     16  H   UNL     1       6.084   1.740  -3.303  0.00  0.00    +0.153 HD
ENDROOT
BRANCH   5  17
ATOM     17  C   UNL     1       8.903   1.289   0.311  0.00  0.00    +0.008 A 
ATOM     18  C   UNL     1       8.943   0.173  -0.503  0.00  0.00    +0.041 A 
ATOM     19  C   UNL     1       9.754  -0.897  -0.172  0.00  0.00    +0.127 A 
ATOM     20  C   UNL     1      10.529  -0.852   0.972  0.00  0.00    +0.036 A 
ATOM     21  C   UNL     1      10.493   0.261   1.789  0.00  0.00    +0.048 A 
ATOM     22  C   UNL     1       9.684   1.338   1.457  0.00  0.00    +0.121 A 
BRANCH  19  23
ATOM     23  N   UNL     1       9.794  -2.091  -1.046  0.00  0.00    +0.056 N 
ATOM     24  O   UNL     1       9.117  -2.131  -2.046  0.00  0.00    -0.126 OA
ATOM     25  O   UNL     1      10.503  -3.027  -0.758  0.00  0.00    -0.126 OA
ENDBRANCH  19  23
BRANCH  22  26
ATOM     26  O   UNL     1       9.651   2.437   2.256  0.00  0.00    -0.506 OA
ATOM     27  H   UNL     1       8.981   2.397   2.952  0.00  0.00    +0.292 HD
ENDBRANCH  22  26
ENDBRANCH   5  17
BRANCH   1  30
ATOM     28  C   UNL     1      -0.016   1.351   0.009  0.00  0.00    +0.008 A 
ATOM     29  C   UNL     1       1.183   2.038   0.002  0.00  0.00    +0.011 A 
ATOM     30  C   UNL     1       2.343   1.336  -0.013  0.00  0.00    -0.006 A 
ATOM     31  S   UNL     1       1.754  -0.349  -0.017  0.00  0.00    -0.101 S 
ATOM     32  C   UNL     1       0.002  -0.004   0.002  0.00  0.00    +0.045 A 
ENDBRANCH   1  30
BRANCH  11  33
ATOM     33  O   UNL     1      10.521   4.167  -0.906  0.00  0.00    -0.491 OA
ATOM     34  H   UNL     1      11.258   3.546  -0.822  0.00  0.00    +0.294 HD
ENDBRANCH  11  33
TORSDOF 5
