REMARK  Name = ZINC40033235
REMARK  8 active torsions:
REMARK  status: ('A' for Active; 'I' for Inactive)
REMARK    1  A    between atoms: C_1  and  C_2
REMARK    2  A    between atoms: C_2  and  O_3
REMARK    3  A    between atoms: O_3  and  C_4
REMARK    4  A    between atoms: C_7  and  N_10
REMARK    5  A    between atoms: N_17  and  N_18
REMARK    6  A    between atoms: C_19  and  C_20
REMARK    7  A    between atoms: C_34  and  C_35
REMARK    8  A    between atoms: C_34  and  C_36
REMARK                            x       y       z     vdW  Elec       q    Type
REMARK                         _______ _______ _______ _____ _____    ______ ____
ROOT
ATOM      1  N   UNL     1       1.671  -6.200  -1.409  0.00  0.00    -0.248 N 
ATOM      2  C   UNL     1       1.950  -6.586  -2.672  0.00  0.00    +0.264 A 
ATOM      3  O   UNL     1       2.127  -5.758  -3.552  0.00  0.00    -0.267 OA
ATOM      4  C   UNL     1       2.033  -7.955  -2.952  0.00  0.00    +0.049 A 
ATOM      5  C   UNL     1       1.827  -8.862  -1.922  0.00  0.00    +0.084 A 
ATOM      6  N   UNL     1       1.546  -8.423  -0.691  0.00  0.00    -0.214 NA
ATOM      7  C   UNL     1       1.475  -7.133  -0.433  0.00  0.00    +0.223 A 
ATOM      8  N   UNL     1       1.192  -6.719   0.843  0.00  0.00    -0.206 N 
ATOM      9  C   UNL     1       1.929 -10.310  -2.213  0.00  0.00    +0.004 A 
ATOM     10  C   UNL     1       1.377 -11.254  -1.351  0.00  0.00    +0.010 A 
ATOM     11  C   UNL     1       1.482 -12.598  -1.650  0.00  0.00    +0.001 A 
ATOM     12  C   UNL     1       2.134 -13.003  -2.801  0.00  0.00    +0.000 A 
ATOM     13  C   UNL     1       2.686 -12.069  -3.659  0.00  0.00    +0.004 A 
ATOM     14  C   UNL     1       2.589 -10.723  -3.372  0.00  0.00    -0.037 A 
ATOM     15  C   UNL     1       3.197  -9.701  -4.294  0.00  0.00    +0.047 C 
ATOM     16  C   UNL     1       2.336  -8.442  -4.341  0.00  0.00    +0.001 C 
ATOM     17  C   UNL     1       1.024  -8.754  -5.063  0.00  0.00    +0.016 C 
ATOM     18  C   UNL     1       3.084  -7.348  -5.106  0.00  0.00    +0.016 C 
ATOM     19  H   UNL     1       1.188  -5.773   1.056  0.00  0.00    +0.177 HD
ENDROOT
BRANCH   1  23
ATOM     20  C   UNL     1       1.425  -2.141  -0.481  0.00  0.00    +0.121 A 
ATOM     21  C   UNL     1       0.313  -2.809  -0.974  0.00  0.00    +0.047 A 
ATOM     22  C   UNL     1       0.394  -4.152  -1.282  0.00  0.00    +0.030 A 
ATOM     23  C   UNL     1       1.589  -4.836  -1.097  0.00  0.00    +0.053 A 
ATOM     24  C   UNL     1       2.701  -4.167  -0.604  0.00  0.00    +0.030 A 
ATOM     25  C   UNL     1       2.621  -2.822  -0.301  0.00  0.00    +0.047 A 
BRANCH  20  26
ATOM     26  O   UNL     1       1.345  -0.818  -0.179  0.00  0.00    -0.492 OA
BRANCH  26  28
ATOM     27  C   UNL     1       0.187   1.295   0.004  0.00  0.00    +0.048 C 
ATOM     28  C   UNL     1       0.084  -0.180  -0.388  0.00  0.00    +0.225 C 
ENDBRANCH  26  28
ENDBRANCH  20  26
ENDBRANCH   1  23
BRANCH   8  29
ATOM     29  N   UNL     1       0.908  -7.663   1.838  0.00  0.00    -0.188 NA
ATOM     30  C   UNL     1       0.640  -7.271   3.046  0.00  0.00    +0.138 C 
BRANCH  30  31
ATOM     31  C   UNL     1       0.341  -8.264   4.094  0.00  0.00    -0.005 A 
ATOM     32  C   UNL     1       0.350  -9.628   3.791  0.00  0.00    +0.012 A 
ATOM     33  C   UNL     1       0.070 -10.552   4.775  0.00  0.00    +0.039 A 
ATOM     34  C   UNL     1      -0.222 -10.131   6.063  0.00  0.00    +0.123 A 
ATOM     35  C   UNL     1      -0.234  -8.779   6.369  0.00  0.00    +0.039 A 
ATOM     36  C   UNL     1       0.052  -7.846   5.395  0.00  0.00    +0.012 A 
ATOM     37  F   UNL     1      -0.497 -11.041   7.022  0.00  0.00    -0.205 F 
ENDBRANCH  30  31
ENDBRANCH   8  29
TORSDOF 5
