REMARK  Name = ZINC38708302
REMARK  10 active torsions:
REMARK  status: ('A' for Active; 'I' for Inactive)
REMARK    1  A    between atoms: C_1  and  C_2
REMARK    2  A    between atoms: C_2  and  C_3
REMARK    3  A    between atoms: C_2  and  C_4
REMARK    4  A    between atoms: C_4  and  C_5
REMARK    5  A    between atoms: C_5  and  N_6
REMARK    6  A    between atoms: C_9  and  N_20
REMARK    7  A    between atoms: C_15  and  C_18
REMARK    8  A    between atoms: C_15  and  C_19
REMARK    9  A    between atoms: N_20  and  S_21
REMARK   10  A    between atoms: S_21  and  C_24
REMARK                            x       y       z     vdW  Elec       q    Type
REMARK                         _______ _______ _______ _____ _____    ______ ____
ROOT
ATOM      1  N   UNL     1      -2.069  -2.660   1.246  0.00  0.00    -0.268 N 
ATOM      2  C   UNL     1      -2.994  -2.994   2.244  0.00  0.00    +0.080 A 
ATOM      3  C   UNL     1      -3.219  -2.139   3.311  0.00  0.00    +0.051 A 
ATOM      4  C   UNL     1      -4.136  -2.487   4.293  0.00  0.00    +0.050 A 
ATOM      5  C   UNL     1      -4.824  -3.691   4.206  0.00  0.00    +0.028 A 
ATOM      6  C   UNL     1      -4.600  -4.543   3.141  0.00  0.00    +0.049 A 
ATOM      7  C   UNL     1      -3.689  -4.199   2.157  0.00  0.00    +0.142 A 
ATOM      8  O   UNL     1      -3.473  -5.026   1.099  0.00  0.00    -0.489 OA
ATOM      9  C   UNL     1      -4.048  -4.650  -0.150  0.00  0.00    +0.244 C 
ATOM     10  C   UNL     1      -3.841  -3.159  -0.405  0.00  0.00    +0.076 C 
ATOM     11  C   UNL     1      -2.432  -2.760  -0.052  0.00  0.00    +0.229 C 
ATOM     12  O   UNL     1      -1.625  -2.533  -0.930  0.00  0.00    -0.275 OA
ATOM     13  C   UNL     1      -4.098  -2.857  -1.883  0.00  0.00    +0.024 C 
ATOM     14  C   UNL     1      -4.822  -2.356   0.452  0.00  0.00    +0.024 C 
ENDROOT
BRANCH   4  15
ATOM     15  N   UNL     1      -4.366  -1.627   5.372  0.00  0.00    -0.216 N 
ATOM     16  H   UNL     1      -3.618  -1.227   5.843  0.00  0.00    +0.174 HD
BRANCH  15  17
ATOM     17  S   UNL     1      -5.917  -1.289   5.845  0.00  0.00    +0.072 S 
ATOM     18  O   UNL     1      -6.566  -2.539   6.032  0.00  0.00    -0.150 OA
ATOM     19  O   UNL     1      -5.824  -0.317   6.878  0.00  0.00    -0.150 OA
BRANCH  17  20
ATOM     20  C   UNL     1      -6.717  -0.504   4.486  0.00  0.00    +0.109 A 
ATOM     21  C   UNL     1      -6.714   0.874   4.380  0.00  0.00    +0.029 A 
ATOM     22  C   UNL     1      -7.345   1.481   3.315  0.00  0.00    +0.006 A 
ATOM     23  C   UNL     1      -7.984   0.719   2.345  0.00  0.00    -0.044 A 
ATOM     24  C   UNL     1      -7.983  -0.654   2.447  0.00  0.00    -0.042 A 
ATOM     25  C   UNL     1      -7.345  -1.264   3.520  0.00  0.00    +0.032 A 
ATOM     26  C   UNL     1      -8.641  -1.544   1.425  0.00  0.00    +0.035 C 
ATOM     27  C   UNL     1      -9.631  -0.747   0.578  0.00  0.00    +0.005 C 
ATOM     28  C   UNL     1      -8.917   0.500   0.043  0.00  0.00    +0.005 C 
ATOM     29  C   UNL     1      -8.660   1.447   1.213  0.00  0.00    +0.035 C 
ENDBRANCH  17  20
ENDBRANCH  15  17
ENDBRANCH   4  15
BRANCH   1  30
ATOM     30  C   UNL     1      -0.725  -2.202   1.605  0.00  0.00    +0.114 C 
BRANCH  30  31
ATOM     31  C   UNL     1      -0.728  -0.680   1.758  0.00  0.00    +0.022 C 
BRANCH  31  33
ATOM     32  C   UNL     1       0.703   1.328   2.164  0.00  0.00    +0.007 C 
ATOM     33  C   UNL     1       0.676  -0.202   2.134  0.00  0.00    -0.016 C 
ATOM     34  C   UNL     1       1.047  -0.746   3.514  0.00  0.00    +0.007 C 
ENDBRANCH  31  33
ENDBRANCH  30  31
ENDBRANCH   1  30
TORSDOF 6
