REMARK  Name = ZINC06194717
REMARK  10 active torsions:
REMARK  status: ('A' for Active; 'I' for Inactive)
REMARK    1  A    between atoms: C_1  and  C_2
REMARK    2  A    between atoms: C_2  and  O_3
REMARK    3  A    between atoms: O_3  and  C_4
REMARK    4  A    between atoms: C_4  and  C_6
REMARK    5  A    between atoms: C_11  and  C_13
REMARK    6  A    between atoms: C_11  and  C_27
REMARK    7  A    between atoms: C_11  and  N_69
REMARK    8  A    between atoms: C_16  and  C_26
REMARK    9  A    between atoms: C_19  and  C_25
REMARK   10  A    between atoms: N_31  and  C_32
REMARK                            x       y       z     vdW  Elec       q    Type
REMARK                         _______ _______ _______ _____ _____    ______ ____
ROOT
ATOM      1  C   UNL     1       0.002  -0.004   0.002  0.00  0.00    +0.039 C 
ENDROOT
BRANCH   1   2
ATOM      2  C   UNL     1      -0.018   1.503   0.010  0.00  0.00    +0.011 A 
ATOM      3  C   UNL     1      -1.203   2.162   0.019  0.00  0.00    +0.018 A 
ATOM      4  C   UNL     1      -1.189   3.626   0.032  0.00  0.00    +0.002 A 
ATOM      5  C   UNL     1      -2.378   4.362   0.045  0.00  0.00    -0.041 A 
ATOM      6  C   UNL     1      -2.331   5.727   0.052  0.00  0.00    +0.004 A 
ATOM      7  C   UNL     1      -1.112   6.391   0.045  0.00  0.00    +0.005 A 
ATOM      8  C   UNL     1       0.073   5.687   0.030  0.00  0.00    -0.026 A 
ATOM      9  C   UNL     1       0.049   4.296   0.023  0.00  0.00    +0.052 A 
ATOM     10  N   UNL     1       1.219   3.567   0.009  0.00  0.00    -0.322 N 
ATOM     11  H   UNL     1       2.098   4.044   0.004  0.00  0.00    +0.169 HD
ATOM     12  C   UNL     1       1.196   2.223   0.003  0.00  0.00    +0.251 A 
ATOM     13  O   UNL     1       2.249   1.610  -0.010  0.00  0.00    -0.268 OA
ATOM     14  C   UNL     1       1.389   6.421   0.021  0.00  0.00    +0.046 C 
ATOM     15  C   UNL     1      -3.707   3.651   0.053  0.00  0.00    +0.044 C 
ENDBRANCH   1   2
BRANCH   1  21
ATOM     16  C   UNL     1       1.287  -1.846  -3.636  0.00  0.00    +0.094 C 
ATOM     17  C   UNL     1       1.781  -2.398  -2.297  0.00  0.00    -0.004 C 
ATOM     18  C   UNL     1       0.834  -1.944  -1.183  0.00  0.00    -0.077 C 
ATOM     19  C   UNL     1       0.276   0.074  -2.402  0.00  0.00    -0.077 C 
ATOM     20  C   UNL     1       1.206  -0.319  -3.552  0.00  0.00    -0.004 C 
ATOM     21  N   UNL     1       0.820  -0.466  -1.138  0.00  0.00    +0.389 N 
ATOM     22  H   UNL     1       1.782  -0.128  -1.018  0.00  0.00    -0.080 HD
BRANCH  16  23
ATOM     23  C   UNL     1       2.247  -2.241  -4.729  0.00  0.00    +0.310 C 
ATOM     24  O   UNL     1       3.226  -2.897  -4.464  0.00  0.00    -0.251 OA
BRANCH  23  25
ATOM     25  O   UNL     1       2.014  -1.864  -5.996  0.00  0.00    -0.465 OA
BRANCH  25  27
ATOM     26  C   UNL     1       2.550  -1.761  -8.369  0.00  0.00    +0.048 C 
ATOM     27  C   UNL     1       2.981  -2.280  -6.996  0.00  0.00    +0.229 C 
ENDBRANCH  25  27
ENDBRANCH  23  25
ENDBRANCH  16  23
ENDBRANCH   1  21
BRANCH   1  28
ATOM     28  C   UNL     1       0.622  -0.505   1.281  0.00  0.00    +0.143 A 
ATOM     29  N   UNL     1       1.896  -0.499   1.589  0.00  0.00    -0.115 NA
ATOM     30  N   UNL     1       2.024  -1.007   2.765  0.00  0.00    -0.023 NA
ATOM     31  N   UNL     1       0.865  -1.345   3.214  0.00  0.00    -0.044 NA
ATOM     32  N   UNL     1      -0.026  -1.051   2.328  0.00  0.00    -0.227 N 
BRANCH  32  33
ATOM     33  C   UNL     1      -1.470  -1.271   2.439  0.00  0.00    +0.111 C 
ATOM     34  C   UNL     1      -2.021  -0.539   3.680  0.00  0.00    +0.027 C 
ATOM     35  C   UNL     1      -3.106  -1.498   4.234  0.00  0.00    +0.002 C 
ATOM     36  C   UNL     1      -2.479  -2.895   4.004  0.00  0.00    +0.002 C 
ATOM     37  C   UNL     1      -1.760  -2.768   2.644  0.00  0.00    +0.027 C 
ENDBRANCH  32  33
ENDBRANCH   1  28
TORSDOF 7
