REMARK  Name = ZINC36660352
REMARK  12 active torsions:
REMARK  status: ('A' for Active; 'I' for Inactive)
REMARK    1  A    between atoms: C_1  and  C_2
REMARK    2  A    between atoms: C_2  and  C_3
REMARK    3  A    between atoms: N_12  and  C_13
REMARK    4  A    between atoms: C_13  and  C_14
REMARK    5  A    between atoms: C_14  and  N_15
REMARK    6  A    between atoms: N_15  and  C_16
REMARK    7  A    between atoms: N_15  and  C_18
REMARK    8  A    between atoms: C_16  and  C_17
REMARK    9  A    between atoms: C_18  and  C_19
REMARK   10  A    between atoms: C_20  and  C_22
REMARK   11  A    between atoms: N_27  and  S_28
REMARK   12  A    between atoms: S_28  and  C_31
REMARK                            x       y       z     vdW  Elec       q    Type
REMARK                         _______ _______ _______ _____ _____    ______ ____
ROOT
ATOM      1  C   UNL     1      -2.428  -2.353  -0.066  0.00  0.00    -0.021 A 
ATOM      2  C   UNL     1      -2.938  -2.667   1.168  0.00  0.00    +0.006 A 
ATOM      3  C   UNL     1      -4.296  -2.870   1.360  0.00  0.00    +0.001 A 
ATOM      4  C   UNL     1      -5.158  -2.755   0.284  0.00  0.00    +0.017 A 
ATOM      5  C   UNL     1      -4.657  -2.442  -0.954  0.00  0.00    +0.041 A 
ATOM      6  C   UNL     1      -3.280  -2.221  -1.187  0.00  0.00    +0.083 A 
ATOM      7  N   UNL     1      -2.943  -1.916  -2.458  0.00  0.00    -0.224 NA
ATOM      8  C   UNL     1      -3.831  -1.823  -3.421  0.00  0.00    +0.168 A 
ATOM      9  S   UNL     1      -5.357  -2.197  -2.568  0.00  0.00    -0.052 S 
ATOM     10  N   UNL     1      -3.634  -1.520  -4.758  0.00  0.00    -0.251 N 
ATOM     11  C   UNL     1      -2.384  -1.397  -5.244  0.00  0.00    +0.240 C 
ATOM     12  O   UNL     1      -2.211  -1.033  -6.388  0.00  0.00    -0.273 OA
ENDROOT
BRANCH  11  13
ATOM     13  C   UNL     1      -1.200  -1.712  -4.367  0.00  0.00    +0.166 C 
ATOM     14  C   UNL     1      -0.749  -0.442  -3.616  0.00  0.00    +0.031 C 
ATOM     15  C   UNL     1       0.798  -0.560  -3.629  0.00  0.00    +0.019 C 
ATOM     16  C   UNL     1       1.048  -1.209  -5.013  0.00  0.00    +0.110 C 
ATOM     17  N   UNL     1      -0.069  -2.159  -5.194  0.00  0.00    -0.165 NA
BRANCH  17  18
ATOM     18  S   UNL     1      -0.053  -3.501  -6.165  0.00  0.00    +0.062 S 
ATOM     19  O   UNL     1       1.293  -3.953  -6.210  0.00  0.00    -0.153 OA
ATOM     20  O   UNL     1      -1.122  -4.330  -5.728  0.00  0.00    -0.153 OA
BRANCH  18  21
ATOM     21  C   UNL     1      -0.461  -2.970  -7.794  0.00  0.00    +0.106 A 
ATOM     22  C   UNL     1      -1.768  -3.049  -8.240  0.00  0.00    +0.031 A 
ATOM     23  C   UNL     1      -2.089  -2.632  -9.518  0.00  0.00    +0.040 A 
ATOM     24  C   UNL     1      -1.102  -2.135 -10.352  0.00  0.00    +0.124 A 
ATOM     25  C   UNL     1       0.206  -2.056  -9.905  0.00  0.00    +0.040 A 
ATOM     26  C   UNL     1       0.524  -2.469  -8.624  0.00  0.00    +0.031 A 
ATOM     27  F   UNL     1      -1.415  -1.728 -11.602  0.00  0.00    -0.205 F 
ENDBRANCH  18  21
ENDBRANCH  17  18
ENDBRANCH  11  13
BRANCH   1  29
ATOM     28  C   UNL     1      -0.621  -0.656  -0.052  0.00  0.00    +0.009 C 
ATOM     29  C   UNL     1      -0.945  -2.141  -0.227  0.00  0.00    +0.034 C 
ENDBRANCH   1  29
BRANCH  10  30
ATOM     30  C   UNL     1      -4.786  -1.333  -5.644  0.00  0.00    +0.097 C 
BRANCH  30  31
ATOM     31  C   UNL     1      -5.273   0.114  -5.549  0.00  0.00    -0.059 C 
BRANCH  31  32
ATOM     32  N   UNL     1      -6.473   0.283  -6.379  0.00  0.00    +0.380 N 
ATOM     33  H   UNL     1      -6.282  -0.038  -7.316  0.00  0.00    -0.082 HD
BRANCH  32  34
ATOM     34  C   UNL     1      -7.577  -0.501  -5.809  0.00  0.00    -0.082 C 
ATOM     35  C   UNL     1      -8.790  -0.427  -6.739  0.00  0.00    -0.017 C 
ENDBRANCH  32  34
BRANCH  32  36
ATOM     36  C   UNL     1      -6.849   1.702  -6.415  0.00  0.00    -0.082 C 
ATOM     37  C   UNL     1      -5.769   2.498  -7.151  0.00  0.00    -0.017 C 
ENDBRANCH  32  36
ENDBRANCH  31  32
ENDBRANCH  30  31
ENDBRANCH  10  30
TORSDOF 9
