REMARK  Name = ZINC13097038
REMARK  7 active torsions:
REMARK  status: ('A' for Active; 'I' for Inactive)
REMARK    1  A    between atoms: C_1  and  O_2
REMARK    2  A    between atoms: O_2  and  C_3
REMARK    3  A    between atoms: C_9  and  O_34
REMARK    4  A    between atoms: C_10  and  C_13
REMARK    5  A    between atoms: C_13  and  C_15
REMARK    6  A    between atoms: C_13  and  N_21
REMARK    7  A    between atoms: C_27  and  C_29
REMARK                            x       y       z     vdW  Elec       q    Type
REMARK                         _______ _______ _______ _____ _____    ______ ____
ROOT
ATOM      1  C   UNL     1      -2.754   4.042   4.606  0.00  0.00    +0.121 C 
ENDROOT
BRANCH   1   9
ATOM      2  C   UNL     1      -0.208   2.328   1.655  0.00  0.00    +0.121 A 
ATOM      3  C   UNL     1       0.492   3.131   0.749  0.00  0.00    +0.046 A 
ATOM      4  C   UNL     1       0.372   4.486   0.778  0.00  0.00    +0.012 A 
ATOM      5  C   UNL     1      -0.458   5.093   1.736  0.00  0.00    -0.017 A 
ATOM      6  C   UNL     1      -0.599   6.490   1.796  0.00  0.00    +0.012 A 
ATOM      7  C   UNL     1      -1.409   7.047   2.735  0.00  0.00    +0.046 A 
ATOM      8  C   UNL     1      -2.108   6.248   3.647  0.00  0.00    +0.122 A 
ATOM      9  C   UNL     1      -1.994   4.888   3.617  0.00  0.00    +0.023 A 
ATOM     10  C   UNL     1      -1.165   4.281   2.659  0.00  0.00    -0.006 A 
ATOM     11  C   UNL     1      -1.023   2.885   2.599  0.00  0.00    +0.054 A 
BRANCH   2  13
ATOM     12  C   UNL     1       0.794   0.455   0.589  0.00  0.00    +0.277 C 
ATOM     13  O   UNL     1      -0.072   0.978   1.598  0.00  0.00    -0.495 OA
ENDBRANCH   2  13
BRANCH   8  14
ATOM     14  O   UNL     1      -2.910   6.834   4.574  0.00  0.00    -0.506 OA
ATOM     15  H   UNL     1      -3.463   6.213   5.294  0.00  0.00    +0.292 HD
ENDBRANCH   8  14
ENDBRANCH   1   9
BRANCH   1  16
ATOM     16  N   UNL     1      -4.123   4.557   4.741  0.00  0.00    -0.288 NA
ATOM     17  C   UNL     1      -4.838   3.874   5.827  0.00  0.00    +0.104 C 
ATOM     18  C   UNL     1      -6.190   4.559   6.054  0.00  0.00    +0.123 C 
ATOM     19  N   UNL     1      -6.909   4.611   4.772  0.00  0.00    -0.295 N 
ATOM     20  C   UNL     1      -6.206   5.158   3.602  0.00  0.00    +0.123 C 
ATOM     21  C   UNL     1      -4.853   4.449   3.471  0.00  0.00    +0.104 C 
ATOM     22  C   UNL     1      -8.178   4.169   4.673  0.00  0.00    +0.253 C 
ATOM     23  O   UNL     1      -8.716   4.103   3.583  0.00  0.00    -0.269 OA
BRANCH  22  24
ATOM     24  C   UNL     1      -8.911   3.767   5.877  0.00  0.00    +0.074 A 
ATOM     25  C   UNL     1     -10.143   3.141   5.982  0.00  0.00    +0.021 A 
ATOM     26  C   UNL     1     -10.602   2.873   7.247  0.00  0.00    +0.008 A 
ATOM     27  C   UNL     1      -9.848   3.235   8.318  0.00  0.00    +0.046 A 
ATOM     28  S   UNL     1      -8.453   3.964   7.590  0.00  0.00    -0.092 S 
ENDBRANCH  22  24
ENDBRANCH   1  16
BRANCH   1  29
ATOM     29  C   UNL     1      -2.064   4.093   5.945  0.00  0.00    -0.026 A 
ATOM     30  C   UNL     1      -2.228   5.193   6.766  0.00  0.00    +0.005 A 
ATOM     31  C   UNL     1      -1.599   5.238   7.996  0.00  0.00    +0.000 A 
ATOM     32  C   UNL     1      -0.798   4.186   8.401  0.00  0.00    +0.000 A 
ATOM     33  C   UNL     1      -0.629   3.089   7.578  0.00  0.00    +0.000 A 
ATOM     34  C   UNL     1      -1.262   3.042   6.350  0.00  0.00    +0.005 A 
ENDBRANCH   1  29
TORSDOF 6
