REMARK  Name = ZINC05502444
REMARK  7 active torsions:
REMARK  status: ('A' for Active; 'I' for Inactive)
REMARK    1  A    between atoms: C_1  and  C_2
REMARK    2  A    between atoms: C_2  and  N_3
REMARK    3  A    between atoms: C_4  and  C_9
REMARK    4  A    between atoms: C_9  and  S_10
REMARK    5  A    between atoms: S_10  and  C_11
REMARK    6  A    between atoms: C_14  and  C_23
REMARK    7  A    between atoms: C_15  and  C_17
REMARK                            x       y       z     vdW  Elec       q    Type
REMARK                         _______ _______ _______ _____ _____    ______ ____
ROOT
ATOM      1  C   UNL     1      -1.099   1.756   0.206  0.00  0.00    +0.168 A 
ATOM      2  N   UNL     1      -0.025   0.970  -0.083  0.00  0.00    -0.332 N 
ATOM      3  H   UNL     1      -0.143  -0.122  -0.144  0.00  0.00    +0.168 HD
ATOM      4  C   UNL     1       1.062   1.808  -0.246  0.00  0.00    +0.075 A 
ATOM      5  C   UNL     1       0.596   3.092  -0.041  0.00  0.00    +0.098 A 
ATOM      6  N   UNL     1      -0.721   3.011   0.233  0.00  0.00    -0.221 NA
ENDROOT
BRANCH   5   7
ATOM      7  C   UNL     1       1.400   4.334  -0.110  0.00  0.00    +0.002 A 
ATOM      8  C   UNL     1       2.668   4.381   0.470  0.00  0.00    +0.010 A 
ATOM      9  C   UNL     1       3.414   5.540   0.398  0.00  0.00    +0.001 A 
ATOM     10  C   UNL     1       2.902   6.657  -0.238  0.00  0.00    +0.000 A 
ATOM     11  C   UNL     1       1.643   6.618  -0.810  0.00  0.00    +0.001 A 
ATOM     12  C   UNL     1       0.889   5.464  -0.749  0.00  0.00    +0.010 A 
ENDBRANCH   5   7
BRANCH   4  13
ATOM     13  C   UNL     1       2.445   1.411  -0.574  0.00  0.00    +0.000 A 
ATOM     14  C   UNL     1       3.145   2.075  -1.584  0.00  0.00    +0.010 A 
ATOM     15  C   UNL     1       4.439   1.703  -1.881  0.00  0.00    +0.001 A 
ATOM     16  C   UNL     1       5.040   0.664  -1.190  0.00  0.00    +0.000 A 
ATOM     17  C   UNL     1       4.350  -0.003  -0.193  0.00  0.00    +0.001 A 
ATOM     18  C   UNL     1       3.057   0.364   0.119  0.00  0.00    +0.010 A 
ENDBRANCH   4  13
BRANCH   1  19
ATOM     19  S   UNL     1      -2.737   1.177   0.500  0.00  0.00    -0.080 S 
BRANCH  19  20
ATOM     20  C   UNL     1      -3.577   2.752   0.804  0.00  0.00    +0.153 C 
BRANCH  20  22
ATOM     21  N   UNL     1      -5.581   2.272   2.327  0.00  0.00    -0.305 N 
ATOM     22  C   UNL     1      -5.035   2.497   1.087  0.00  0.00    +0.144 A 
ATOM     23  N   UNL     1      -5.979   2.459   0.202  0.00  0.00    -0.133 NA
ATOM     24  N   UNL     1      -7.186   2.194   0.862  0.00  0.00    -0.122 NA
ATOM     25  C   UNL     1      -6.908   2.087   2.179  0.00  0.00    +0.202 A 
ATOM     26  S   UNL     1      -8.034   1.772   3.430  0.00  0.00    -0.009 SA
BRANCH  21  28
ATOM     27  C   UNL     1      -4.807   3.646   4.197  0.00  0.00    +0.027 C 
ATOM     28  C   UNL     1      -4.847   2.240   3.594  0.00  0.00    +0.122 C 
ENDBRANCH  21  28
ENDBRANCH  20  22
ENDBRANCH  19  20
ENDBRANCH   1  19
TORSDOF 6
