REMARK  Name = ZINC34830620
REMARK  7 active torsions:
REMARK  status: ('A' for Active; 'I' for Inactive)
REMARK    1  A    between atoms: C_1  and  C_2
REMARK    2  A    between atoms: C_7  and  C_8
REMARK    3  A    between atoms: N_17  and  C_18
REMARK    4  A    between atoms: C_18  and  C_20
REMARK    5  A    between atoms: C_18  and  C_21
REMARK    6  A    between atoms: N_27  and  S_30
REMARK    7  A    between atoms: S_30  and  C_33
REMARK                            x       y       z     vdW  Elec       q    Type
REMARK                         _______ _______ _______ _____ _____    ______ ____
ROOT
ATOM      1  C   UNL     1       1.222  -1.185   2.875  0.00  0.00    +0.018 C 
ATOM      2  C   UNL     1       2.350  -1.860   3.659  0.00  0.00    -0.004 C 
ENDROOT
BRANCH   1  11
ATOM      3  C   UNL     1      -0.035  -0.606   4.828  0.00  0.00    -0.005 C 
ATOM      4  C   UNL     1      -1.315  -0.895   5.605  0.00  0.00    -0.047 A 
ATOM      5  C   UNL     1      -1.820  -0.073   6.610  0.00  0.00    +0.010 A 
ATOM      6  C   UNL     1      -2.967  -0.408   7.245  0.00  0.00    +0.045 A 
ATOM      7  S   UNL     1      -3.404  -1.940   6.436  0.00  0.00    -0.101 S 
ATOM      8  C   UNL     1      -2.033  -2.018   5.321  0.00  0.00    -0.010 A 
ATOM      9  C   UNL     1      -1.694  -3.050   4.295  0.00  0.00    +0.024 C 
ATOM     10  C   UNL     1      -0.238  -2.812   3.859  0.00  0.00    -0.071 C 
ATOM     11  N   UNL     1      -0.051  -1.381   3.582  0.00  0.00    +0.395 N 
ATOM     12  H   UNL     1      -0.807  -1.055   2.998  0.00  0.00    -0.079 HD
BRANCH   3  19
ATOM     13  C   UNL     1       1.235   1.212   6.680  0.00  0.00    +0.044 C 
ATOM     14  C   UNL     1       0.648   1.735   5.394  0.00  0.00    -0.049 A 
ATOM     15  C   UNL     1       0.723   3.083   5.097  0.00  0.00    +0.003 A 
ATOM     16  C   UNL     1       0.185   3.562   3.918  0.00  0.00    +0.000 A 
ATOM     17  C   UNL     1      -0.428   2.693   3.034  0.00  0.00    +0.000 A 
ATOM     18  C   UNL     1      -0.501   1.345   3.330  0.00  0.00    +0.002 A 
ATOM     19  C   UNL     1       0.041   0.865   4.508  0.00  0.00    -0.054 A 
ENDBRANCH   3  19
ENDBRANCH   1  11
BRANCH   1  20
ATOM     20  C   UNL     1       1.132  -1.794   1.499  0.00  0.00    +0.202 C 
ATOM     21  O   UNL     1       0.209  -2.531   1.222  0.00  0.00    -0.277 OA
ATOM     22  N   UNL     1       2.077  -1.521   0.578  0.00  0.00    -0.301 N 
ATOM     23  C   UNL     1       3.280  -0.744   0.959  0.00  0.00    +0.109 C 
ATOM     24  C   UNL     1       4.435  -1.639   1.127  0.00  0.00    +0.036 C 
ATOM     25  C   UNL     1       4.734  -2.435  -0.154  0.00  0.00    +0.111 C 
ATOM     26  N   UNL     1       3.793  -3.514  -0.234  0.00  0.00    -0.175 NA
ATOM     27  C   UNL     1       2.516  -3.397  -0.989  0.00  0.00    +0.128 C 
ATOM     28  C   UNL     1       1.920  -1.990  -0.771  0.00  0.00    +0.125 C 
BRANCH  26  29
ATOM     29  S   UNL     1       4.139  -4.938   0.539  0.00  0.00    +0.061 S 
ATOM     30  O   UNL     1       3.494  -5.967  -0.197  0.00  0.00    -0.153 OA
ATOM     31  O   UNL     1       5.539  -4.938   0.783  0.00  0.00    -0.153 OA
BRANCH  29  32
ATOM     32  C   UNL     1       3.353  -4.878   2.116  0.00  0.00    +0.105 A 
ATOM     33  C   UNL     1       4.061  -4.456   3.225  0.00  0.00    +0.028 A 
ATOM     34  C   UNL     1       3.445  -4.410   4.462  0.00  0.00    +0.002 A 
ATOM     35  C   UNL     1       2.121  -4.785   4.589  0.00  0.00    +0.000 A 
ATOM     36  C   UNL     1       1.412  -5.206   3.479  0.00  0.00    +0.002 A 
ATOM     37  C   UNL     1       2.027  -5.249   2.241  0.00  0.00    +0.028 A 
ENDBRANCH  29  32
ENDBRANCH  26  29
ENDBRANCH   1  20
TORSDOF 5
