REMARK  Name = ZINC05030829
REMARK  9 active torsions:
REMARK  status: ('A' for Active; 'I' for Inactive)
REMARK    1  A    between atoms: C_1  and  O_2
REMARK    2  A    between atoms: O_2  and  C_3
REMARK    3  A    between atoms: C_3  and  C_4
REMARK    4  A    between atoms: C_4  and  C_5
REMARK    5  A    between atoms: C_5  and  N_6
REMARK    6  A    between atoms: N_6  and  C_7
REMARK    7  A    between atoms: C_9  and  C_23
REMARK    8  A    between atoms: N_11  and  C_14
REMARK    9  A    between atoms: C_17  and  N_20
REMARK                            x       y       z     vdW  Elec       q    Type
REMARK                         _______ _______ _______ _____ _____    ______ ____
ROOT
ATOM      1  C   UNL     1      -3.523  -5.011  -0.141  0.00  0.00    +0.082 C 
ATOM      2  C   UNL     1      -3.388  -6.385  -0.071  0.00  0.00    +0.080 C 
ATOM      3  C   UNL     1      -4.465  -7.380   0.102  0.00  0.00    +0.103 C 
ATOM      4  N   UNL     1      -3.900  -8.560   0.116  0.00  0.00    -0.171 NA
ATOM      5  N   UNL     1      -2.518  -8.434  -0.035  0.00  0.00    -0.156 N 
ATOM      6  C   UNL     1      -2.183  -7.136  -0.155  0.00  0.00    +0.274 C 
ATOM      7  O   UNL     1      -1.058  -6.688  -0.306  0.00  0.00    -0.268 OA
ENDROOT
BRANCH   5   8
ATOM      8  C   UNL     1      -1.613  -9.502  -0.062  0.00  0.00    +0.060 A 
ATOM      9  C   UNL     1      -0.254  -9.259  -0.211  0.00  0.00    +0.028 A 
ATOM     10  C   UNL     1       0.636 -10.315  -0.236  0.00  0.00    +0.034 A 
ATOM     11  C   UNL     1       0.175 -11.613  -0.114  0.00  0.00    +0.126 A 
ATOM     12  C   UNL     1      -1.178 -11.859   0.034  0.00  0.00    +0.034 A 
ATOM     13  C   UNL     1      -2.072 -10.807   0.066  0.00  0.00    +0.028 A 
BRANCH  11  14
ATOM     14  N   UNL     1       1.132 -12.743  -0.143  0.00  0.00    +0.056 N 
ATOM     15  O   UNL     1       2.315 -12.530  -0.273  0.00  0.00    -0.126 OA
ATOM     16  O   UNL     1       0.730 -13.878  -0.036  0.00  0.00    -0.126 OA
ENDBRANCH  11  14
ENDBRANCH   5   8
BRANCH   3  17
ATOM     17  C   UNL     1      -5.913  -7.096   0.234  0.00  0.00    +0.003 A 
ATOM     18  C   UNL     1      -6.852  -8.039  -0.184  0.00  0.00    +0.010 A 
ATOM     19  C   UNL     1      -8.199  -7.769  -0.057  0.00  0.00    +0.001 A 
ATOM     20  C   UNL     1      -8.619  -6.566   0.483  0.00  0.00    +0.000 A 
ATOM     21  C   UNL     1      -7.692  -5.628   0.899  0.00  0.00    +0.001 A 
ATOM     22  C   UNL     1      -6.342  -5.888   0.783  0.00  0.00    +0.010 A 
ENDBRANCH   3  17
BRANCH   1  23
ATOM     23  N   UNL     1      -2.426  -4.227  -0.195  0.00  0.00    -0.349 N 
ATOM     24  H   UNL     1      -1.543  -4.627  -0.183  0.00  0.00    +0.146 HD
BRANCH  23  25
ATOM     25  C   UNL     1      -2.570  -2.771  -0.269  0.00  0.00    +0.103 C 
BRANCH  25  26
ATOM     26  C   UNL     1      -1.185  -2.123  -0.318  0.00  0.00    +0.047 C 
BRANCH  26  27
ATOM     27  C   UNL     1      -1.335  -0.603  -0.396  0.00  0.00    +0.161 C 
BRANCH  27  29
ATOM     28  C   UNL     1      -0.068   1.429  -0.517  0.00  0.00    +0.193 C 
ATOM     29  O   UNL     1      -0.041   0.002  -0.442  0.00  0.00    -0.383 OA
ENDBRANCH  27  29
ENDBRANCH  26  27
ENDBRANCH  25  26
ENDBRANCH  23  25
ENDBRANCH   1  23
TORSDOF 8
