REMARK  Name = ZINC36642551
REMARK  13 active torsions:
REMARK  status: ('A' for Active; 'I' for Inactive)
REMARK    1  A    between atoms: C_1  and  C_2
REMARK    2  A    between atoms: C_2  and  N_3
REMARK    3  A    between atoms: N_3  and  C_4
REMARK    4  A    between atoms: N_3  and  C_6
REMARK    5  A    between atoms: C_4  and  C_5
REMARK    6  A    between atoms: C_6  and  C_7
REMARK    7  A    between atoms: C_7  and  N_8
REMARK    8  A    between atoms: C_12  and  O_18
REMARK    9  A    between atoms: O_18  and  C_19
REMARK   10  A    between atoms: C_19  and  C_20
REMARK   11  A    between atoms: C_21  and  C_23
REMARK   12  A    between atoms: C_26  and  N_32
REMARK   13  A    between atoms: C_27  and  N_29
REMARK                            x       y       z     vdW  Elec       q    Type
REMARK                         _______ _______ _______ _____ _____    ______ ____
ROOT
ATOM      1  N   UNL     1      -1.505  -3.391  -1.720  0.00  0.00    -0.248 N 
ATOM      2  C   UNL     1      -1.760  -4.052  -0.529  0.00  0.00    +0.168 A 
ATOM      3  N   UNL     1      -1.723  -5.339  -0.278  0.00  0.00    -0.221 NA
ATOM      4  C   UNL     1      -1.997  -5.849   0.943  0.00  0.00    +0.122 A 
ATOM      5  C   UNL     1      -1.994  -7.209   1.345  0.00  0.00    +0.147 A 
ATOM      6  C   UNL     1      -2.300  -7.557   2.640  0.00  0.00    +0.048 A 
ATOM      7  C   UNL     1      -2.620  -6.599   3.591  0.00  0.00    +0.005 A 
ATOM      8  C   UNL     1      -2.632  -5.265   3.231  0.00  0.00    +0.017 A 
ATOM      9  C   UNL     1      -2.328  -4.905   1.940  0.00  0.00    +0.044 A 
ATOM     10  S   UNL     1      -2.215  -3.367   1.058  0.00  0.00    -0.052 S 
ATOM     11  C   UNL     1      -1.172  -4.093  -2.822  0.00  0.00    +0.252 C 
ATOM     12  O   UNL     1      -1.160  -5.308  -2.788  0.00  0.00    -0.270 OA
ENDROOT
BRANCH  11  13
ATOM     13  C   UNL     1      -0.822  -3.386  -4.068  0.00  0.00    +0.040 A 
ATOM     14  C   UNL     1       0.119  -2.352  -4.046  0.00  0.00    +0.015 A 
ATOM     15  C   UNL     1       0.443  -1.694  -5.210  0.00  0.00    +0.026 A 
ATOM     16  C   UNL     1      -0.165  -2.057  -6.409  0.00  0.00    +0.060 A 
ATOM     17  C   UNL     1      -1.102  -3.086  -6.434  0.00  0.00    +0.148 A 
ATOM     18  C   UNL     1      -1.426  -3.752  -5.274  0.00  0.00    +0.047 A 
BRANCH  16  19
ATOM     19  N   UNL     1       0.164  -1.390  -7.584  0.00  0.00    -0.324 N 
ATOM     20  C   UNL     1      -0.575  -0.189  -8.005  0.00  0.00    +0.133 C 
ATOM     21  C   UNL     1       0.440   0.914  -8.327  0.00  0.00    +0.178 C 
ATOM     22  O   UNL     1       1.409   0.409  -9.248  0.00  0.00    -0.377 OA
ATOM     23  C   UNL     1       2.187  -0.678  -8.742  0.00  0.00    +0.178 C 
ATOM     24  C   UNL     1       1.266  -1.860  -8.439  0.00  0.00    +0.133 C 
ENDBRANCH  16  19
BRANCH  17  25
ATOM     25  N   UNL     1      -1.746  -3.469  -7.711  0.00  0.00    +0.058 N 
ATOM     26  O   UNL     1      -2.560  -4.363  -7.733  0.00  0.00    -0.126 OA
ATOM     27  O   UNL     1      -1.458  -2.888  -8.731  0.00  0.00    -0.126 OA
ENDBRANCH  17  25
ENDBRANCH  11  13
BRANCH   1  28
ATOM     28  C   UNL     1      -1.598  -1.931  -1.781  0.00  0.00    +0.097 C 
BRANCH  28  29
ATOM     29  C   UNL     1      -0.361  -1.313  -1.126  0.00  0.00    -0.059 C 
BRANCH  29  30
ATOM     30  N   UNL     1      -0.386   0.144  -1.308  0.00  0.00    +0.380 N 
ATOM     31  H   UNL     1      -0.470   0.359  -2.290  0.00  0.00    -0.082 HD
BRANCH  30  33
ATOM     32  C   UNL     1      -1.641   2.204  -0.887  0.00  0.00    -0.017 C 
ATOM     33  C   UNL     1      -1.532   0.709  -0.583  0.00  0.00    -0.082 C 
ENDBRANCH  30  33
BRANCH  30  34
ATOM     34  C   UNL     1       0.858   0.725  -0.785  0.00  0.00    -0.082 C 
ATOM     35  C   UNL     1       2.040   0.246  -1.631  0.00  0.00    -0.017 C 
ENDBRANCH  30  34
ENDBRANCH  29  30
ENDBRANCH  28  29
ENDBRANCH   1  28
BRANCH   5  36
ATOM     36  O   UNL     1      -1.685  -8.177   0.443  0.00  0.00    -0.490 OA
BRANCH  36  37
ATOM     37  C   UNL     1      -1.700  -9.528   0.909  0.00  0.00    +0.226 C 
ATOM     38  C   UNL     1      -1.330 -10.468  -0.240  0.00  0.00    +0.048 C 
ENDBRANCH  36  37
ENDBRANCH   5  36
TORSDOF 10
