REMARK  Name = ZINC05905459
REMARK  2 active torsions:
REMARK  status: ('A' for Active; 'I' for Inactive)
REMARK    1  A    between atoms: C_4  and  N_7
REMARK    2  A    between atoms: N_10  and  O_11
REMARK                            x       y       z     vdW  Elec       q    Type
REMARK                         _______ _______ _______ _____ _____    ______ ____
ROOT
ATOM      1  N   UNL     1       3.597  -0.627  -0.037  0.00  0.00    -0.226 NA
ATOM      2  C   UNL     1       3.790  -1.658   0.763  0.00  0.00    +0.193 C 
ATOM      3  C   UNL     1       5.077  -2.412   0.788  0.00  0.00    +0.189 C 
ATOM      4  N   UNL     1       6.164  -2.228   0.098  0.00  0.00    -0.076 NA
ATOM      5  S   UNL     1       4.704  -3.638   2.035  0.00  0.00    -0.000 S 
ATOM      6  C   UNL     1       3.035  -3.115   2.397  0.00  0.00    +0.314 C 
ATOM      7  O   UNL     1       2.167  -3.646   3.282  0.00  0.00    -0.258 OA
ATOM      8  N   UNL     1       2.855  -2.084   1.598  0.00  0.00    -0.181 NA
ENDROOT
BRANCH   1  12
ATOM      9  C   UNL     1      -0.017   1.380   0.010  0.00  0.00    +0.000 A 
ATOM     10  C   UNL     1       1.168   2.095   0.002  0.00  0.00    +0.002 A 
ATOM     11  C   UNL     1       2.377   1.434  -0.013  0.00  0.00    +0.028 A 
ATOM     12  C   UNL     1       2.405   0.035  -0.021  0.00  0.00    +0.066 A 
ATOM     13  C   UNL     1       1.203  -0.681  -0.013  0.00  0.00    +0.028 A 
ATOM     14  C   UNL     1       0.002  -0.004   0.002  0.00  0.00    +0.002 A 
ENDBRANCH   1  12
BRANCH   4  15
ATOM     15  O   UNL     1       7.278  -3.080   0.293  0.00  0.00    -0.408 OA
ATOM     16  H   UNL     1       8.039  -2.866  -0.264  0.00  0.00    +0.328 HD
ENDBRANCH   4  15
TORSDOF 2
