REMARK  Name = ZINC33250849
REMARK  8 active torsions:
REMARK  status: ('A' for Active; 'I' for Inactive)
REMARK    1  A    between atoms: C_1  and  C_2
REMARK    2  A    between atoms: C_5  and  C_38
REMARK    3  A    between atoms: C_6  and  C_8
REMARK    4  A    between atoms: C_9  and  C_10
REMARK    5  A    between atoms: C_11  and  S_16
REMARK    6  A    between atoms: C_12  and  C_15
REMARK    7  A    between atoms: S_16  and  N_19
REMARK    8  A    between atoms: C_23  and  C_26
REMARK                            x       y       z     vdW  Elec       q    Type
REMARK                         _______ _______ _______ _____ _____    ______ ____
ROOT
ATOM      1  S   UNL     1      -3.484   6.612  -0.465  0.00  0.00    +0.066 S 
ATOM      2  O   UNL     1      -4.530   5.846  -1.047  0.00  0.00    -0.153 OA
ATOM      3  O   UNL     1      -3.733   7.780   0.305  0.00  0.00    -0.153 OA
ENDROOT
BRANCH   1   5
ATOM      4  C   UNL     1      -1.567   8.172  -1.833  0.00  0.00    +0.187 A 
ATOM      5  C   UNL     1      -2.420   7.096  -1.784  0.00  0.00    +0.174 A 
ATOM      6  C   UNL     1      -2.250   6.474  -3.035  0.00  0.00    +0.107 A 
ATOM      7  N   UNL     1      -1.366   7.177  -3.685  0.00  0.00    -0.081 NA
ATOM      8  O   UNL     1      -0.971   8.119  -3.039  0.00  0.00    -0.353 OA
ATOM      9  C   UNL     1      -2.954   5.236  -3.528  0.00  0.00    +0.071 C 
BRANCH   4  11
ATOM     10  C   UNL     1      -0.471  10.175  -0.982  0.00  0.00    +0.012 C 
ATOM     11  C   UNL     1      -1.347   9.171  -0.783  0.00  0.00    +0.051 C 
BRANCH  10  17
ATOM     12  C   UNL     1      -1.487  11.949   3.566  0.00  0.00    +0.044 C 
ATOM     13  C   UNL     1      -0.736  12.039   2.263  0.00  0.00    -0.050 A 
ATOM     14  C   UNL     1       0.165  13.069   2.054  0.00  0.00    +0.003 A 
ATOM     15  C   UNL     1       0.860  13.159   0.861  0.00  0.00    +0.004 A 
ATOM     16  C   UNL     1       0.658  12.222  -0.131  0.00  0.00    -0.043 A 
ATOM     17  C   UNL     1      -0.250  11.179   0.072  0.00  0.00    -0.022 A 
ATOM     18  C   UNL     1      -0.953  11.098   1.278  0.00  0.00    +0.011 A 
ATOM     19  C   UNL     1       1.416  12.322  -1.430  0.00  0.00    +0.044 C 
ENDBRANCH  10  17
ENDBRANCH   4  11
ENDBRANCH   1   5
BRANCH   1  20
ATOM     20  N   UNL     1      -2.624   5.581   0.504  0.00  0.00    -0.176 NA
ATOM     21  C   UNL     1      -1.832   6.096   1.629  0.00  0.00    +0.109 C 
ATOM     22  C   UNL     1      -0.396   5.578   1.499  0.00  0.00    +0.018 C 
ATOM     23  C   UNL     1      -0.417   4.051   1.392  0.00  0.00    +0.015 C 
ATOM     24  C   UNL     1      -1.195   3.636   0.141  0.00  0.00    +0.091 C 
ATOM     25  C   UNL     1      -2.640   4.133   0.256  0.00  0.00    +0.122 C 
BRANCH  24  26
ATOM     26  C   UNL     1      -1.188   2.134   0.019  0.00  0.00    +0.224 C 
ATOM     27  O   UNL     1      -2.134   1.489   0.418  0.00  0.00    -0.275 OA
ATOM     28  N   UNL     1      -0.130   1.509  -0.533  0.00  0.00    -0.271 N 
ATOM     29  C   UNL     1       0.964   2.282  -1.137  0.00  0.00    +0.114 C 
ATOM     30  C   UNL     1       1.324   1.620  -2.473  0.00  0.00    +0.024 C 
ATOM     31  C   UNL     1       1.844   0.208  -2.201  0.00  0.00    +0.038 C 
ATOM     32  C   UNL     1       0.880  -0.548  -1.325  0.00  0.00    -0.026 A 
ATOM     33  C   UNL     1      -0.051   0.109  -0.537  0.00  0.00    +0.039 A 
ATOM     34  C   UNL     1      -0.924  -0.620   0.263  0.00  0.00    +0.024 A 
ATOM     35  C   UNL     1      -0.865  -1.999   0.271  0.00  0.00    +0.002 A 
ATOM     36  C   UNL     1       0.063  -2.654  -0.517  0.00  0.00    +0.000 A 
ATOM     37  C   UNL     1       0.932  -1.932  -1.312  0.00  0.00    +0.005 A 
ENDBRANCH  24  26
ENDBRANCH   1  20
TORSDOF 5
