REMARK  Name = ZINC12847937
REMARK  6 active torsions:
REMARK  status: ('A' for Active; 'I' for Inactive)
REMARK    1  A    between atoms: C_1  and  C_2
REMARK    2  A    between atoms: C_5  and  O_31
REMARK    3  A    between atoms: C_6  and  N_8
REMARK    4  A    between atoms: C_9  and  C_11
REMARK    5  A    between atoms: C_16  and  C_27
REMARK    6  A    between atoms: C_19  and  C_22
REMARK                            x       y       z     vdW  Elec       q    Type
REMARK                         _______ _______ _______ _____ _____    ______ ____
ROOT
ATOM      1  C   UNL     1       0.277  -2.878   4.834  0.00  0.00    +0.149 A 
ATOM      2  C   UNL     1       0.382  -2.312   6.125  0.00  0.00    +0.078 A 
ATOM      3  C   UNL     1       0.479  -3.326   7.007  0.00  0.00    +0.119 A 
ATOM      4  N   UNL     1       0.441  -4.501   6.311  0.00  0.00    -0.238 N 
ATOM      5  N   UNL     1       0.307  -4.194   4.958  0.00  0.00    -0.164 NA
ATOM      6  C   UNL     1       0.526  -5.822   6.940  0.00  0.00    +0.215 C 
ATOM      7  C   UNL     1       1.132  -5.667   8.340  0.00  0.00    +0.063 C 
ATOM      8  C   UNL     1       0.397  -4.562   9.107  0.00  0.00    +0.111 C 
ATOM      9  N   UNL     1       0.600  -3.283   8.399  0.00  0.00    -0.322 N 
ATOM     10  H   UNL     1       0.805  -2.461   8.872  0.00  0.00    +0.148 HD
ENDROOT
BRANCH   8  11
ATOM     11  C   UNL     1      -1.074  -4.883   9.170  0.00  0.00    +0.010 A 
ATOM     12  C   UNL     1      -1.788  -5.422  10.188  0.00  0.00    +0.013 A 
ATOM     13  C   UNL     1      -3.144  -5.629  10.021  0.00  0.00    +0.008 A 
ATOM     14  C   UNL     1      -3.720  -5.287   8.843  0.00  0.00    +0.045 A 
ATOM     15  S   UNL     1      -2.331  -4.644   7.925  0.00  0.00    -0.100 S 
ENDBRANCH   8  11
BRANCH   1  17
ATOM     16  N   UNL     1       0.052  -2.794   2.399  0.00  0.00    -0.277 N 
ATOM     17  C   UNL     1       0.150  -2.130   3.567  0.00  0.00    +0.268 C 
ATOM     18  O   UNL     1       0.134  -0.914   3.578  0.00  0.00    -0.268 OA
ATOM     19  H   UNL     1      -0.001  -3.763   2.394  0.00  0.00    +0.155 HD
BRANCH  16  25
ATOM     20  C   UNL     1      -1.307   1.189  -0.143  0.00  0.00    +0.044 C 
ATOM     21  C   UNL     1      -0.626  -0.154  -0.071  0.00  0.00    -0.048 A 
ATOM     22  C   UNL     1      -0.029  -0.685  -1.199  0.00  0.00    +0.007 A 
ATOM     23  C   UNL     1       0.598  -1.917  -1.138  0.00  0.00    +0.047 A 
ATOM     24  C   UNL     1       0.627  -2.621   0.054  0.00  0.00    +0.138 A 
ATOM     25  C   UNL     1       0.025  -2.086   1.190  0.00  0.00    +0.076 A 
ATOM     26  C   UNL     1      -0.597  -0.848   1.124  0.00  0.00    +0.030 A 
BRANCH  24  27
ATOM     27  O   UNL     1       1.242  -3.833   0.115  0.00  0.00    -0.505 OA
ATOM     28  H   UNL     1       2.179  -3.787   0.348  0.00  0.00    +0.292 HD
ENDBRANCH  24  27
ENDBRANCH  16  25
ENDBRANCH   1  17
BRANCH   6  29
ATOM     29  C   UNL     1       1.413  -6.737   6.094  0.00  0.00    +0.412 C 
ATOM     30  F   UNL     1       2.695  -6.184   5.997  0.00  0.00    -0.168 F 
ATOM     31  F   UNL     1       1.493  -7.997   6.696  0.00  0.00    -0.168 F 
ATOM     32  F   UNL     1       0.863  -6.866   4.814  0.00  0.00    -0.168 F 
ENDBRANCH   6  29
TORSDOF 5
