REMARK  Name = ZINC02211468
REMARK  11 active torsions:
REMARK  status: ('A' for Active; 'I' for Inactive)
REMARK    1  A    between atoms: C_1  and  C_2
REMARK    2  A    between atoms: C_7  and  N_8
REMARK    3  A    between atoms: C_18  and  S_19
REMARK    4  A    between atoms: S_19  and  C_20
REMARK    5  A    between atoms: C_20  and  C_21
REMARK    6  A    between atoms: N_23  and  N_24
REMARK    7  A    between atoms: C_25  and  C_26
REMARK    8  A    between atoms: C_29  and  C_32
REMARK    9  A    between atoms: C_32  and  C_33
REMARK   10  A    between atoms: C_32  and  C_34
REMARK   11  A    between atoms: C_32  and  C_35
REMARK                            x       y       z     vdW  Elec       q    Type
REMARK                         _______ _______ _______ _____ _____    ______ ____
ROOT
ATOM      1  N   UNL     1       0.037  -2.767  -0.012  0.00  0.00    -0.255 N 
ATOM      2  C   UNL     1       1.239  -2.146  -0.021  0.00  0.00    +0.267 A 
ATOM      3  O   UNL     1       2.277  -2.781  -0.035  0.00  0.00    -0.267 OA
ATOM      4  C   UNL     1       1.245  -0.677  -0.013  0.00  0.00    +0.065 A 
ATOM      5  C   UNL     1       2.432   0.055  -0.021  0.00  0.00    +0.015 A 
ATOM      6  C   UNL     1       2.381   1.421  -0.013  0.00  0.00    +0.001 A 
ATOM      7  C   UNL     1       1.161   2.086   0.002  0.00  0.00    +0.002 A 
ATOM      8  C   UNL     1      -0.017   1.394   0.010  0.00  0.00    +0.028 A 
ATOM      9  C   UNL     1       0.002  -0.004   0.002  0.00  0.00    +0.079 A 
ATOM     10  N   UNL     1      -1.141  -0.729   0.009  0.00  0.00    -0.223 NA
ATOM     11  C   UNL     1      -1.121  -2.039   0.003  0.00  0.00    +0.177 A 
ENDROOT
BRANCH   1  18
ATOM     12  C   UNL     1      -0.045  -4.099  -2.526  0.00  0.00    +0.046 C 
ATOM     13  C   UNL     1      -0.063  -4.856  -1.223  0.00  0.00    -0.026 A 
ATOM     14  C   UNL     1      -0.121  -6.236  -1.226  0.00  0.00    +0.005 A 
ATOM     15  C   UNL     1      -0.138  -6.931  -0.031  0.00  0.00    +0.000 A 
ATOM     16  C   UNL     1      -0.097  -6.248   1.170  0.00  0.00    +0.002 A 
ATOM     17  C   UNL     1      -0.034  -4.868   1.180  0.00  0.00    +0.026 A 
ATOM     18  C   UNL     1      -0.022  -4.167  -0.019  0.00  0.00    +0.055 A 
ENDBRANCH   1  18
BRANCH  11  19
ATOM     19  S   UNL     1      -2.657  -2.903   0.015  0.00  0.00    -0.078 S 
BRANCH  19  20
ATOM     20  C   UNL     1      -3.804  -1.504   0.033  0.00  0.00    +0.174 C 
BRANCH  20  21
ATOM     21  C   UNL     1      -5.221  -2.016   0.045  0.00  0.00    +0.242 C 
ATOM     22  O   UNL     1      -5.434  -3.210   0.042  0.00  0.00    -0.273 OA
ATOM     23  N   UNL     1      -6.252  -1.148   0.060  0.00  0.00    -0.206 N 
ATOM     24  H   UNL     1      -6.082  -0.193   0.063  0.00  0.00    +0.177 HD
BRANCH  23  25
ATOM     25  N   UNL     1      -7.569  -1.624   0.072  0.00  0.00    -0.188 NA
ATOM     26  C   UNL     1      -8.562  -0.788   0.086  0.00  0.00    +0.138 C 
BRANCH  26  27
ATOM     27  C   UNL     1      -9.948  -1.290   0.098  0.00  0.00    -0.005 A 
ATOM     28  C   UNL     1     -10.198  -2.664   0.088  0.00  0.00    +0.010 A 
ATOM     29  C   UNL     1     -11.497  -3.126   0.105  0.00  0.00    +0.005 A 
ATOM     30  C   UNL     1     -12.553  -2.232   0.120  0.00  0.00    -0.042 A 
ATOM     31  C   UNL     1     -12.313  -0.869   0.124  0.00  0.00    +0.005 A 
ATOM     32  C   UNL     1     -11.019  -0.393   0.113  0.00  0.00    +0.010 A 
BRANCH  30  33
ATOM     33  C   UNL     1     -13.970  -2.744   0.132  0.00  0.00    -0.013 C 
ATOM     34  C   UNL     1     -14.707  -2.234  -1.108  0.00  0.00    +0.015 C 
ATOM     35  C   UNL     1     -13.959  -4.274   0.125  0.00  0.00    +0.015 C 
ATOM     36  C   UNL     1     -14.682  -2.245   1.391  0.00  0.00    +0.015 C 
ENDBRANCH  30  33
ENDBRANCH  26  27
ENDBRANCH  23  25
ENDBRANCH  20  21
ENDBRANCH  19  20
ENDBRANCH  11  19
TORSDOF 7
