REMARK  Name = ZINC64461226
REMARK  11 active torsions:
REMARK  status: ('A' for Active; 'I' for Inactive)
REMARK    1  A    between atoms: C_1  and  C_2
REMARK    2  A    between atoms: C_2  and  C_3
REMARK    3  A    between atoms: C_3  and  C_4
REMARK    4  A    between atoms: C_4  and  C_5
REMARK    5  A    between atoms: C_5  and  N_6
REMARK    6  A    between atoms: C_11  and  C_21
REMARK    7  A    between atoms: C_21  and  C_22
REMARK    8  A    between atoms: C_22  and  C_23
REMARK    9  A    between atoms: N_25  and  C_26
REMARK   10  A    between atoms: C_26  and  C_27
REMARK   11  A    between atoms: C_27  and  C_28
REMARK                            x       y       z     vdW  Elec       q    Type
REMARK                         _______ _______ _______ _____ _____    ______ ____
ROOT
ATOM      1  N   UNL     1       1.523  -4.012   2.465  0.00  0.00    -0.258 N 
ATOM      2  C   UNL     1       0.437  -4.751   3.100  0.00  0.00    +0.310 C 
ATOM      3  N   UNL     1      -0.846  -4.062   3.049  0.00  0.00    -0.147 NA
ATOM      4  N   UNL     1      -1.739  -4.798   2.614  0.00  0.00    -0.166 NA
ATOM      5  C   UNL     1      -1.222  -6.127   2.252  0.00  0.00    +0.217 C 
ATOM      6  N   UNL     1       0.210  -6.021   2.376  0.00  0.00    -0.267 N 
ATOM      7  C   UNL     1       1.269  -6.786   1.903  0.00  0.00    +0.054 A 
ATOM      8  C   UNL     1       1.385  -8.128   1.633  0.00  0.00    +0.031 A 
ATOM      9  C   UNL     1       2.563  -8.617   1.168  0.00  0.00    +0.048 A 
ATOM     10  S   UNL     1       3.572  -7.271   1.077  0.00  0.00    -0.090 S 
ATOM     11  C   UNL     1       2.449  -6.044   1.653  0.00  0.00    +0.095 A 
ATOM     12  C   UNL     1       2.551  -4.667   1.859  0.00  0.00    +0.258 C 
ATOM     13  O   UNL     1       3.548  -4.062   1.506  0.00  0.00    -0.269 OA
ENDROOT
BRANCH   1  14
ATOM     14  C   UNL     1       1.503  -2.548   2.473  0.00  0.00    +0.112 C 
BRANCH  14  15
ATOM     15  C   UNL     1       0.763  -2.041   1.233  0.00  0.00    +0.019 C 
BRANCH  15  16
ATOM     16  C   UNL     1       0.742  -0.511   1.242  0.00  0.00    +0.001 C 
BRANCH  16  18
ATOM     17  C   UNL     1      -0.019   1.526   0.010  0.00  0.00    +0.004 C 
ATOM     18  C   UNL     1       0.002  -0.004   0.002  0.00  0.00    -0.003 C 
ENDBRANCH  16  18
ENDBRANCH  15  16
ENDBRANCH  14  15
ENDBRANCH   1  14
BRANCH   5  19
ATOM     19  C   UNL     1      -1.773  -7.187   3.208  0.00  0.00    +0.058 C 
BRANCH  19  20
ATOM     20  C   UNL     1      -3.284  -7.318   3.008  0.00  0.00    +0.099 C 
BRANCH  20  21
ATOM     21  C   UNL     1      -3.826  -8.363   3.949  0.00  0.00    +0.213 C 
ATOM     22  O   UNL     1      -3.078  -8.945   4.705  0.00  0.00    -0.276 OA
ATOM     23  N   UNL     1      -5.143  -8.650   3.950  0.00  0.00    -0.315 N 
ATOM     24  H   UNL     1      -5.742  -8.184   3.346  0.00  0.00    +0.149 HD
BRANCH  23  25
ATOM     25  C   UNL     1      -5.670  -9.666   4.865  0.00  0.00    +0.108 C 
BRANCH  25  26
ATOM     26  C   UNL     1      -7.181  -9.797   4.665  0.00  0.00    +0.052 C 
BRANCH  26  27
ATOM     27  C   UNL     1      -7.724 -10.842   5.606  0.00  0.00    -0.040 C 
ATOM     28  C   UNL     1      -8.272 -10.632   6.825  0.00  0.00    -0.001 A 
ATOM     29  C   UNL     1      -8.518  -9.416   7.609  0.00  0.00    +0.010 A 
ATOM     30  C   UNL     1      -9.097  -9.526   8.826  0.00  0.00    +0.001 A 
ATOM     31  C   UNL     1      -9.467 -10.770   9.357  0.00  0.00    +0.002 A 
ATOM     32  C   UNL     1      -9.274 -11.931   8.696  0.00  0.00    +0.026 A 
ATOM     33  C   UNL     1      -8.673 -11.933   7.407  0.00  0.00    +0.043 A 
ATOM     34  N   UNL     1      -8.383 -12.909   6.581  0.00  0.00    -0.380 N 
ATOM     35  C   UNL     1      -7.771 -12.336   5.377  0.00  0.00    +0.144 C 
ATOM     36  H   UNL     1      -8.549 -13.851   6.737  0.00  0.00    +0.160 HD
ENDBRANCH  26  27
ENDBRANCH  25  26
ENDBRANCH  23  25
ENDBRANCH  20  21
ENDBRANCH  19  20
ENDBRANCH   5  19
TORSDOF 10
