REMARK  Name = ZINC13274835
REMARK  11 active torsions:
REMARK  status: ('A' for Active; 'I' for Inactive)
REMARK    1  A    between atoms: N_9  and  C_26
REMARK    2  A    between atoms: C_10  and  S_12
REMARK    3  A    between atoms: S_12  and  C_13
REMARK    4  A    between atoms: C_16  and  C_22
REMARK    5  A    between atoms: C_18  and  N_19
REMARK    6  A    between atoms: C_23  and  C_24
REMARK    7  A    between atoms: C_26  and  C_27
REMARK    8  A    between atoms: C_27  and  C_28
REMARK    9  A    between atoms: C_28  and  C_29
REMARK   10  A    between atoms: C_29  and  C_30
REMARK   11  A    between atoms: C_30  and  C_31
REMARK                            x       y       z     vdW  Elec       q    Type
REMARK                         _______ _______ _______ _____ _____    ______ ____
ROOT
ATOM      1  C   UNL     1      -1.613   4.791   4.651  0.00  0.00    +0.001 A 
ATOM      2  C   UNL     1      -2.490   3.888   5.239  0.00  0.00    +0.002 A 
ATOM      3  C   UNL     1      -2.745   2.677   4.661  0.00  0.00    +0.028 A 
ATOM      4  C   UNL     1      -2.115   2.337   3.459  0.00  0.00    +0.079 A 
ATOM      5  C   UNL     1      -1.224   3.259   2.864  0.00  0.00    +0.065 A 
ATOM      6  C   UNL     1      -0.982   4.487   3.476  0.00  0.00    +0.015 A 
ATOM      7  C   UNL     1      -0.571   2.877   1.604  0.00  0.00    +0.262 A 
ATOM      8  O   UNL     1       0.211   3.625   1.046  0.00  0.00    -0.267 OA
ATOM      9  N   UNL     1      -0.874   1.664   1.086  0.00  0.00    -0.287 N 
ATOM     10  C   UNL     1      -1.749   0.836   1.729  0.00  0.00    +0.177 A 
ATOM     11  N   UNL     1      -2.338   1.153   2.855  0.00  0.00    -0.223 NA
ENDROOT
BRANCH  10  12
ATOM     12  S   UNL     1      -2.101  -0.734   1.011  0.00  0.00    -0.049 S 
BRANCH  12  13
ATOM     13  C   UNL     1      -3.273  -1.347   2.175  0.00  0.00    +0.046 A 
ATOM     14  C   UNL     1      -2.885  -2.296   3.118  0.00  0.00    +0.018 A 
ATOM     15  C   UNL     1      -3.789  -2.770   4.025  0.00  0.00    +0.009 A 
ATOM     16  C   UNL     1      -5.112  -2.308   3.999  0.00  0.00    -0.023 A 
ATOM     17  C   UNL     1      -5.499  -1.359   3.045  0.00  0.00    +0.041 A 
ATOM     18  C   UNL     1      -4.587  -0.886   2.145  0.00  0.00    +0.140 A 
BRANCH  18  19
ATOM     19  N   UNL     1      -4.995   0.118   1.137  0.00  0.00    +0.058 N 
ATOM     20  O   UNL     1      -6.144   0.522   1.110  0.00  0.00    -0.126 OA
ATOM     21  O   UNL     1      -4.182   0.540   0.334  0.00  0.00    -0.126 OA
ENDBRANCH  18  19
BRANCH  16  22
ATOM     22  C   UNL     1      -6.090  -2.820   4.968  0.00  0.00    +0.015 C 
ATOM     23  C   UNL     1      -5.714  -3.736   5.888  0.00  0.00    +0.096 C 
BRANCH  23  24
ATOM     24  C   UNL     1      -6.657  -4.230   6.823  0.00  0.00    +0.380 C 
ATOM     25  O   UNL     1      -7.805  -3.829   6.798  0.00  0.00    -0.241 OA
ATOM     26  O   UNL     1      -6.282  -5.145   7.741  0.00  0.00    -0.241 OA
ENDBRANCH  23  24
ENDBRANCH  16  22
ENDBRANCH  12  13
ENDBRANCH  10  12
BRANCH   9  27
ATOM     27  C   UNL     1      -0.256   1.235  -0.171  0.00  0.00    +0.127 C 
BRANCH  27  28
ATOM     28  C   UNL     1      -1.135   1.669  -1.346  0.00  0.00    +0.022 C 
BRANCH  28  29
ATOM     29  C   UNL     1      -0.490   1.220  -2.659  0.00  0.00    +0.002 C 
BRANCH  29  30
ATOM     30  C   UNL     1      -1.369   1.653  -3.833  0.00  0.00    +0.011 C 
BRANCH  30  31
ATOM     31  C   UNL     1      -0.723   1.205  -5.146  0.00  0.00    +0.125 C 
BRANCH  31  32
ATOM     32  C   UNL     1      -1.589   1.632  -6.303  0.00  0.00    +0.356 C 
ATOM     33  O   UNL     1      -2.617   2.233  -6.099  0.00  0.00    -0.246 OA
ATOM     34  O   UNL     1      -1.219   1.344  -7.561  0.00  0.00    -0.246 OA
ENDBRANCH  31  32
ENDBRANCH  30  31
ENDBRANCH  29  30
ENDBRANCH  28  29
ENDBRANCH  27  28
ENDBRANCH   9  27
TORSDOF 11
