REMARK  Name = ZINC40927809
REMARK  14 active torsions:
REMARK  status: ('A' for Active; 'I' for Inactive)
REMARK    1  A    between atoms: C_1  and  C_2
REMARK    2  A    between atoms: C_2  and  O_3
REMARK    3  A    between atoms: O_3  and  C_4
REMARK    4  A    between atoms: C_6  and  C_15
REMARK    5  A    between atoms: C_9  and  O_10
REMARK    6  A    between atoms: O_10  and  C_11
REMARK    7  A    between atoms: C_11  and  C_12
REMARK    8  A    between atoms: C_11  and  C_13
REMARK    9  A    between atoms: N_19  and  C_23
REMARK   10  A    between atoms: C_23  and  C_24
REMARK   11  A    between atoms: C_24  and  C_25
REMARK   12  A    between atoms: C_25  and  C_26
REMARK   13  A    between atoms: C_26  and  C_27
REMARK   14  A    between atoms: C_27  and  C_28
REMARK                            x       y       z     vdW  Elec       q    Type
REMARK                         _______ _______ _______ _____ _____    ______ ____
ROOT
ATOM      1  C   UNL     1      -0.198  -4.957  -0.499  0.00  0.00    +0.028 C 
ATOM      2  C   UNL     1       0.428  -6.124  -0.800  0.00  0.00    +0.077 C 
ATOM      3  C   UNL     1       0.105  -7.125  -1.836  0.00  0.00    +0.258 C 
ATOM      4  O   UNL     1      -0.842  -6.985  -2.588  0.00  0.00    -0.269 OA
ATOM      5  N   UNL     1       0.897  -8.182  -1.906  0.00  0.00    -0.255 N 
ATOM      6  C   UNL     1       1.946  -8.333  -1.071  0.00  0.00    +0.121 C 
ATOM      7  S   UNL     1       3.075  -9.618  -1.006  0.00  0.00    -0.027 S 
ATOM      8  S   UNL     1       1.874  -6.866  -0.056  0.00  0.00    -0.061 S 
ENDROOT
BRANCH   1  11
ATOM      9  C   UNL     1       0.213  -2.133   1.935  0.00  0.00    +0.164 A 
ATOM     10  C   UNL     1      -0.172  -2.849   0.818  0.00  0.00    +0.057 A 
ATOM     11  C   UNL     1       0.209  -4.190   0.685  0.00  0.00    -0.019 A 
ATOM     12  C   UNL     1       0.979  -4.797   1.685  0.00  0.00    +0.027 A 
ATOM     13  C   UNL     1       1.359  -4.074   2.795  0.00  0.00    +0.064 A 
ATOM     14  C   UNL     1       0.985  -2.743   2.923  0.00  0.00    +0.176 A 
ATOM     15 BR   UNL     1       2.398  -4.896   4.145  0.00  0.00    -0.046 Br
BRANCH   9  16
ATOM     16  O   UNL     1      -0.155  -0.831   2.067  0.00  0.00    -0.489 OA
BRANCH  16  18
ATOM     17  C   UNL     1      -1.260   1.192   1.339  0.00  0.00    +0.048 C 
ATOM     18  C   UNL     1      -0.946  -0.270   1.016  0.00  0.00    +0.226 C 
ENDBRANCH  16  18
ENDBRANCH   9  16
BRANCH  14  19
ATOM     19  O   UNL     1       1.367  -2.034   4.017  0.00  0.00    -0.485 OA
BRANCH  19  20
ATOM     20  C   UNL     1       0.488  -2.057   5.144  0.00  0.00    +0.168 C 
ATOM     21  C   UNL     1       0.863  -3.226   6.058  0.00  0.00    +0.051 C 
ATOM     22  C   UNL     1       0.617  -0.743   5.918  0.00  0.00    +0.051 C 
ENDBRANCH  19  20
ENDBRANCH  14  19
ENDBRANCH   1  11
BRANCH   5  23
ATOM     23  C   UNL     1       0.629  -9.212  -2.913  0.00  0.00    +0.115 C 
BRANCH  23  24
ATOM     24  C   UNL     1       1.383  -8.874  -4.201  0.00  0.00    +0.019 C 
BRANCH  24  25
ATOM     25  C   UNL     1       1.103  -9.949  -5.253  0.00  0.00    +0.002 C 
BRANCH  25  26
ATOM     26  C   UNL     1       1.856  -9.611  -6.541  0.00  0.00    +0.011 C 
BRANCH  26  27
ATOM     27  C   UNL     1       1.577 -10.687  -7.593  0.00  0.00    +0.125 C 
BRANCH  27  28
ATOM     28  C   UNL     1       2.319 -10.354  -8.861  0.00  0.00    +0.356 C 
ATOM     29  O   UNL     1       3.007  -9.349  -8.919  0.00  0.00    -0.246 OA
ATOM     30  O   UNL     1       2.230 -11.089  -9.830  0.00  0.00    -0.246 OA
ENDBRANCH  27  28
ENDBRANCH  26  27
ENDBRANCH  25  26
ENDBRANCH  24  25
ENDBRANCH  23  24
ENDBRANCH   5  23
TORSDOF 11
