REMARK  Name = ZINC13499572
REMARK  11 active torsions:
REMARK  status: ('A' for Active; 'I' for Inactive)
REMARK    1  A    between atoms: C_1  and  C_2
REMARK    2  A    between atoms: C_2  and  C_3
REMARK    3  A    between atoms: C_3  and  C_4
REMARK    4  A    between atoms: C_4  and  C_6
REMARK    5  A    between atoms: C_4  and  N_72
REMARK    6  A    between atoms: N_10  and  C_11
REMARK    7  A    between atoms: C_16  and  C_17
REMARK    8  A    between atoms: C_16  and  N_72
REMARK    9  A    between atoms: C_20  and  C_30
REMARK   10  A    between atoms: C_22  and  C_29
REMARK   11  A    between atoms: C_31  and  N_72
REMARK                            x       y       z     vdW  Elec       q    Type
REMARK                         _______ _______ _______ _____ _____    ______ ____
ROOT
ATOM      1  N   UNL     1       5.242   4.651  -1.127  0.00  0.00    +0.391 N 
ATOM      2  H   UNL     1       5.109   3.849  -1.754  0.00  0.00    -0.080 HD
ENDROOT
BRANCH   1   3
ATOM      3  C   UNL     1       4.305   5.726  -1.518  0.00  0.00    -0.067 C 
ATOM      4  C   UNL     1       4.439   6.946  -0.583  0.00  0.00    -0.015 C 
ATOM      5  C   UNL     1       2.987   7.463  -0.425  0.00  0.00    -0.002 C 
ATOM      6  C   UNL     1       2.162   6.153  -0.367  0.00  0.00    -0.002 C 
ATOM      7  C   UNL     1       2.858   5.222  -1.381  0.00  0.00    -0.015 C 
ENDBRANCH   1   3
BRANCH   1   8
ATOM      8  C   UNL     1       6.636   5.128  -1.244  0.00  0.00    +0.003 C 
BRANCH   8   9
ATOM      9  C   UNL     1       6.733   6.118  -2.376  0.00  0.00    +0.138 A 
ATOM     10  N   UNL     1       6.221   5.988  -3.576  0.00  0.00    -0.115 NA
ATOM     11  N   UNL     1       6.518   7.044  -4.252  0.00  0.00    -0.023 NA
ATOM     12  N   UNL     1       7.213   7.840  -3.517  0.00  0.00    -0.044 NA
ATOM     13  N   UNL     1       7.367   7.305  -2.353  0.00  0.00    -0.228 N 
BRANCH  13  14
ATOM     14  C   UNL     1       8.095   7.881  -1.220  0.00  0.00    +0.111 C 
ATOM     15  C   UNL     1       7.495   9.252  -0.848  0.00  0.00    +0.027 C 
ATOM     16  C   UNL     1       8.724  10.108  -0.450  0.00  0.00    +0.002 C 
ATOM     17  C   UNL     1       9.804   9.649  -1.461  0.00  0.00    +0.002 C 
ATOM     18  C   UNL     1       9.562   8.132  -1.609  0.00  0.00    +0.027 C 
ENDBRANCH  13  14
ENDBRANCH   8   9
BRANCH   8  19
ATOM     19  C   UNL     1       7.538   3.928  -1.538  0.00  0.00    -0.008 C 
BRANCH  19  21
ATOM     20  C   UNL     1       8.140   1.607  -0.833  0.00  0.00    +0.004 C 
ATOM     21  C   UNL     1       7.212   2.794  -0.564  0.00  0.00    -0.005 C 
ENDBRANCH  19  21
ENDBRANCH   8  19
ENDBRANCH   1   8
BRANCH   1  22
ATOM     22  C   UNL     1       4.969   4.224   0.262  0.00  0.00    -0.036 C 
BRANCH  22  23
ATOM     23  C   UNL     1       5.356   5.310   1.233  0.00  0.00    +0.001 A 
ATOM     24  C   UNL     1       4.395   6.074   1.809  0.00  0.00    +0.017 A 
ATOM     25  C   UNL     1       4.804   7.120   2.749  0.00  0.00    +0.002 A 
ATOM     26  C   UNL     1       3.859   7.941   3.374  0.00  0.00    -0.041 A 
ATOM     27  C   UNL     1       4.273   8.908   4.246  0.00  0.00    +0.007 A 
ATOM     28  C   UNL     1       5.623   9.084   4.516  0.00  0.00    -0.048 A 
ATOM     29  C   UNL     1       6.571   8.287   3.913  0.00  0.00    +0.029 A 
ATOM     30  C   UNL     1       6.173   7.295   3.022  0.00  0.00    +0.050 A 
ATOM     31  N   UNL     1       7.101   6.484   2.402  0.00  0.00    -0.322 N 
ATOM     32  H   UNL     1       8.044   6.606   2.591  0.00  0.00    +0.169 HD
ATOM     33  C   UNL     1       6.716   5.527   1.541  0.00  0.00    +0.251 A 
ATOM     34  O   UNL     1       7.563   4.828   1.012  0.00  0.00    -0.268 OA
ATOM     35  C   UNL     1       6.056  10.158   5.481  0.00  0.00    +0.044 C 
ATOM     36  C   UNL     1       2.391   7.759   3.087  0.00  0.00    +0.044 C 
ENDBRANCH  22  23
ENDBRANCH   1  22
TORSDOF 8
