REMARK  Name = ZINC36347888
REMARK  6 active torsions:
REMARK  status: ('A' for Active; 'I' for Inactive)
REMARK    1  A    between atoms: C_4  and  O_7
REMARK    2  A    between atoms: O_7  and  C_8
REMARK    3  A    between atoms: C_12  and  C_14
REMARK    4  A    between atoms: N_24  and  C_25
REMARK    5  A    between atoms: C_25  and  C_26
REMARK    6  A    between atoms: C_29  and  N_32
REMARK                            x       y       z     vdW  Elec       q    Type
REMARK                         _______ _______ _______ _____ _____    ______ ____
ROOT
ATOM      1  C   UNL     1       6.243  -4.691   0.077  0.00  0.00    +0.011 C 
ATOM      2  C   UNL     1       6.520  -5.296   1.432  0.00  0.00    +0.009 A 
ATOM      3  C   UNL     1       6.037  -4.860   2.612  0.00  0.00    +0.021 A 
ATOM      4  C   UNL     1       6.556  -5.701   3.616  0.00  0.00    +0.019 A 
ATOM      5  C   UNL     1       7.334  -6.622   3.011  0.00  0.00    +0.086 A 
ATOM      6  N   UNL     1       7.309  -6.385   1.670  0.00  0.00    -0.352 N 
ATOM      7  C   UNL     1       7.996  -7.165   0.635  0.00  0.00    +0.119 C 
ATOM      8  C   UNL     1       8.691  -6.204  -0.333  0.00  0.00    +0.003 C 
ATOM      9  C   UNL     1       7.729  -5.809  -1.446  0.00  0.00    -0.075 C 
ATOM     10  N   UNL     1       6.353  -5.734  -0.952  0.00  0.00    +0.391 N 
ATOM     11  H   UNL     1       6.092  -6.624  -0.556  0.00  0.00    -0.080 HD
ENDROOT
BRANCH   1  16
ATOM     12  C   UNL     1       3.391  -2.225  -0.168  0.00  0.00    +0.129 A 
ATOM     13  C   UNL     1       2.295  -3.053   0.029  0.00  0.00    +0.046 A 
ATOM     14  C   UNL     1       2.481  -4.405   0.240  0.00  0.00    +0.004 A 
ATOM     15  C   UNL     1       3.759  -4.934   0.255  0.00  0.00    +0.002 A 
ATOM     16  C   UNL     1       4.853  -4.111   0.059  0.00  0.00    -0.052 A 
ATOM     17  C   UNL     1       4.671  -2.759  -0.158  0.00  0.00    +0.048 A 
BRANCH  12  18
ATOM     18  O   UNL     1       3.210  -0.894  -0.377  0.00  0.00    -0.456 OA
BRANCH  18  22
ATOM     19  C   UNL     1       2.401   1.486   2.894  0.00  0.00    +0.000 A 
ATOM     20  C   UNL     1       2.511   0.116   3.048  0.00  0.00    +0.004 A 
ATOM     21  C   UNL     1       2.781  -0.683   1.954  0.00  0.00    +0.046 A 
ATOM     22  C   UNL     1       2.943  -0.110   0.701  0.00  0.00    +0.128 A 
ATOM     23  C   UNL     1       2.833   1.265   0.550  0.00  0.00    +0.046 A 
ATOM     24  C   UNL     1       2.562   2.059   1.647  0.00  0.00    +0.004 A 
ENDBRANCH  18  22
ENDBRANCH  12  18
ENDBRANCH   1  16
BRANCH  10  25
ATOM     25  C   UNL     1       5.452  -5.415  -2.067  0.00  0.00    -0.042 C 
BRANCH  25  26
ATOM     26  C   UNL     1       5.473  -6.541  -3.068  0.00  0.00    -0.064 A 
ATOM     27  C   UNL     1       6.389  -6.529  -4.103  0.00  0.00    +0.004 A 
ATOM     28  C   UNL     1       6.409  -7.562  -5.021  0.00  0.00    +0.033 A 
ATOM     29  C   UNL     1       5.512  -8.607  -4.905  0.00  0.00    +0.126 A 
ATOM     30  C   UNL     1       4.596  -8.620  -3.870  0.00  0.00    +0.033 A 
ATOM     31  C   UNL     1       4.579  -7.589  -2.949  0.00  0.00    +0.004 A 
BRANCH  29  32
ATOM     32  N   UNL     1       5.532  -9.713  -5.889  0.00  0.00    +0.056 N 
ATOM     33  O   UNL     1       6.333  -9.702  -6.794  0.00  0.00    -0.126 OA
ATOM     34  O   UNL     1       4.748 -10.627  -5.787  0.00  0.00    -0.126 OA
ENDBRANCH  29  32
ENDBRANCH  25  26
ENDBRANCH  10  25
TORSDOF 6
