REMARK  Name = ZINC08686408
REMARK  8 active torsions:
REMARK  status: ('A' for Active; 'I' for Inactive)
REMARK    1  A    between atoms: C_1  and  N_2
REMARK    2  A    between atoms: N_5  and  C_38
REMARK    3  A    between atoms: C_6  and  C_32
REMARK    4  A    between atoms: C_7  and  C_26
REMARK    5  A    between atoms: C_13  and  C_14
REMARK    6  A    between atoms: C_17  and  N_20
REMARK    7  A    between atoms: N_20  and  C_21
REMARK    8  A    between atoms: N_20  and  C_22
REMARK                            x       y       z     vdW  Elec       q    Type
REMARK                         _______ _______ _______ _____ _____    ______ ____
ROOT
ATOM      1  C   UNL     1       1.546   1.014  -1.416  0.00  0.00    +0.136 C 
ATOM      2  N   UNL     1       1.469  -0.440  -1.257  0.00  0.00    -0.259 N 
ATOM      3  C   UNL     1       1.681  -1.354  -2.220  0.00  0.00    +0.308 C 
ATOM      4  O   UNL     1       2.122  -1.077  -3.318  0.00  0.00    -0.252 OA
ATOM      5  N   UNL     1       1.355  -2.607  -1.849  0.00  0.00    -0.257 N 
ATOM      6  C   UNL     1       0.677  -2.518  -0.547  0.00  0.00    +0.202 C 
ATOM      7  C   UNL     1       1.149  -1.168  -0.003  0.00  0.00    +0.189 C 
ATOM      8  N   UNL     1       2.349  -1.205   0.813  0.00  0.00    -0.248 N 
ATOM      9  N   UNL     1       2.499  -2.318   1.608  0.00  0.00    -0.203 N 
ATOM     10  C   UNL     1       3.284  -2.320   2.692  0.00  0.00    +0.284 A 
ATOM     11  O   UNL     1       3.882  -1.315   3.032  0.00  0.00    -0.265 OA
ATOM     12  C   UNL     1       3.405  -3.568   3.461  0.00  0.00    +0.082 A 
ATOM     13  C   UNL     1       4.133  -3.825   4.577  0.00  0.00    +0.028 C 
ATOM     14  S   UNL     1       2.334  -4.655   2.530  0.00  0.00    -0.045 S 
ATOM     15  C   UNL     1       1.825  -3.489   1.296  0.00  0.00    +0.192 A 
ATOM     16  N   UNL     1       1.000  -3.643   0.311  0.00  0.00    -0.224 NA
ATOM     17  C   UNL     1       1.628  -3.833  -2.604  0.00  0.00    +0.136 C 
ATOM     18  H   UNL     1       3.172  -1.047   0.252  0.00  0.00    +0.169 HD
ENDROOT
BRANCH  13  19
ATOM     19  C   UNL     1       4.234  -5.197   5.088  0.00  0.00    -0.024 A 
ATOM     20  C   UNL     1       4.656  -5.428   6.404  0.00  0.00    +0.010 A 
ATOM     21  C   UNL     1       4.749  -6.716   6.878  0.00  0.00    +0.023 A 
ATOM     22  C   UNL     1       4.424  -7.789   6.053  0.00  0.00    +0.029 A 
ATOM     23  C   UNL     1       4.004  -7.565   4.745  0.00  0.00    +0.023 A 
ATOM     24  C   UNL     1       3.902  -6.280   4.263  0.00  0.00    +0.010 A 
BRANCH  22  25
ATOM     25  N   UNL     1       4.521  -9.091   6.537  0.00  0.00    -0.336 N 
ATOM     26  C   UNL     1       4.963  -9.330   7.913  0.00  0.00    +0.129 C 
ATOM     27  C   UNL     1       4.180 -10.222   5.671  0.00  0.00    +0.129 C 
ENDBRANCH  22  25
ENDBRANCH  13  19
BRANCH   7  28
ATOM     28  C   UNL     1       0.027  -0.480   0.730  0.00  0.00    -0.000 A 
ATOM     29  C   UNL     1      -0.055  -0.567   2.108  0.00  0.00    +0.007 A 
ATOM     30  C   UNL     1      -1.085   0.064   2.780  0.00  0.00    +0.000 A 
ATOM     31  C   UNL     1      -2.033   0.782   2.076  0.00  0.00    +0.000 A 
ATOM     32  C   UNL     1      -1.950   0.871   0.699  0.00  0.00    +0.000 A 
ATOM     33  C   UNL     1      -0.918   0.243   0.026  0.00  0.00    +0.007 A 
ENDBRANCH   7  28
BRANCH   6  34
ATOM     34  C   UNL     1      -0.813  -2.468  -0.765  0.00  0.00    +0.002 A 
ATOM     35  C   UNL     1      -1.324  -1.934  -1.933  0.00  0.00    +0.008 A 
ATOM     36  C   UNL     1      -2.691  -1.888  -2.133  0.00  0.00    +0.000 A 
ATOM     37  C   UNL     1      -3.547  -2.376  -1.164  0.00  0.00    +0.000 A 
ATOM     38  C   UNL     1      -3.037  -2.911   0.004  0.00  0.00    +0.000 A 
ATOM     39  C   UNL     1      -1.670  -2.961   0.202  0.00  0.00    +0.008 A 
ENDBRANCH   6  34
TORSDOF 4
