REMARK  Name = ZINC06578829
REMARK  11 active torsions:
REMARK  status: ('A' for Active; 'I' for Inactive)
REMARK    1  A    between atoms: C_1  and  C_2
REMARK    2  A    between atoms: C_2  and  O_3
REMARK    3  A    between atoms: O_3  and  C_4
REMARK    4  A    between atoms: C_4  and  C_6
REMARK    5  A    between atoms: C_7  and  C_25
REMARK    6  A    between atoms: C_8  and  C_22
REMARK    7  A    between atoms: C_10  and  N_11
REMARK    8  A    between atoms: C_12  and  C_14
REMARK    9  A    between atoms: C_14  and  N_47
REMARK   10  A    between atoms: C_15  and  C_16
REMARK   11  A    between atoms: C_15  and  N_47
REMARK                            x       y       z     vdW  Elec       q    Type
REMARK                         _______ _______ _______ _____ _____    ______ ____
ROOT
ATOM      1  C   UNL     1      -0.017   1.383   0.010  0.00  0.00    +0.091 A 
ATOM      2  C   UNL     1       0.002  -0.004   0.002  0.00  0.00    -0.015 A 
ATOM      3  C   UNL     1       1.222  -0.623  -0.013  0.00  0.00    +0.079 A 
ATOM      4  S   UNL     1       2.359   0.750  -0.016  0.00  0.00    -0.068 S 
ATOM      5  C   UNL     1       1.213   2.050   0.002  0.00  0.00    +0.087 A 
ATOM      6  C   UNL     1      -1.277  -0.801   0.009  0.00  0.00    +0.046 C 
ENDROOT
BRANCH   3   7
ATOM      7  C   UNL     1       1.520  -2.057  -0.023  0.00  0.00    +0.248 C 
ATOM      8  O   UNL     1       0.612  -2.867  -0.018  0.00  0.00    -0.270 OA
ATOM      9  N   UNL     1       2.800  -2.479  -0.038  0.00  0.00    -0.325 N 
ATOM     10  H   UNL     1       3.524  -1.833  -0.041  0.00  0.00    +0.145 HD
ATOM     11  H   UNL     1       2.997  -3.429  -0.044  0.00  0.00    +0.145 HD
ENDBRANCH   3   7
BRANCH   5  12
ATOM     12  N   UNL     1       1.454   3.410   0.006  0.00  0.00    -0.281 N 
ATOM     13  C   UNL     1       2.720   3.870  -0.004  0.00  0.00    +0.201 C 
ATOM     14  O   UNL     1       3.649   3.090  -0.016  0.00  0.00    -0.278 OA
ATOM     15  H   UNL     1       0.711   4.034   0.015  0.00  0.00    +0.155 HD
BRANCH  13  16
ATOM     16  C   UNL     1       2.983   5.354   0.001  0.00  0.00    +0.015 C 
BRANCH  16  17
ATOM     17  N   UNL     1       4.440   5.587  -0.012  0.00  0.00    +0.386 N 
ATOM     18  H   UNL     1       4.843   5.164  -0.856  0.00  0.00    -0.085 HD
ATOM     19  H   UNL     1       4.859   5.156   0.821  0.00  0.00    -0.085 HD
BRANCH  17  20
ATOM     20  C   UNL     1       4.727   7.034  -0.007  0.00  0.00    -0.050 C 
BRANCH  20  21
ATOM     21  C   UNL     1       6.243   7.244  -0.020  0.00  0.00    +0.101 C 
ATOM     22  C   UNL     1       6.579   8.746   0.110  0.00  0.00    +0.032 C 
ATOM     23  C   UNL     1       7.806   8.937  -0.809  0.00  0.00    +0.030 C 
ATOM     24  C   UNL     1       8.067   7.528  -1.385  0.00  0.00    +0.160 C 
ATOM     25  O   UNL     1       6.794   6.852  -1.296  0.00  0.00    -0.378 OA
ENDBRANCH  20  21
ENDBRANCH  17  20
ENDBRANCH  16  17
ENDBRANCH  13  16
ENDBRANCH   5  12
BRANCH   1  26
ATOM     26  C   UNL     1      -1.283   2.124   0.020  0.00  0.00    +0.342 C 
ATOM     27  O   UNL     1      -1.802   2.426   1.077  0.00  0.00    -0.245 OA
BRANCH  26  28
ATOM     28  O   UNL     1      -1.870   2.471  -1.143  0.00  0.00    -0.461 OA
BRANCH  28  30
ATOM     29  C   UNL     1      -3.632   3.507  -2.467  0.00  0.00    +0.048 C 
ATOM     30  C   UNL     1      -3.121   3.204  -1.057  0.00  0.00    +0.229 C 
ENDBRANCH  28  30
ENDBRANCH  26  28
ENDBRANCH   1  26
TORSDOF 9
