REMARK  Name = ZINC16010085
REMARK  4 active torsions:
REMARK  status: ('A' for Active; 'I' for Inactive)
REMARK    1  A    between atoms: C_6  and  N_11
REMARK    2  A    between atoms: C_16  and  C_34
REMARK    3  A    between atoms: C_34  and  C_35
REMARK    4  A    between atoms: C_38  and  O_41
REMARK                            x       y       z     vdW  Elec       q    Type
REMARK                         _______ _______ _______ _____ _____    ______ ____
ROOT
ATOM      1  N   UNL     1       4.915  -2.655  -0.058  0.00  0.00    -0.210 N 
ATOM      2  C   UNL     1       6.088  -2.020  -0.158  0.00  0.00    +0.232 C 
ATOM      3  O   UNL     1       6.229  -0.819  -0.245  0.00  0.00    -0.274 OA
ATOM      4  C   UNL     1       7.211  -3.033  -0.147  0.00  0.00    +0.108 C 
ATOM      5  C   UNL     1       7.877  -3.063  -1.540  0.00  0.00    +0.072 C 
ATOM      6  N   UNL     1       8.014  -4.508  -1.865  0.00  0.00    -0.295 NA
ATOM      7  C   UNL     1       6.773  -5.114  -1.350  0.00  0.00    +0.136 C 
ATOM      8  C   UNL     1       6.466  -4.391  -0.015  0.00  0.00    +0.123 C 
ATOM      9  C   UNL     1       5.010  -3.986   0.033  0.00  0.00    +0.233 C 
ATOM     10  O   UNL     1       4.074  -4.750   0.135  0.00  0.00    -0.274 OA
ATOM     11  C   UNL     1       6.928  -6.594  -1.145  0.00  0.00    +0.006 A 
ATOM     12  C   UNL     1       7.776  -7.361  -0.376  0.00  0.00    +0.046 A 
ATOM     13  C   UNL     1       7.674  -8.742  -0.400  0.00  0.00    +0.124 A 
ATOM     14  C   UNL     1       6.718  -9.348  -1.198  0.00  0.00    +0.040 A 
ATOM     15  C   UNL     1       5.867  -8.583  -1.967  0.00  0.00    +0.026 A 
ATOM     16  C   UNL     1       5.963  -7.193  -1.949  0.00  0.00    +0.039 A 
ATOM     17  N   UNL     1       5.229  -6.218  -2.630  0.00  0.00    -0.283 N 
ATOM     18  C   UNL     1       5.643  -4.971  -2.332  0.00  0.00    +0.243 C 
ATOM     19  O   UNL     1       5.191  -3.934  -2.771  0.00  0.00    -0.273 OA
ATOM     20  F   UNL     1       8.505  -9.496   0.353  0.00  0.00    -0.205 F 
ATOM     21  H   UNL     1       8.099  -4.648  -2.861  0.00  0.00    +0.124 HD
ATOM     22  H   UNL     1       4.505  -6.416  -3.244  0.00  0.00    +0.155 HD
ENDROOT
BRANCH   1  28
ATOM     23  C   UNL     1      -0.723   0.046   1.098  0.00  0.00    +0.001 A 
ATOM     24  C   UNL     1      -0.289  -0.614   2.247  0.00  0.00    +0.001 A 
ATOM     25  C   UNL     1       0.898  -1.279   2.267  0.00  0.00    +0.008 A 
ATOM     26  C   UNL     1       1.701  -1.302   1.113  0.00  0.00    -0.016 A 
ATOM     27  C   UNL     1       2.932  -1.978   1.097  0.00  0.00    +0.032 A 
ATOM     28  C   UNL     1       3.687  -1.980  -0.043  0.00  0.00    +0.044 A 
ATOM     29  C   UNL     1       3.249  -1.317  -1.194  0.00  0.00    +0.024 A 
ATOM     30  C   UNL     1       2.062  -0.653  -1.210  0.00  0.00    +0.010 A 
ATOM     31  C   UNL     1       1.260  -0.631  -0.055  0.00  0.00    -0.018 A 
ATOM     32  C   UNL     1       0.028   0.045  -0.037  0.00  0.00    +0.008 A 
ENDBRANCH   1  28
BRANCH   5  33
ATOM     33  C   UNL     1       9.252  -2.394  -1.487  0.00  0.00    +0.054 C 
BRANCH  33  34
ATOM     34  C   UNL     1       9.831  -2.325  -2.876  0.00  0.00    -0.046 A 
ATOM     35  C   UNL     1      10.606  -3.366  -3.354  0.00  0.00    +0.007 A 
ATOM     36  C   UNL     1      11.138  -3.305  -4.627  0.00  0.00    +0.045 A 
ATOM     37  C   UNL     1      10.895  -2.199  -5.427  0.00  0.00    +0.117 A 
ATOM     38  C   UNL     1      10.116  -1.156  -4.946  0.00  0.00    +0.045 A 
ATOM     39  C   UNL     1       9.582  -1.224  -3.674  0.00  0.00    +0.007 A 
BRANCH  37  40
ATOM     40  O   UNL     1      11.417  -2.136  -6.680  0.00  0.00    -0.507 OA
ATOM     41  H   UNL     1      10.845  -2.510  -7.364  0.00  0.00    +0.292 HD
ENDBRANCH  37  40
ENDBRANCH  33  34
ENDBRANCH   5  33
TORSDOF 4
