REMARK  Name = ZINC39652657
REMARK  9 active torsions:
REMARK  status: ('A' for Active; 'I' for Inactive)
REMARK    1  A    between atoms: C_1  and  C_2
REMARK    2  A    between atoms: C_2  and  O_3
REMARK    3  A    between atoms: O_3  and  C_4
REMARK    4  A    between atoms: C_9  and  C_10
REMARK    5  A    between atoms: C_10  and  C_11
REMARK    6  A    between atoms: C_11  and  N_12
REMARK    7  A    between atoms: C_13  and  C_15
REMARK    8  A    between atoms: C_26  and  C_28
REMARK    9  A    between atoms: C_31  and  C_35
REMARK                            x       y       z     vdW  Elec       q    Type
REMARK                         _______ _______ _______ _____ _____    ______ ____
ROOT
ATOM      1  C   UNL     1       5.805   1.732  -5.539  0.00  0.00    +0.100 C 
ATOM      2  C   UNL     1       4.767   2.867  -5.396  0.00  0.00    +0.121 C 
ATOM      3  N   UNL     1       5.391   3.828  -4.455  0.00  0.00    -0.296 N 
ATOM      4  C   UNL     1       6.822   3.848  -4.843  0.00  0.00    +0.115 C 
ATOM      5  C   UNL     1       7.152   2.380  -5.178  0.00  0.00    -0.004 C 
ATOM      6  C   UNL     1       8.106   2.312  -6.367  0.00  0.00    -0.010 C 
ATOM      7  C   UNL     1       9.458   2.910  -5.967  0.00  0.00    -0.082 C 
ATOM      8  N   UNL     1      10.008   2.163  -4.829  0.00  0.00    +0.379 N 
ATOM      9  C   UNL     1       9.130   2.311  -3.662  0.00  0.00    -0.082 C 
ATOM     10  C   UNL     1       7.765   1.687  -3.965  0.00  0.00    -0.010 C 
ATOM     11  C   UNL     1       4.792   4.526  -3.470  0.00  0.00    +0.247 C 
ATOM     12  O   UNL     1       3.629   4.308  -3.191  0.00  0.00    -0.270 OA
ATOM     13  H   UNL     1      10.079   1.186  -5.073  0.00  0.00    -0.086 HD
ATOM     14  H   UNL     1      10.925   2.519  -4.606  0.00  0.00    -0.086 HD
ENDROOT
BRANCH  11  15
ATOM     15  C   UNL     1       5.549   5.557  -2.729  0.00  0.00    +0.040 A 
ATOM     16  C   UNL     1       6.697   6.122  -3.290  0.00  0.00    +0.014 A 
ATOM     17  C   UNL     1       7.399   7.084  -2.594  0.00  0.00    +0.016 A 
ATOM     18  C   UNL     1       6.970   7.491  -1.344  0.00  0.00    +0.090 A 
ATOM     19  C   UNL     1       5.833   6.935  -0.781  0.00  0.00    +0.136 A 
ATOM     20  C   UNL     1       5.117   5.974  -1.470  0.00  0.00    +0.052 A 
ATOM     21  F   UNL     1       5.420   7.336   0.441  0.00  0.00    -0.205 F 
BRANCH  18  22
ATOM     22  C   UNL     1       7.744   8.542  -0.590  0.00  0.00    +0.420 C 
ATOM     23  F   UNL     1       8.843   8.949  -1.354  0.00  0.00    -0.166 F 
ATOM     24  F   UNL     1       6.915   9.642  -0.343  0.00  0.00    -0.166 F 
ATOM     25  F   UNL     1       8.190   8.012   0.625  0.00  0.00    -0.166 F 
ENDBRANCH  18  22
ENDBRANCH  11  15
BRANCH   1  27
ATOM     26  N   UNL     1       5.932  -0.638  -4.838  0.00  0.00    -0.315 N 
ATOM     27  C   UNL     1       5.490   0.610  -4.582  0.00  0.00    +0.218 C 
ATOM     28  O   UNL     1       4.840   0.830  -3.583  0.00  0.00    -0.275 OA
ATOM     29  H   UNL     1       6.452  -0.814  -5.638  0.00  0.00    +0.149 HD
BRANCH  26  30
ATOM     30  C   UNL     1       5.626  -1.728  -3.909  0.00  0.00    +0.109 C 
BRANCH  30  31
ATOM     31  C   UNL     1       6.238  -3.029  -4.430  0.00  0.00    +0.057 C 
BRANCH  31  37
ATOM     32  C   UNL     1       4.720  -4.833  -3.576  0.00  0.00    +0.124 A 
ATOM     33  C   UNL     1       4.435  -5.868  -2.697  0.00  0.00    +0.046 A 
ATOM     34  C   UNL     1       5.348  -6.214  -1.720  0.00  0.00    +0.004 A 
ATOM     35  C   UNL     1       6.545  -5.530  -1.618  0.00  0.00    +0.000 A 
ATOM     36  C   UNL     1       6.831  -4.497  -2.492  0.00  0.00    +0.007 A 
ATOM     37  C   UNL     1       5.923  -4.151  -3.474  0.00  0.00    -0.004 A 
BRANCH  32  38
ATOM     38  O   UNL     1       3.823  -4.490  -4.538  0.00  0.00    -0.492 OA
BRANCH  38  40
ATOM     39  C   UNL     1       1.728  -4.711  -5.723  0.00  0.00    +0.048 C 
ATOM     40  C   UNL     1       2.604  -5.236  -4.583  0.00  0.00    +0.225 C 
ENDBRANCH  38  40
ENDBRANCH  32  38
ENDBRANCH  31  37
ENDBRANCH  30  31
ENDBRANCH  26  30
ENDBRANCH   1  27
TORSDOF 8
