REMARK  Name = ZINC39334760
REMARK  6 active torsions:
REMARK  status: ('A' for Active; 'I' for Inactive)
REMARK    1  A    between atoms: C_1  and  C_2
REMARK    2  A    between atoms: C_2  and  C_3
REMARK    3  A    between atoms: C_5  and  C_17
REMARK    4  A    between atoms: C_7  and  C_15
REMARK    5  A    between atoms: C_8  and  N_14
REMARK    6  A    between atoms: C_20  and  C_22
REMARK                            x       y       z     vdW  Elec       q    Type
REMARK                         _______ _______ _______ _____ _____    ______ ____
ROOT
ATOM      1  C   UNL     1       0.731  -0.503   1.223  0.00  0.00    +0.069 C 
ATOM      2  C   UNL     1       0.155  -0.860   2.345  0.00  0.00    +0.033 C 
ATOM      3  C   UNL     1      -1.258  -0.786   2.855  0.00  0.00    +0.133 C 
ATOM      4  C   UNL     1      -1.147  -0.329   4.298  0.00  0.00    +0.100 C 
ATOM      5  C   UNL     1       0.044  -0.249   4.927  0.00  0.00    +0.195 C 
ATOM      6  O   UNL     1       1.252  -0.517   4.398  0.00  0.00    -0.448 OA
ATOM      7  C   UNL     1       1.294  -1.354   3.238  0.00  0.00    +0.343 C 
ATOM      8  N   UNL     1       2.471  -1.087   2.405  0.00  0.00    -0.138 NA
ATOM      9  N   UNL     1       2.077  -0.653   1.316  0.00  0.00    -0.155 NA
ENDROOT
BRANCH   3  10
ATOM     10  C   UNL     1      -1.910  -2.143   2.784  0.00  0.00    +0.118 A 
ATOM     11  C   UNL     1      -3.011  -2.450   2.075  0.00  0.00    +0.046 A 
ATOM     12  C   UNL     1      -3.269  -3.823   2.295  0.00  0.00    +0.044 A 
ATOM     13  C   UNL     1      -2.310  -4.272   3.124  0.00  0.00    +0.102 A 
ATOM     14  O   UNL     1      -1.486  -3.251   3.413  0.00  0.00    -0.464 OA
ATOM     15  C   UNL     1      -2.179  -5.683   3.638  0.00  0.00    +0.086 C 
ENDBRANCH   3  10
BRANCH   5  16
ATOM     16  N   UNL     1       0.022   0.147   6.240  0.00  0.00    -0.329 N 
ATOM     17  H   UNL     1      -0.823   0.353   6.670  0.00  0.00    +0.145 HD
ATOM     18  H   UNL     1       0.851   0.221   6.739  0.00  0.00    +0.145 HD
ENDBRANCH   5  16
BRANCH   1  20
ATOM     19  C   UNL     1      -0.019   1.526   0.010  0.00  0.00    +0.010 C 
ATOM     20  C   UNL     1       0.002  -0.004   0.002  0.00  0.00    +0.054 C 
ENDBRANCH   1  20
BRANCH   4  21
ATOM     21  C   UNL     1      -2.337   0.027   5.011  0.00  0.00    +0.101 C 
ATOM     22  N   UNL     1      -3.281   0.309   5.576  0.00  0.00    -0.191 NA
ENDBRANCH   4  21
TORSDOF 4
