REMARK  Name = ZINC18889132
REMARK  6 active torsions:
REMARK  status: ('A' for Active; 'I' for Inactive)
REMARK    1  A    between atoms: C_1  and  O_2
REMARK    2  A    between atoms: O_2  and  C_3
REMARK    3  A    between atoms: C_5  and  C_11
REMARK    4  A    between atoms: C_8  and  O_9
REMARK    5  A    between atoms: N_12  and  N_13
REMARK    6  A    between atoms: N_13  and  C_14
REMARK                            x       y       z     vdW  Elec       q    Type
REMARK                         _______ _______ _______ _____ _____    ______ ____
ROOT
ATOM      1  C   UNL     1      -4.855   0.227   0.038  0.00  0.00    +0.138 C 
ATOM      2  N   UNL     1      -6.002  -0.383   0.046  0.00  0.00    -0.190 NA
ENDROOT
BRANCH   1   5
ATOM      3  C   UNL     1      -1.201  -0.638   0.010  0.00  0.00    +0.163 A 
ATOM      4  C   UNL     1      -2.371   0.100   0.019  0.00  0.00    +0.059 A 
ATOM      5  C   UNL     1      -3.605  -0.555   0.028  0.00  0.00    -0.001 A 
ATOM      6  C   UNL     1      -3.652  -1.951   0.026  0.00  0.00    +0.028 A 
ATOM      7  C   UNL     1      -2.481  -2.680   0.017  0.00  0.00    +0.063 A 
ATOM      8  C   UNL     1      -1.255  -2.030   0.003  0.00  0.00    +0.173 A 
ATOM      9 BR   UNL     1      -2.546  -4.570   0.015  0.00  0.00    -0.046 Br
BRANCH   3  11
ATOM     10  C   UNL     1      -0.017   1.425   0.010  0.00  0.00    +0.277 C 
ATOM     11  O   UNL     1       0.002  -0.004   0.002  0.00  0.00    -0.491 OA
ENDBRANCH   3  11
BRANCH   8  12
ATOM     12  O   UNL     1      -0.103  -2.753  -0.012  0.00  0.00    -0.503 OA
ATOM     13  H   UNL     1       0.238  -2.967   0.867  0.00  0.00    +0.292 HD
ENDBRANCH   8  12
ENDBRANCH   1   5
BRANCH   2  14
ATOM     14  N   UNL     1      -7.190   0.360   0.056  0.00  0.00    -0.235 N 
ATOM     15  H   UNL     1      -7.156   1.329   0.057  0.00  0.00    +0.174 HD
BRANCH  14  16
ATOM     16  C   UNL     1      -8.412  -0.290   0.064  0.00  0.00    +0.092 A 
ATOM     17  C   UNL     1      -9.613   0.452   0.069  0.00  0.00    +0.159 A 
ATOM     18  N   UNL     1     -10.764  -0.158   0.076  0.00  0.00    -0.177 NA
ATOM     19  N   UNL     1     -10.841  -1.554   0.080  0.00  0.00    -0.242 N 
ATOM     20  H   UNL     1     -11.709  -1.988   0.086  0.00  0.00    +0.192 HD
ATOM     21  C   UNL     1      -9.721  -2.303   0.075  0.00  0.00    +0.285 A 
ATOM     22  O   UNL     1      -9.796  -3.522   0.078  0.00  0.00    -0.265 OA
ATOM     23  C   UNL     1      -8.468  -1.673   0.063  0.00  0.00    +0.130 A 
ATOM     24 CL   UNL     1      -7.009  -2.614   0.051  0.00  0.00    -0.076 Cl
ENDBRANCH  14  16
ENDBRANCH   2  14
TORSDOF 5
