REMARK  Name = ZINC20830741
REMARK  7 active torsions:
REMARK  status: ('A' for Active; 'I' for Inactive)
REMARK    1  A    between atoms: C_4  and  N_7
REMARK    2  A    between atoms: C_8  and  C_28
REMARK    3  A    between atoms: C_11  and  S_12
REMARK    4  A    between atoms: S_12  and  C_13
REMARK    5  A    between atoms: C_13  and  C_14
REMARK    6  A    between atoms: N_16  and  C_17
REMARK    7  A    between atoms: C_32  and  N_34
REMARK                            x       y       z     vdW  Elec       q    Type
REMARK                         _______ _______ _______ _____ _____    ______ ____
ROOT
ATOM      1  N   UNL     1       0.990   6.155   0.315  0.00  0.00    -0.270 N 
ATOM      2  C   UNL     1      -0.070   5.323   0.030  0.00  0.00    +0.169 A 
ATOM      3  N   UNL     1      -1.103   6.091  -0.229  0.00  0.00    -0.128 NA
ATOM      4  N   UNL     1      -0.767   7.327  -0.133  0.00  0.00    -0.122 NA
ATOM      5  C   UNL     1       0.502   7.427   0.194  0.00  0.00    +0.197 A 
ENDROOT
BRANCH   1   9
ATOM      6  C   UNL     1       4.875   5.031   1.326  0.00  0.00    +0.000 A 
ATOM      7  C   UNL     1       4.639   5.714   0.147  0.00  0.00    +0.002 A 
ATOM      8  C   UNL     1       3.353   6.088  -0.191  0.00  0.00    +0.026 A 
ATOM      9  C   UNL     1       2.297   5.777   0.655  0.00  0.00    +0.051 A 
ATOM     10  C   UNL     1       2.538   5.097   1.841  0.00  0.00    +0.026 A 
ATOM     11  C   UNL     1       3.825   4.721   2.171  0.00  0.00    +0.002 A 
ENDBRANCH   1   9
BRANCH   2  12
ATOM     12  C   UNL     1      -0.050   3.845   0.023  0.00  0.00    +0.022 A 
ATOM     13  C   UNL     1       1.167   3.160   0.007  0.00  0.00    +0.012 A 
ATOM     14  C   UNL     1       1.178   1.781   0.000  0.00  0.00    +0.003 A 
ATOM     15  C   UNL     1      -0.013   1.076   0.008  0.00  0.00    +0.033 A 
ATOM     16  C   UNL     1      -1.222   1.748   0.017  0.00  0.00    +0.127 A 
ATOM     17  C   UNL     1      -1.247   3.127   0.031  0.00  0.00    +0.044 A 
BRANCH  16  18
ATOM     18  N   UNL     1      -2.490   0.986   0.019  0.00  0.00    +0.056 N 
ATOM     19  O   UNL     1      -2.469  -0.232   0.012  0.00  0.00    -0.126 OA
ATOM     20  O   UNL     1      -3.556   1.576   0.027  0.00  0.00    -0.126 OA
ENDBRANCH  16  18
ENDBRANCH   2  12
BRANCH   5  21
ATOM     21  S   UNL     1       1.404   8.921   0.438  0.00  0.00    -0.076 S 
BRANCH  21  22
ATOM     22  C   UNL     1       0.099  10.133   0.114  0.00  0.00    +0.173 C 
BRANCH  22  23
ATOM     23  C   UNL     1       0.656  11.524   0.269  0.00  0.00    +0.224 C 
ATOM     24  O   UNL     1       1.821  11.681   0.569  0.00  0.00    -0.275 OA
ATOM     25  N   UNL     1      -0.140  12.594   0.074  0.00  0.00    -0.308 N 
ATOM     26  H   UNL     1      -1.196  12.452  -0.198  0.00  0.00    +0.149 HD
BRANCH  25  27
ATOM     27  C   UNL     1       0.402  13.947   0.224  0.00  0.00    +0.103 C 
ATOM     28  C   UNL     1      -0.413  14.914  -0.632  0.00  0.00    +0.027 C 
ATOM     29  C   UNL     1       0.025  16.345  -0.296  0.00  0.00    +0.007 C 
ATOM     30  C   UNL     1      -0.459  16.678   1.114  0.00  0.00    +0.035 C 
ATOM     31  C   UNL     1      -0.044  15.603   2.084  0.00  0.00    -0.042 A 
ATOM     32  C   UNL     1       0.345  14.347   1.676  0.00  0.00    -0.024 A 
ATOM     33  C   UNL     1       0.703  13.396   2.623  0.00  0.00    +0.006 A 
ATOM     34  C   UNL     1       0.676  13.702   3.968  0.00  0.00    +0.000 A 
ATOM     35  C   UNL     1       0.291  14.965   4.377  0.00  0.00    +0.000 A 
ATOM     36  C   UNL     1      -0.067  15.910   3.438  0.00  0.00    +0.004 A 
ENDBRANCH  25  27
ENDBRANCH  22  23
ENDBRANCH  21  22
ENDBRANCH   5  21
TORSDOF 7
