REMARK  Name = ZINC42014812
REMARK  5 active torsions:
REMARK  status: ('A' for Active; 'I' for Inactive)
REMARK    1  A    between atoms: C_1  and  C_2
REMARK    2  A    between atoms: C_5  and  C_21
REMARK    3  A    between atoms: C_6  and  N_8
REMARK    4  A    between atoms: C_9  and  C_13
REMARK    5  A    between atoms: C_18  and  N_19
REMARK                            x       y       z     vdW  Elec       q    Type
REMARK                         _______ _______ _______ _____ _____    ______ ____
ROOT
ATOM      1  N   UNL     1       0.940  -2.927   2.729  0.00  0.00    -0.192 N 
ATOM      2  C   UNL     1       0.147  -2.443   3.728  0.00  0.00    +0.189 A 
ATOM      3  N   UNL     1      -0.499  -3.472   4.237  0.00  0.00    -0.108 NA
ATOM      4  N   UNL     1      -0.169  -4.555   3.630  0.00  0.00    -0.022 NA
ATOM      5  N   UNL     1       0.691  -4.311   2.702  0.00  0.00    -0.039 NA
ENDROOT
BRANCH   1  11
ATOM      6  C   UNL     1       4.257   0.665   2.191  0.00  0.00    +0.044 C 
ATOM      7  C   UNL     1       3.428  -0.456   1.617  0.00  0.00    -0.048 A 
ATOM      8  C   UNL     1       3.526  -0.768   0.273  0.00  0.00    +0.004 A 
ATOM      9  C   UNL     1       2.767  -1.796  -0.258  0.00  0.00    +0.006 A 
ATOM     10  C   UNL     1       1.909  -2.513   0.554  0.00  0.00    -0.025 A 
ATOM     11  C   UNL     1       1.810  -2.201   1.903  0.00  0.00    +0.073 A 
ATOM     12  C   UNL     1       2.576  -1.172   2.434  0.00  0.00    +0.031 A 
ATOM     13  C   UNL     1       1.083  -3.632  -0.025  0.00  0.00    +0.046 C 
ENDBRANCH   1  11
BRANCH   2  14
ATOM     14  C   UNL     1       0.036  -1.033   4.159  0.00  0.00    +0.043 A 
ATOM     15  C   UNL     1       0.002  -0.011   3.210  0.00  0.00    +0.033 A 
ATOM     16  C   UNL     1      -0.103   1.304   3.618  0.00  0.00    +0.042 A 
ATOM     17  C   UNL     1      -0.175   1.613   4.967  0.00  0.00    +0.022 A 
ATOM     18  C   UNL     1      -0.142   0.610   5.916  0.00  0.00    +0.025 A 
ATOM     19  C   UNL     1      -0.043  -0.717   5.522  0.00  0.00    +0.036 A 
ATOM     20 CL   UNL     1      -0.144   2.575   2.436  0.00  0.00    -0.084 Cl
BRANCH  19  21
ATOM     21  N   UNL     1      -0.015  -1.730   6.478  0.00  0.00    -0.357 N 
ATOM     22  H   UNL     1       0.058  -2.657   6.201  0.00  0.00    +0.142 HD
ATOM     23  H   UNL     1      -0.070  -1.509   7.421  0.00  0.00    +0.142 HD
ENDBRANCH  19  21
ENDBRANCH   2  14
TORSDOF 3
