REMARK  Name = ZINC13024735
REMARK  11 active torsions:
REMARK  status: ('A' for Active; 'I' for Inactive)
REMARK    1  A    between atoms: C_1  and  C_2
REMARK    2  A    between atoms: C_2  and  C_3
REMARK    3  A    between atoms: C_3  and  C_4
REMARK    4  A    between atoms: C_3  and  C_5
REMARK    5  A    between atoms: C_3  and  N_6
REMARK    6  A    between atoms: C_7  and  C_9
REMARK    7  A    between atoms: C_9  and  C_11
REMARK    8  A    between atoms: C_9  and  N_18
REMARK    9  A    between atoms: N_18  and  C_19
REMARK   10  A    between atoms: C_28  and  C_30
REMARK   11  A    between atoms: C_30  and  N_31
REMARK                            x       y       z     vdW  Elec       q    Type
REMARK                         _______ _______ _______ _____ _____    ______ ____
ROOT
ATOM      1  N   UNL     1      -1.157   3.188   0.969  0.00  0.00    -0.254 N 
ATOM      2  C   UNL     1      -1.786   3.003   2.146  0.00  0.00    +0.242 C 
ATOM      3  O   UNL     1      -2.655   2.163   2.244  0.00  0.00    -0.273 OA
ENDROOT
BRANCH   1   4
ATOM      4  C   UNL     1      -0.226   4.225   0.827  0.00  0.00    +0.041 A 
ATOM      5  C   UNL     1      -0.648   5.547   0.870  0.00  0.00    +0.027 A 
ATOM      6  C   UNL     1       0.268   6.572   0.731  0.00  0.00    +0.051 A 
ATOM      7  C   UNL     1       1.611   6.283   0.547  0.00  0.00    +0.166 A 
ATOM      8  C   UNL     1       2.037   4.958   0.503  0.00  0.00    +0.168 A 
ATOM      9  C   UNL     1       1.119   3.932   0.649  0.00  0.00    +0.073 A 
ATOM     10  O   UNL     1       3.389   4.941   0.315  0.00  0.00    -0.453 OA
ATOM     11  C   UNL     1       3.842   6.265   0.653  0.00  0.00    +0.466 C 
ATOM     12  O   UNL     1       2.697   7.096   0.387  0.00  0.00    -0.453 OA
ENDBRANCH   1   4
BRANCH   1  13
ATOM     13  C   UNL     1      -1.446   2.303  -0.163  0.00  0.00    +0.197 C 
BRANCH  13  14
ATOM     14  C   UNL     1      -0.499   2.610  -1.295  0.00  0.00    -0.018 A 
ATOM     15  C   UNL     1      -0.442   3.887  -1.820  0.00  0.00    +0.009 A 
ATOM     16  C   UNL     1       0.422   4.168  -2.862  0.00  0.00    +0.038 A 
ATOM     17  C   UNL     1       1.230   3.170  -3.379  0.00  0.00    +0.123 A 
ATOM     18  C   UNL     1       1.172   1.891  -2.852  0.00  0.00    +0.038 A 
ATOM     19  C   UNL     1       0.308   1.612  -1.810  0.00  0.00    +0.009 A 
ATOM     20  F   UNL     1       2.075   3.443  -4.397  0.00  0.00    -0.205 F 
ENDBRANCH  13  14
BRANCH  13  22
ATOM     21  N   UNL     1      -3.354   1.811  -1.657  0.00  0.00    -0.308 N 
ATOM     22  C   UNL     1      -2.864   2.521  -0.622  0.00  0.00    +0.239 C 
ATOM     23  O   UNL     1      -3.565   3.335  -0.059  0.00  0.00    -0.273 OA
ATOM     24  H   UNL     1      -2.794   1.160  -2.107  0.00  0.00    +0.149 HD
BRANCH  21  25
ATOM     25  C   UNL     1      -4.734   2.023  -2.103  0.00  0.00    +0.029 C 
ATOM     26  C   UNL     1      -5.695   1.712  -0.954  0.00  0.00    +0.031 C 
ATOM     27  C   UNL     1      -4.911   3.480  -2.537  0.00  0.00    +0.031 C 
BRANCH  25  29
ATOM     28  C   UNL     1      -6.476   1.321  -3.751  0.00  0.00    +0.006 C 
ATOM     29  C   UNL     1      -5.035   1.099  -3.285  0.00  0.00    +0.022 C 
ENDBRANCH  25  29
ENDBRANCH  21  25
ENDBRANCH  13  22
ENDBRANCH   1  13
BRANCH   2  30
ATOM     30  C   UNL     1      -1.411   3.841   3.341  0.00  0.00    +0.242 C 
BRANCH  30  31
ATOM     31  N   UNL     1      -2.136   3.364   4.520  0.00  0.00    -0.235 N 
ATOM     32  C   UNL     1      -1.719   2.402   5.409  0.00  0.00    +0.090 A 
ATOM     33  C   UNL     1      -0.580   1.610   5.513  0.00  0.00    +0.029 A 
ATOM     34  C   UNL     1      -0.462   0.723   6.545  0.00  0.00    +0.002 A 
ATOM     35  C   UNL     1      -1.469   0.603   7.493  0.00  0.00    +0.002 A 
ATOM     36  C   UNL     1      -2.596   1.367   7.414  0.00  0.00    +0.032 A 
ATOM     37  C   UNL     1      -2.743   2.285   6.366  0.00  0.00    +0.113 A 
ATOM     38  N   UNL     1      -3.716   3.156   6.032  0.00  0.00    -0.129 NA
ATOM     39  N   UNL     1      -3.392   3.802   4.968  0.00  0.00    -0.064 NA
ENDBRANCH  30  31
ENDBRANCH   2  30
TORSDOF 8
