REMARK  Name = ZINC18195786
REMARK  4 active torsions:
REMARK  status: ('A' for Active; 'I' for Inactive)
REMARK    1  A    between atoms: C_4  and  C_7
REMARK    2  A    between atoms: C_7  and  C_9
REMARK    3  A    between atoms: C_7  and  O_23
REMARK    4  A    between atoms: N_13  and  C_16
REMARK                            x       y       z     vdW  Elec       q    Type
REMARK                         _______ _______ _______ _____ _____    ______ ____
ROOT
ATOM      1  C   UNL     1       4.019  -0.955  -1.514  0.00  0.00    +0.174 C 
ATOM      2  C   UNL     1       2.938  -1.802  -2.151  0.00  0.00    +0.126 C 
ATOM      3  N   UNL     1       3.503  -2.888  -2.562  0.00  0.00    -0.161 NA
ATOM      4  N   UNL     1       4.869  -2.921  -2.295  0.00  0.00    -0.159 N 
ATOM      5  C   UNL     1       5.273  -1.795  -1.665  0.00  0.00    +0.252 C 
ATOM      6  O   UNL     1       6.395  -1.515  -1.298  0.00  0.00    -0.273 OA
ATOM      7  N   UNL     1       1.602  -1.476  -2.270  0.00  0.00    -0.345 N 
ATOM      8  H   UNL     1       1.290  -0.601  -1.992  0.00  0.00    +0.143 HD
ATOM      9  H   UNL     1       0.975  -2.123  -2.630  0.00  0.00    +0.143 HD
ENDROOT
BRANCH   4  10
ATOM     10  C   UNL     1       5.715  -3.981  -2.636  0.00  0.00    +0.060 A 
ATOM     11  C   UNL     1       7.066  -3.923  -2.319  0.00  0.00    +0.025 A 
ATOM     12  C   UNL     1       7.899  -4.971  -2.657  0.00  0.00    +0.002 A 
ATOM     13  C   UNL     1       7.389  -6.079  -3.310  0.00  0.00    +0.000 A 
ATOM     14  C   UNL     1       6.044  -6.140  -3.626  0.00  0.00    +0.002 A 
ATOM     15  C   UNL     1       5.205  -5.098  -3.286  0.00  0.00    +0.025 A 
ENDBRANCH   4  10
BRANCH   1  16
ATOM     16  C   UNL     1       3.710  -0.711  -0.035  0.00  0.00    +0.164 C 
BRANCH  16  20
ATOM     17  C   UNL     1       6.803   1.678   1.689  0.00  0.00    +0.000 A 
ATOM     18  C   UNL     1       6.795   0.310   1.886  0.00  0.00    +0.000 A 
ATOM     19  C   UNL     1       5.795  -0.463   1.328  0.00  0.00    +0.006 A 
ATOM     20  C   UNL     1       4.801   0.132   0.574  0.00  0.00    -0.018 A 
ATOM     21  C   UNL     1       4.808   1.501   0.377  0.00  0.00    +0.006 A 
ATOM     22  C   UNL     1       5.810   2.273   0.934  0.00  0.00    +0.000 A 
ENDBRANCH  16  20
BRANCH  16  23
ATOM     23  O   UNL     1       2.459  -0.030   0.083  0.00  0.00    -0.386 OA
ATOM     24  H   UNL     1       2.436   0.830  -0.359  0.00  0.00    +0.210 HD
ENDBRANCH  16  23
ENDBRANCH   1  16
TORSDOF 4
