REMARK  Name = ZINC19855398
REMARK  14 active torsions:
REMARK  status: ('A' for Active; 'I' for Inactive)
REMARK    1  A    between atoms: C_1  and  C_2
REMARK    2  A    between atoms: C_2  and  C_3
REMARK    3  A    between atoms: C_3  and  C_5
REMARK    4  A    between atoms: C_3  and  O_6
REMARK    5  A    between atoms: O_6  and  C_7
REMARK    6  A    between atoms: C_7  and  C_9
REMARK    7  A    between atoms: C_10  and  C_40
REMARK    8  A    between atoms: C_14  and  C_16
REMARK    9  A    between atoms: C_19  and  O_22
REMARK   10  A    between atoms: O_22  and  C_23
REMARK   11  A    between atoms: C_23  and  C_25
REMARK   12  A    between atoms: C_29  and  C_32
REMARK   13  A    between atoms: C_35  and  O_38
REMARK   14  A    between atoms: O_38  and  C_39
REMARK                            x       y       z     vdW  Elec       q    Type
REMARK                         _______ _______ _______ _____ _____    ______ ____
ROOT
ATOM      1  C   UNL     1      -3.275   3.529   1.376  0.00  0.00    +0.065 C 
ATOM      2  C   UNL     1      -4.285   2.645   1.450  0.00  0.00    +0.016 C 
ATOM      3  N   UNL     1      -4.712   1.986   0.331  0.00  0.00    -0.321 N 
ATOM      4  C   UNL     1      -4.423   2.469  -0.917  0.00  0.00    +0.016 C 
ATOM      5  C   UNL     1      -3.417   3.353  -1.093  0.00  0.00    +0.024 C 
ATOM      6  C   UNL     1      -2.583   3.813   0.075  0.00  0.00    +0.092 C 
ATOM      7  C   UNL     1      -3.121   3.869  -2.367  0.00  0.00    +0.162 C 
ATOM      8  O   UNL     1      -2.203   4.656  -2.493  0.00  0.00    -0.292 OA
ATOM      9  C   UNL     1      -3.919   3.466  -3.576  0.00  0.00    +0.088 C 
ATOM     10  C   UNL     1      -5.340   3.100  -3.136  0.00  0.00    +0.032 C 
ATOM     11  C   UNL     1      -5.253   1.994  -2.083  0.00  0.00    +0.059 C 
ATOM     12  C   UNL     1      -4.952   2.379   2.775  0.00  0.00    +0.061 C 
ATOM     13  H   UNL     1      -5.293   1.057   0.428  0.00  0.00    +0.152 HD
ENDROOT
BRANCH   6  14
ATOM     14  C   UNL     1      -1.259   3.094   0.051  0.00  0.00    -0.035 A 
ATOM     15  C   UNL     1      -1.222   1.714   0.125  0.00  0.00    +0.008 A 
ATOM     16  C   UNL     1      -0.009   1.052   0.109  0.00  0.00    +0.046 A 
ATOM     17  C   UNL     1       1.172   1.773   0.007  0.00  0.00    +0.132 A 
ATOM     18  C   UNL     1       1.132   3.158  -0.072  0.00  0.00    +0.046 A 
ATOM     19  C   UNL     1      -0.083   3.815  -0.050  0.00  0.00    +0.008 A 
BRANCH  17  20
ATOM     20  O   UNL     1       2.366   1.125  -0.015  0.00  0.00    -0.426 OA
BRANCH  20  21
ATOM     21  C   UNL     1       2.642   0.392  -1.106  0.00  0.00    +0.309 C 
ATOM     22  O   UNL     1       1.893   0.415  -2.054  0.00  0.00    -0.251 OA
ATOM     23  C   UNL     1       3.885  -0.458  -1.149  0.00  0.00    +0.136 C 
ENDBRANCH  20  21
ENDBRANCH  17  20
ENDBRANCH   6  14
BRANCH  10  24
ATOM     24  C   UNL     1      -6.127   2.608  -4.324  0.00  0.00    -0.043 A 
ATOM     25  C   UNL     1      -5.684   1.510  -5.038  0.00  0.00    +0.007 A 
ATOM     26  C   UNL     1      -6.407   1.053  -6.123  0.00  0.00    +0.046 A 
ATOM     27  C   UNL     1      -7.571   1.704  -6.504  0.00  0.00    +0.120 A 
ATOM     28  C   UNL     1      -8.010   2.810  -5.789  0.00  0.00    +0.046 A 
ATOM     29  C   UNL     1      -7.287   3.259  -4.701  0.00  0.00    +0.007 A 
BRANCH  27  30
ATOM     30  O   UNL     1      -8.280   1.261  -7.575  0.00  0.00    -0.495 OA
ATOM     31  C   UNL     1      -7.768   0.118  -8.264  0.00  0.00    +0.277 C 
ENDBRANCH  27  30
ENDBRANCH  10  24
BRANCH   1  32
ATOM     32  C   UNL     1      -2.856   4.203   2.547  0.00  0.00    +0.338 C 
ATOM     33  O   UNL     1      -3.409   3.982   3.607  0.00  0.00    -0.245 OA
BRANCH  32  34
ATOM     34  O   UNL     1      -1.843   5.093   2.487  0.00  0.00    -0.458 OA
BRANCH  34  35
ATOM     35  C   UNL     1      -1.472   5.737   3.707  0.00  0.00    +0.173 C 
ATOM     36  C   UNL     1      -0.396   4.911   4.414  0.00  0.00    +0.052 C 
BRANCH  35  38
ATOM     37  C   UNL     1      -2.038   7.999   2.808  0.00  0.00    +0.007 C 
ATOM     38  C   UNL     1      -0.925   7.133   3.401  0.00  0.00    +0.041 C 
ENDBRANCH  35  38
ENDBRANCH  34  35
ENDBRANCH  32  34
ENDBRANCH   1  32
TORSDOF 9
