REMARK  Name = ZINC09343806
REMARK  11 active torsions:
REMARK  status: ('A' for Active; 'I' for Inactive)
REMARK    1  A    between atoms: C_1  and  C_2
REMARK    2  A    between atoms: C_2  and  N_54
REMARK    3  A    between atoms: C_3  and  C_4
REMARK    4  A    between atoms: C_3  and  N_54
REMARK    5  A    between atoms: C_5  and  C_6
REMARK    6  A    between atoms: C_5  and  N_54
REMARK    7  A    between atoms: C_6  and  N_7
REMARK    8  A    between atoms: C_13  and  N_17
REMARK    9  A    between atoms: C_20  and  C_22
REMARK   10  A    between atoms: C_22  and  S_23
REMARK   11  A    between atoms: S_23  and  C_24
REMARK                            x       y       z     vdW  Elec       q    Type
REMARK                         _______ _______ _______ _____ _____    ______ ____
ROOT
ATOM      1  N   UNL     1       7.170   1.795  -0.215  0.00  0.00    -0.252 N 
ATOM      2  C   UNL     1       6.022   1.028  -0.328  0.00  0.00    +0.168 A 
ATOM      3  N   UNL     1       4.771   1.422  -0.376  0.00  0.00    -0.224 NA
ATOM      4  C   UNL     1       3.741   0.555  -0.489  0.00  0.00    +0.080 A 
ATOM      5  C   UNL     1       2.358   0.845  -0.551  0.00  0.00    +0.031 A 
ATOM      6  C   UNL     1       1.436  -0.162  -0.667  0.00  0.00    +0.035 A 
ATOM      7  C   UNL     1       1.821  -1.494  -0.727  0.00  0.00    +0.127 A 
ATOM      8  C   UNL     1       3.164  -1.814  -0.669  0.00  0.00    +0.050 A 
ATOM      9  C   UNL     1       4.095  -0.812  -0.553  0.00  0.00    +0.043 A 
ATOM     10  S   UNL     1       5.868  -0.748  -0.446  0.00  0.00    -0.052 S 
ATOM     11  C   UNL     1       8.378   1.199  -0.182  0.00  0.00    +0.231 C 
ATOM     12  O   UNL     1       8.460  -0.009  -0.252  0.00  0.00    -0.274 OA
ENDROOT
BRANCH   7  13
ATOM     13  N   UNL     1       0.802  -2.561  -0.852  0.00  0.00    +0.056 N 
ATOM     14  O   UNL     1      -0.380  -2.272  -0.902  0.00  0.00    -0.126 OA
ATOM     15  O   UNL     1       1.147  -3.728  -0.904  0.00  0.00    -0.126 OA
ENDBRANCH   7  13
BRANCH   1  16
ATOM     16  C   UNL     1       7.071   3.254  -0.131  0.00  0.00    +0.097 C 
BRANCH  16  17
ATOM     17  C   UNL     1       6.954   3.674   1.336  0.00  0.00    -0.059 C 
BRANCH  17  18
ATOM     18  N   UNL     1       6.877   5.148   1.405  0.00  0.00    +0.380 N 
ATOM     19  H   UNL     1       7.657   5.549   0.871  0.00  0.00    -0.082 HD
BRANCH  18  21
ATOM     20  C   UNL     1       4.414   5.021   1.576  0.00  0.00    -0.017 C 
ATOM     21  C   UNL     1       5.603   5.615   0.819  0.00  0.00    -0.082 C 
ENDBRANCH  18  21
BRANCH  18  22
ATOM     22  C   UNL     1       6.979   5.594   2.811  0.00  0.00    -0.082 C 
ATOM     23  C   UNL     1       7.263   7.097   2.830  0.00  0.00    -0.017 C 
ENDBRANCH  18  22
ENDBRANCH  17  18
ENDBRANCH  16  17
ENDBRANCH   1  16
BRANCH  11  24
ATOM     24  C   UNL     1       9.627   2.033  -0.059  0.00  0.00    +0.170 C 
BRANCH  24  25
ATOM     25  S   UNL     1      11.081   0.947  -0.043  0.00  0.00    -0.116 S 
BRANCH  25  26
ATOM     26  C   UNL     1      12.441   2.057   0.104  0.00  0.00    +0.008 A 
ATOM     27  C   UNL     1      12.217   3.427   0.169  0.00  0.00    +0.016 A 
ATOM     28  C   UNL     1      13.285   4.295   0.289  0.00  0.00    +0.021 A 
ATOM     29  C   UNL     1      14.577   3.801   0.333  0.00  0.00    +0.041 A 
ATOM     30  C   UNL     1      14.803   2.438   0.262  0.00  0.00    +0.021 A 
ATOM     31  C   UNL     1      13.739   1.565   0.148  0.00  0.00    +0.016 A 
ATOM     32 CL   UNL     1      15.918   4.896   0.478  0.00  0.00    -0.084 Cl
ENDBRANCH  25  26
ENDBRANCH  24  25
ENDBRANCH  11  24
TORSDOF 9
