REMARK  Name = ZINC35867931
REMARK  10 active torsions:
REMARK  status: ('A' for Active; 'I' for Inactive)
REMARK    1  A    between atoms: C_1  and  C_2
REMARK    2  A    between atoms: C_2  and  C_3
REMARK    3  A    between atoms: C_3  and  C_4
REMARK    4  A    between atoms: C_14  and  C_18
REMARK    5  A    between atoms: N_22  and  S_25
REMARK    6  A    between atoms: S_25  and  C_28
REMARK    7  A    between atoms: C_31  and  C_34
REMARK    8  A    between atoms: C_34  and  C_35
REMARK    9  A    between atoms: C_34  and  C_36
REMARK   10  A    between atoms: C_34  and  C_37
REMARK                            x       y       z     vdW  Elec       q    Type
REMARK                         _______ _______ _______ _____ _____    ______ ____
ROOT
ATOM      1  C   UNL     1      -2.577  -3.096   0.545  0.00  0.00    +0.132 A 
ATOM      2  N   UNL     1      -2.535  -3.700  -0.629  0.00  0.00    -0.217 NA
ATOM      3  C   UNL     1      -1.393  -4.001  -1.226  0.00  0.00    +0.133 A 
ATOM      4  C   UNL     1      -0.167  -3.666  -0.585  0.00  0.00    +0.051 A 
ATOM      5  C   UNL     1       1.202  -3.899  -1.047  0.00  0.00    -0.025 A 
ATOM      6  C   UNL     1       2.199  -3.479  -0.241  0.00  0.00    -0.004 A 
ATOM      7  S   UNL     1       1.388  -2.759   1.161  0.00  0.00    -0.073 S 
ATOM      8  C   UNL     1      -0.293  -3.024   0.663  0.00  0.00    +0.114 A 
ATOM      9  N   UNL     1      -1.475  -2.756   1.184  0.00  0.00    -0.225 NA
ATOM     10  C   UNL     1       3.673  -3.599  -0.483  0.00  0.00    +0.046 C 
ATOM     11  C   UNL     1       3.897  -4.608  -1.618  0.00  0.00    -0.009 C 
ATOM     12  C   UNL     1       2.952  -4.265  -2.773  0.00  0.00    +0.008 C 
ATOM     13  C   UNL     1       1.510  -4.584  -2.376  0.00  0.00    +0.037 C 
ATOM     14  C   UNL     1       5.348  -4.528  -2.097  0.00  0.00    +0.008 C 
ATOM     15  N   UNL     1      -1.390  -4.634  -2.456  0.00  0.00    -0.312 N 
ATOM     16  C   UNL     1      -1.267  -6.096  -2.545  0.00  0.00    +0.123 C 
ATOM     17  C   UNL     1      -2.454  -6.639  -3.350  0.00  0.00    +0.128 C 
ATOM     18  N   UNL     1      -2.575  -5.861  -4.592  0.00  0.00    -0.174 NA
ATOM     19  C   UNL     1      -2.698  -4.399  -4.503  0.00  0.00    +0.128 C 
ATOM     20  C   UNL     1      -1.517  -3.857  -3.697  0.00  0.00    +0.123 C 
ENDROOT
BRANCH  18  21
ATOM     21  S   UNL     1      -2.572  -6.619  -6.064  0.00  0.00    +0.061 S 
ATOM     22  O   UNL     1      -2.143  -5.654  -7.016  0.00  0.00    -0.153 OA
ATOM     23  O   UNL     1      -1.903  -7.859  -5.882  0.00  0.00    -0.153 OA
BRANCH  21  24
ATOM     24  C   UNL     1      -4.246  -7.003  -6.456  0.00  0.00    +0.105 A 
ATOM     25  C   UNL     1      -4.789  -8.210  -6.060  0.00  0.00    +0.029 A 
ATOM     26  C   UNL     1      -6.103  -8.512  -6.367  0.00  0.00    +0.006 A 
ATOM     27  C   UNL     1      -6.874  -7.605  -7.070  0.00  0.00    -0.042 A 
ATOM     28  C   UNL     1      -6.331  -6.397  -7.466  0.00  0.00    +0.006 A 
ATOM     29  C   UNL     1      -5.019  -6.094  -7.155  0.00  0.00    +0.029 A 
BRANCH  27  30
ATOM     30  C   UNL     1      -8.306  -7.934  -7.406  0.00  0.00    -0.013 C 
ATOM     31  C   UNL     1      -9.092  -8.165  -6.114  0.00  0.00    +0.015 C 
ATOM     32  C   UNL     1      -8.928  -6.771  -8.181  0.00  0.00    +0.015 C 
ATOM     33  C   UNL     1      -8.350  -9.200  -8.263  0.00  0.00    +0.015 C 
ENDBRANCH  27  30
ENDBRANCH  21  24
ENDBRANCH  18  21
BRANCH   1  34
ATOM     34  C   UNL     1      -3.915  -2.785   1.165  0.00  0.00    +0.076 C 
BRANCH  34  36
ATOM     35  C   UNL     1      -5.736  -1.083   1.340  0.00  0.00    +0.004 C 
ATOM     36  C   UNL     1      -4.378  -1.399   0.711  0.00  0.00    +0.004 C 
ENDBRANCH  34  36
ENDBRANCH   1  34
TORSDOF 5
