REMARK  Name = ZINC10900144
REMARK  6 active torsions:
REMARK  status: ('A' for Active; 'I' for Inactive)
REMARK    1  A    between atoms: C_1  and  C_2
REMARK    2  A    between atoms: C_14  and  C_15
REMARK    3  A    between atoms: N_17  and  C_18
REMARK    4  A    between atoms: N_17  and  C_19
REMARK    5  A    between atoms: C_19  and  C_20
REMARK    6  A    between atoms: C_25  and  N_26
REMARK                            x       y       z     vdW  Elec       q    Type
REMARK                         _______ _______ _______ _____ _____    ______ ____
ROOT
ATOM      1  C   UNL     1      -3.038   1.674   0.303  0.00  0.00    +0.282 C 
ATOM      2  O   UNL     1      -2.694   1.347  -0.817  0.00  0.00    -0.267 OA
ATOM      3  N   UNL     1      -4.344   1.859   0.580  0.00  0.00    -0.294 N 
ATOM      4  C   UNL     1      -4.752   2.332   1.905  0.00  0.00    +0.133 C 
ENDROOT
BRANCH   1  18
ATOM      5  C   UNL     1      -0.007   1.057   0.010  0.00  0.00    +0.048 C 
ATOM      6  C   UNL     1      -0.703   1.600   1.230  0.00  0.00    +0.008 A 
ATOM      7  C   UNL     1      -0.100   1.935   2.468  0.00  0.00    +0.024 A 
ATOM      8  C   UNL     1       1.228   1.881   2.941  0.00  0.00    +0.012 A 
ATOM      9  C   UNL     1       1.531   2.273   4.200  0.00  0.00    +0.009 A 
ATOM     10  C   UNL     1       0.519   2.745   5.063  0.00  0.00    -0.014 A 
ATOM     11  C   UNL     1       0.822   3.155   6.371  0.00  0.00    +0.008 A 
ATOM     12  C   UNL     1      -0.173   3.607   7.185  0.00  0.00    +0.001 A 
ATOM     13  C   UNL     1      -1.490   3.669   6.740  0.00  0.00    +0.001 A 
ATOM     14  C   UNL     1      -1.819   3.278   5.476  0.00  0.00    +0.012 A 
ATOM     15  C   UNL     1      -0.821   2.808   4.611  0.00  0.00    +0.025 A 
ATOM     16  C   UNL     1      -1.129   2.396   3.296  0.00  0.00    +0.144 A 
ATOM     17  O   UNL     1      -2.275   2.340   2.595  0.00  0.00    -0.449 OA
ATOM     18  C   UNL     1      -2.030   1.869   1.353  0.00  0.00    +0.194 A 
ENDBRANCH   1  18
BRANCH   3  19
ATOM     19  C   UNL     1      -5.355   1.587  -0.445  0.00  0.00    +0.144 C 
BRANCH  19  20
ATOM     20  C   UNL     1      -5.880   0.185  -0.272  0.00  0.00    -0.009 A 
ATOM     21  C   UNL     1      -5.469  -0.580   0.802  0.00  0.00    +0.007 A 
ATOM     22  C   UNL     1      -5.954  -1.865   0.964  0.00  0.00    +0.000 A 
ATOM     23  C   UNL     1      -6.844  -2.392   0.046  0.00  0.00    +0.002 A 
ATOM     24  C   UNL     1      -7.256  -1.635  -1.032  0.00  0.00    +0.023 A 
ATOM     25  C   UNL     1      -6.774  -0.342  -1.195  0.00  0.00    +0.035 A 
BRANCH  25  26
ATOM     26  N   UNL     1      -7.188   0.427  -2.285  0.00  0.00    -0.325 N 
ATOM     27  C   UNL     1      -8.609   0.786  -2.168  0.00  0.00    +0.133 C 
ATOM     28  C   UNL     1      -9.005   1.675  -3.350  0.00  0.00    +0.178 C 
ATOM     29  O   UNL     1      -8.718   0.991  -4.572  0.00  0.00    -0.377 OA
ATOM     30  C   UNL     1      -7.343   0.627  -4.720  0.00  0.00    +0.178 C 
ATOM     31  C   UNL     1      -6.931  -0.273  -3.552  0.00  0.00    +0.133 C 
ENDBRANCH  25  26
ENDBRANCH  19  20
ENDBRANCH   3  19
TORSDOF 4
