REMARK  Name = ZINC40008019
REMARK  14 active torsions:
REMARK  status: ('A' for Active; 'I' for Inactive)
REMARK    1  A    between atoms: C_1  and  C_2
REMARK    2  A    between atoms: C_2  and  C_3
REMARK    3  A    between atoms: C_3  and  C_4
REMARK    4  A    between atoms: C_4  and  N_5
REMARK    5  A    between atoms: N_5  and  C_6
REMARK    6  A    between atoms: N_5  and  C_10
REMARK    7  A    between atoms: C_6  and  C_7
REMARK    8  A    between atoms: C_7  and  C_8
REMARK    9  A    between atoms: C_8  and  C_9
REMARK   10  A    between atoms: C_10  and  C_11
REMARK   11  A    between atoms: C_11  and  C_12
REMARK   12  A    between atoms: C_12  and  N_13
REMARK   13  A    between atoms: C_14  and  C_30
REMARK   14  A    between atoms: C_21  and  C_29
REMARK                            x       y       z     vdW  Elec       q    Type
REMARK                         _______ _______ _______ _____ _____    ______ ____
ROOT
ATOM      1  N   UNL     1       3.869  -5.931  -0.299  0.00  0.00    -0.284 N 
ATOM      2  C   UNL     1       3.350  -6.241  -1.641  0.00  0.00    +0.144 C 
ATOM      3  C   UNL     1       4.551  -6.400  -2.515  0.00  0.00    +0.072 A 
ATOM      4  C   UNL     1       4.674  -6.721  -3.941  0.00  0.00    +0.199 A 
ATOM      5  O   UNL     1       3.724  -6.745  -4.703  0.00  0.00    -0.287 OA
ATOM      6  C   UNL     1       6.066  -7.013  -4.367  0.00  0.00    +0.065 A 
ATOM      7  C   UNL     1       6.322  -7.526  -5.638  0.00  0.00    +0.018 A 
ATOM      8  C   UNL     1       7.609  -7.795  -6.014  0.00  0.00    -0.050 A 
ATOM      9  C   UNL     1       8.657  -7.559  -5.135  0.00  0.00    +0.007 A 
ATOM     10  C   UNL     1       8.422  -7.051  -3.877  0.00  0.00    +0.047 A 
ATOM     11  C   UNL     1       7.118  -6.766  -3.471  0.00  0.00    +0.139 A 
ATOM     12  O   UNL     1       6.911  -6.259  -2.234  0.00  0.00    -0.450 OA
ATOM     13  C   UNL     1       5.659  -6.193  -1.742  0.00  0.00    +0.199 A 
ATOM     14  C   UNL     1       5.215  -5.900  -0.368  0.00  0.00    +0.283 C 
ATOM     15  O   UNL     1       5.955  -5.667   0.567  0.00  0.00    -0.267 OA
ATOM     16  C   UNL     1       7.891  -8.349  -7.386  0.00  0.00    +0.044 C 
ENDROOT
BRANCH   2  17
ATOM     17  C   UNL     1       2.556  -7.522  -1.609  0.00  0.00    -0.022 A 
ATOM     18  C   UNL     1       2.994  -8.588  -0.845  0.00  0.00    +0.006 A 
ATOM     19  C   UNL     1       2.266  -9.762  -0.815  0.00  0.00    +0.000 A 
ATOM     20  C   UNL     1       1.099  -9.871  -1.548  0.00  0.00    +0.000 A 
ATOM     21  C   UNL     1       0.661  -8.805  -2.312  0.00  0.00    +0.000 A 
ATOM     22  C   UNL     1       1.387  -7.629  -2.338  0.00  0.00    +0.006 A 
ENDBRANCH   2  17
BRANCH   1  23
ATOM     23  C   UNL     1       3.062  -5.691   0.901  0.00  0.00    +0.107 C 
BRANCH  23  24
ATOM     24  C   UNL     1       2.734  -4.200   1.005  0.00  0.00    +0.000 C 
BRANCH  24  25
ATOM     25  C   UNL     1       1.892  -3.949   2.257  0.00  0.00    -0.077 C 
BRANCH  25  26
ATOM     26  N   UNL     1       1.577  -2.518   2.357  0.00  0.00    +0.380 N 
ATOM     27  H   UNL     1       2.432  -1.983   2.333  0.00  0.00    -0.082 HD
BRANCH  26  28
ATOM     28  C   UNL     1       0.722  -2.125   1.229  0.00  0.00    -0.079 C 
BRANCH  28  29
ATOM     29  C   UNL     1       0.511  -0.610   1.253  0.00  0.00    -0.019 C 
BRANCH  29  31
ATOM     30  C   UNL     1      -0.478   1.331   0.030  0.00  0.00    +0.004 C 
ATOM     31  C   UNL     1      -0.267  -0.184   0.006  0.00  0.00    -0.005 C 
ENDBRANCH  29  31
ENDBRANCH  28  29
ENDBRANCH  26  28
BRANCH  26  32
ATOM     32  C   UNL     1       0.872  -2.259   3.620  0.00  0.00    -0.079 C 
BRANCH  32  33
ATOM     33  C   UNL     1       1.813  -2.531   4.795  0.00  0.00    -0.019 C 
BRANCH  33  34
ATOM     34  C   UNL     1       1.125  -2.135   6.102  0.00  0.00    -0.005 C 
ATOM     35  C   UNL     1       2.066  -2.408   7.277  0.00  0.00    +0.004 C 
ENDBRANCH  33  34
ENDBRANCH  32  33
ENDBRANCH  26  32
ENDBRANCH  25  26
ENDBRANCH  24  25
ENDBRANCH  23  24
ENDBRANCH   1  23
TORSDOF 11
