REMARK  Name = ZINC33764081
REMARK  12 active torsions:
REMARK  status: ('A' for Active; 'I' for Inactive)
REMARK    1  A    between atoms: C_1  and  C_2
REMARK    2  A    between atoms: C_5  and  C_22
REMARK    3  A    between atoms: C_6  and  C_7
REMARK    4  A    between atoms: C_6  and  C_8
REMARK    5  A    between atoms: C_15  and  N_19
REMARK    6  A    between atoms: N_24  and  C_25
REMARK    7  A    between atoms: C_27  and  C_35
REMARK    8  A    between atoms: C_29  and  C_31
REMARK    9  A    between atoms: C_31  and  O_33
REMARK   10  A    between atoms: O_33  and  C_34
REMARK   11  A    between atoms: C_35  and  O_37
REMARK   12  A    between atoms: O_37  and  C_38
REMARK                            x       y       z     vdW  Elec       q    Type
REMARK                         _______ _______ _______ _____ _____    ______ ____
ROOT
ATOM      1  C   UNL     1      -0.033   1.526   0.019  0.00  0.00    +0.018 C 
ATOM      2  C   UNL     1      -0.011  -0.004   0.009  0.00  0.00    +0.018 C 
ATOM      3  C   UNL     1       0.720  -0.675  -1.196  0.00  0.00    +0.015 C 
ATOM      4  C   UNL     1       0.987  -2.122  -0.715  0.00  0.00    +0.024 C 
ATOM      5  C   UNL     1       0.387  -2.161   0.725  0.00  0.00    +0.097 C 
ATOM      6  C   UNL     1       0.723  -0.704   1.211  0.00  0.00    -0.005 C 
ATOM      7  C   UNL     1       2.230  -0.441   1.204  0.00  0.00    +0.013 C 
ATOM      8  C   UNL     1       0.088  -0.360   2.560  0.00  0.00    +0.013 C 
ATOM      9  C   UNL     1      -1.123  -2.028   0.509  0.00  0.00    +0.079 A 
ATOM     10  C   UNL     1      -1.372  -0.700   0.086  0.00  0.00    +0.071 A 
ATOM     11  N   UNL     1      -2.584  -0.285  -0.176  0.00  0.00    -0.248 NA
ATOM     12  C   UNL     1      -3.616  -1.123  -0.017  0.00  0.00    +0.090 A 
ATOM     13  C   UNL     1      -4.932  -0.709  -0.288  0.00  0.00    +0.032 A 
ATOM     14  C   UNL     1      -5.963  -1.581  -0.115  0.00  0.00    +0.035 A 
ATOM     15  C   UNL     1      -5.734  -2.883   0.327  0.00  0.00    +0.128 A 
ATOM     16  C   UNL     1      -4.474  -3.319   0.599  0.00  0.00    +0.062 A 
ATOM     17  C   UNL     1      -3.384  -2.447   0.432  0.00  0.00    +0.092 A 
ATOM     18  N   UNL     1      -2.106  -2.877   0.659  0.00  0.00    -0.247 NA
ENDROOT
BRANCH   5  19
ATOM     19  C   UNL     1       0.851  -3.290   1.609  0.00  0.00    +0.230 C 
ATOM     20  O   UNL     1       1.435  -3.048   2.644  0.00  0.00    -0.274 OA
ATOM     21  N   UNL     1       0.618  -4.567   1.249  0.00  0.00    -0.285 N 
ATOM     22  H   UNL     1       0.093  -4.760   0.457  0.00  0.00    +0.155 HD
BRANCH  21  23
ATOM     23  C   UNL     1       1.133  -5.617   2.020  0.00  0.00    +0.035 A 
ATOM     24  C   UNL     1       1.212  -5.489   3.399  0.00  0.00    +0.038 A 
ATOM     25  C   UNL     1       1.724  -6.534   4.170  0.00  0.00    +0.062 A 
ATOM     26  C   UNL     1       2.157  -7.706   3.553  0.00  0.00    +0.030 A 
ATOM     27  C   UNL     1       2.076  -7.831   2.167  0.00  0.00    +0.062 A 
ATOM     28  C   UNL     1       1.557  -6.784   1.403  0.00  0.00    +0.038 A 
BRANCH  27  29
ATOM     29  C   UNL     1       2.534  -9.072   1.509  0.00  0.00    +0.339 C 
ATOM     30  O   UNL     1       2.463  -9.180   0.301  0.00  0.00    -0.245 OA
BRANCH  29  31
ATOM     31  O   UNL     1       3.030 -10.083   2.248  0.00  0.00    -0.464 OA
ATOM     32  C   UNL     1       3.454 -11.253   1.545  0.00  0.00    +0.280 C 
ENDBRANCH  29  31
ENDBRANCH  27  29
BRANCH  25  33
ATOM     33  C   UNL     1       1.808  -6.396   5.639  0.00  0.00    +0.339 C 
ATOM     34  O   UNL     1       1.431  -5.374   6.176  0.00  0.00    -0.245 OA
BRANCH  33  35
ATOM     35  O   UNL     1       2.303  -7.405   6.383  0.00  0.00    -0.464 OA
ATOM     36  C   UNL     1       2.355  -7.204   7.796  0.00  0.00    +0.280 C 
ENDBRANCH  33  35
ENDBRANCH  25  33
ENDBRANCH  21  23
ENDBRANCH   5  19
BRANCH  15  37
ATOM     37  N   UNL     1      -6.878  -3.804   0.505  0.00  0.00    +0.056 N 
ATOM     38  O   UNL     1      -8.002  -3.426   0.267  0.00  0.00    -0.126 OA
ATOM     39  O   UNL     1      -6.690  -4.935   0.889  0.00  0.00    -0.126 OA
ENDBRANCH  15  37
TORSDOF 7
