REMARK  Name = ZINC09513708
REMARK  5 active torsions:
REMARK  status: ('A' for Active; 'I' for Inactive)
REMARK    1  A    between atoms: C_3  and  O_28
REMARK    2  A    between atoms: C_4  and  C_11
REMARK    3  A    between atoms: C_11  and  N_48
REMARK    4  A    between atoms: N_14  and  S_17
REMARK    5  A    between atoms: S_17  and  C_20
REMARK                            x       y       z     vdW  Elec       q    Type
REMARK                         _______ _______ _______ _____ _____    ______ ____
ROOT
ATOM      1  C   UNL     1       0.814  -0.340   0.545  0.00  0.00    -0.061 C 
ATOM      2  C   UNL     1       0.720  -1.826   0.910  0.00  0.00    +0.091 C 
ATOM      3  N   UNL     1       0.956  -2.621  -0.305  0.00  0.00    -0.180 NA
ATOM      4  C   UNL     1       0.174  -2.300  -1.509  0.00  0.00    +0.091 C 
ATOM      5  C   UNL     1       0.290  -0.796  -1.778  0.00  0.00    -0.061 C 
ATOM      6  N   UNL     1      -0.125  -0.063  -0.563  0.00  0.00    +0.384 N 
ATOM      7  H   UNL     1      -1.064  -0.376  -0.290  0.00  0.00    -0.081 HD
ENDROOT
BRANCH   3   8
ATOM      8  S   UNL     1       2.072  -3.844  -0.317  0.00  0.00    +0.062 S 
ATOM      9  O   UNL     1       2.590  -3.908  -1.639  0.00  0.00    -0.153 OA
ATOM     10  O   UNL     1       2.903  -3.646   0.819  0.00  0.00    -0.153 OA
BRANCH   8  11
ATOM     11  C   UNL     1       1.198  -5.349  -0.045  0.00  0.00    +0.124 A 
ATOM     12  C   UNL     1       1.142  -6.306  -1.042  0.00  0.00    +0.031 A 
ATOM     13  C   UNL     1       0.457  -7.487  -0.829  0.00  0.00    +0.017 A 
ATOM     14  C   UNL     1      -0.174  -7.713   0.381  0.00  0.00    +0.019 A 
ATOM     15  C   UNL     1      -0.118  -6.757   1.379  0.00  0.00    +0.037 A 
ATOM     16  C   UNL     1       0.572  -5.577   1.167  0.00  0.00    +0.068 A 
ATOM     17 CL   UNL     1       0.649  -4.379   2.422  0.00  0.00    -0.081 Cl
ATOM     18 BR   UNL     1      -1.111  -9.329   0.672  0.00  0.00    -0.050 Br
ENDBRANCH   8  11
ENDBRANCH   3   8
BRANCH   6  19
ATOM     19  C   UNL     1      -0.166   1.388  -0.838  0.00  0.00    -0.039 C 
BRANCH  19  23
ATOM     20  C   UNL     1      -2.006   3.385   2.507  0.00  0.00    +0.012 A 
ATOM     21  C   UNL     1      -2.752   2.914   1.471  0.00  0.00    +0.046 A 
ATOM     22  C   UNL     1      -2.151   2.272   0.384  0.00  0.00    +0.119 A 
ATOM     23  C   UNL     1      -0.797   2.088   0.338  0.00  0.00    -0.013 A 
ATOM     24  C   UNL     1       0.001   2.561   1.390  0.00  0.00    +0.005 A 
ATOM     25  C   UNL     1      -0.613   3.218   2.489  0.00  0.00    -0.015 A 
ATOM     26  C   UNL     1       0.211   3.682   3.530  0.00  0.00    +0.028 A 
ATOM     27  C   UNL     1       1.555   3.482   3.439  0.00  0.00    +0.111 A 
ATOM     28  N   UNL     1       2.102   2.866   2.401  0.00  0.00    -0.263 NA
ATOM     29  C   UNL     1       1.397   2.406   1.395  0.00  0.00    +0.119 A 
BRANCH  22  30
ATOM     30  O   UNL     1      -2.923   1.819  -0.637  0.00  0.00    -0.507 OA
ATOM     31  H   UNL     1      -3.238   0.912  -0.521  0.00  0.00    +0.292 HD
ENDBRANCH  22  30
ENDBRANCH  19  23
ENDBRANCH   6  19
TORSDOF 5
