REMARK  Name = ZINC29195203
REMARK  10 active torsions:
REMARK  status: ('A' for Active; 'I' for Inactive)
REMARK    1  A    between atoms: C_1  and  C_2
REMARK    2  A    between atoms: C_2  and  N_3
REMARK    3  A    between atoms: N_3  and  C_4
REMARK    4  A    between atoms: N_3  and  S_6
REMARK    5  A    between atoms: C_4  and  C_5
REMARK    6  A    between atoms: S_6  and  C_9
REMARK    7  A    between atoms: C_13  and  N_15
REMARK    8  A    between atoms: C_16  and  C_18
REMARK    9  A    between atoms: C_18  and  N_19
REMARK   10  A    between atoms: C_27  and  C_29
REMARK                            x       y       z     vdW  Elec       q    Type
REMARK                         _______ _______ _______ _____ _____    ______ ____
ROOT
ATOM      1  N   UNL     1      -1.201  -0.725  -0.009  0.00  0.00    -0.287 N 
ATOM      2  C   UNL     1      -2.374  -0.071   0.107  0.00  0.00    +0.201 C 
ATOM      3  O   UNL     1      -2.396   1.142   0.096  0.00  0.00    -0.278 OA
ATOM      4  H   UNL     1      -1.187  -1.823  -0.074  0.00  0.00    +0.155 HD
ENDROOT
BRANCH   1   9
ATOM      5  C   UNL     1       2.326   0.181   0.501  0.00  0.00    +0.107 A 
ATOM      6  C   UNL     1       2.372   1.414  -0.122  0.00  0.00    +0.028 A 
ATOM      7  C   UNL     1       1.235   1.939  -0.708  0.00  0.00    +0.004 A 
ATOM      8  C   UNL     1       0.049   1.233  -0.673  0.00  0.00    +0.023 A 
ATOM      9  C   UNL     1      -0.001  -0.006  -0.048  0.00  0.00    +0.035 A 
ATOM     10  C   UNL     1       1.143  -0.531   0.540  0.00  0.00    +0.051 A 
BRANCH   5  11
ATOM     11  S   UNL     1       3.778  -0.484   1.247  0.00  0.00    +0.061 S 
ATOM     12  O   UNL     1       4.620   0.620   1.550  0.00  0.00    -0.153 OA
ATOM     13  O   UNL     1       3.341  -1.403   2.238  0.00  0.00    -0.153 OA
BRANCH  11  14
ATOM     14  N   UNL     1       4.560  -1.372   0.089  0.00  0.00    -0.177 NA
BRANCH  14  16
ATOM     15  C   UNL     1       6.953  -0.951  -0.186  0.00  0.00    +0.022 C 
ATOM     16  C   UNL     1       5.557  -0.735  -0.774  0.00  0.00    +0.106 C 
ENDBRANCH  14  16
BRANCH  14  17
ATOM     17  C   UNL     1       4.254  -2.796  -0.073  0.00  0.00    +0.106 C 
ATOM     18  C   UNL     1       3.202  -2.970  -1.170  0.00  0.00    +0.022 C 
ENDBRANCH  14  17
ENDBRANCH  11  14
ENDBRANCH   5  11
ENDBRANCH   1   9
BRANCH   2  19
ATOM     19  C   UNL     1      -3.658  -0.847   0.249  0.00  0.00    +0.020 C 
BRANCH  19  20
ATOM     20  N   UNL     1      -4.795   0.083   0.242  0.00  0.00    +0.393 N 
ATOM     21  C   UNL     1      -4.713   1.024   1.368  0.00  0.00    -0.072 C 
ATOM     22  C   UNL     1      -6.089   1.684   1.564  0.00  0.00    +0.024 C 
ATOM     23  C   UNL     1      -6.581   2.117   0.222  0.00  0.00    -0.010 A 
ATOM     24  C   UNL     1      -6.082   1.740  -0.988  0.00  0.00    -0.046 A 
ATOM     25  C   UNL     1      -6.704   2.278  -2.113  0.00  0.00    +0.010 A 
ATOM     26  C   UNL     1      -7.747   3.127  -1.968  0.00  0.00    +0.045 A 
ATOM     27  S   UNL     1      -7.909   3.213  -0.190  0.00  0.00    -0.101 S 
ATOM     28  C   UNL     1      -4.902   0.774  -1.049  0.00  0.00    +0.002 C 
ATOM     29  H   UNL     1      -5.718  -0.501   0.374  0.00  0.00    -0.080 HD
BRANCH  28  30
ATOM     30  C   UNL     1      -5.128  -0.234  -2.146  0.00  0.00    -0.019 A 
ATOM     31  C   UNL     1      -4.607  -0.266  -3.396  0.00  0.00    +0.010 A 
ATOM     32  C   UNL     1      -4.960  -1.300  -4.243  0.00  0.00    +0.008 A 
ATOM     33  C   UNL     1      -5.817  -2.251  -3.798  0.00  0.00    +0.045 A 
ATOM     34  S   UNL     1      -6.148  -1.699  -2.132  0.00  0.00    -0.103 S 
ENDBRANCH  28  30
ENDBRANCH  19  20
ENDBRANCH   2  19
TORSDOF 8
