REMARK  Name = ZINC40367132
REMARK  5 active torsions:
REMARK  status: ('A' for Active; 'I' for Inactive)
REMARK    1  A    between atoms: C_1  and  C_2
REMARK    2  A    between atoms: N_7  and  S_9
REMARK    3  A    between atoms: S_9  and  N_12
REMARK    4  A    between atoms: N_12  and  C_13
REMARK    5  A    between atoms: C_13  and  C_21
REMARK                            x       y       z     vdW  Elec       q    Type
REMARK                         _______ _______ _______ _____ _____    ______ ____
ROOT
ATOM      1  N   UNL     1       1.704  -3.032   3.398  0.00  0.00    -0.160 NA
ATOM      2  H   UNL     1       2.146  -3.879   3.567  0.00  0.00    +0.151 HD
ENDROOT
BRANCH   1   3
ATOM      3  C   UNL     1       2.176  -1.799   4.078  0.00  0.00    +0.127 C 
ATOM      4  C   UNL     1       1.032  -1.334   4.981  0.00  0.00    +0.039 C 
ATOM      5  C   UNL     1       1.406  -1.360   6.468  0.00  0.00    +0.003 C 
ATOM      6  C   UNL     1       1.606   0.101   6.928  0.00  0.00    +0.000 C 
ATOM      7  C   UNL     1       2.900   0.647   6.341  0.00  0.00    +0.000 C 
ATOM      8  C   UNL     1       4.026  -0.368   6.476  0.00  0.00    +0.000 C 
ATOM      9  C   UNL     1       4.366  -0.963   5.114  0.00  0.00    +0.003 C 
ATOM     10  C   UNL     1       3.464  -2.141   4.791  0.00  0.00    +0.039 C 
BRANCH   3  11
ATOM     11  C   UNL     1       2.386  -0.797   3.016  0.00  0.00    +0.086 C 
ATOM     12  N   UNL     1       2.547  -0.025   2.198  0.00  0.00    -0.195 NA
ENDBRANCH   3  11
ENDBRANCH   1   3
BRANCH   1  13
ATOM     13  S   UNL     1       0.422  -2.962   2.352  0.00  0.00    +0.098 S 
ATOM     14  O   UNL     1       0.202  -4.287   1.890  0.00  0.00    -0.141 OA
ATOM     15  O   UNL     1       0.679  -1.879   1.467  0.00  0.00    -0.141 OA
BRANCH  13  21
ATOM     16  C   UNL     1      -3.953  -4.439   4.458  0.00  0.00    +0.009 C 
ATOM     17  C   UNL     1      -3.136  -3.482   3.588  0.00  0.00    +0.002 C 
ATOM     18  C   UNL     1      -3.643  -2.051   3.787  0.00  0.00    +0.006 C 
ATOM     19  C   UNL     1      -2.848  -1.098   2.892  0.00  0.00    +0.017 C 
ATOM     20  C   UNL     1      -1.369  -1.146   3.288  0.00  0.00    +0.110 C 
ATOM     21  N   UNL     1      -0.911  -2.542   3.239  0.00  0.00    -0.166 NA
ATOM     22  C   UNL     1      -1.660  -3.558   3.991  0.00  0.00    +0.113 C 
ENDBRANCH  13  21
ENDBRANCH   1  13
TORSDOF 4
