REMARK  Name = ZINC13689847
REMARK  6 active torsions:
REMARK  status: ('A' for Active; 'I' for Inactive)
REMARK    1  A    between atoms: C_1  and  C_2
REMARK    2  A    between atoms: C_7  and  N_8
REMARK    3  A    between atoms: C_13  and  C_38
REMARK    4  A    between atoms: C_38  and  C_39
REMARK    5  A    between atoms: C_39  and  C_40
REMARK    6  A    between atoms: C_39  and  C_41
REMARK                            x       y       z     vdW  Elec       q    Type
REMARK                         _______ _______ _______ _____ _____    ______ ____
ROOT
ATOM      1  N   UNL     1       0.025  -0.013   2.419  0.00  0.00    -0.210 N 
ATOM      2  C   UNL     1      -1.099   0.324   3.061  0.00  0.00    +0.232 C 
ATOM      3  O   UNL     1      -2.224   0.083   2.679  0.00  0.00    -0.274 OA
ATOM      4  C   UNL     1      -0.748   1.052   4.339  0.00  0.00    +0.107 C 
ATOM      5  C   UNL     1      -1.122   0.165   5.546  0.00  0.00    +0.068 C 
ATOM      6  N   UNL     1       0.057   0.233   6.449  0.00  0.00    -0.297 NA
ATOM      7  C   UNL     1       1.214   0.222   5.535  0.00  0.00    +0.118 C 
ATOM      8  C   UNL     1       0.805   1.087   4.317  0.00  0.00    +0.121 C 
ATOM      9  C   UNL     1       1.152   0.360   3.037  0.00  0.00    +0.233 C 
ATOM     10  O   UNL     1       2.275   0.149   2.633  0.00  0.00    -0.274 OA
ATOM     11  C   UNL     1       2.446   0.764   6.199  0.00  0.00    +0.005 A 
ATOM     12  C   UNL     1       2.751   1.975   6.783  0.00  0.00    +0.008 A 
ATOM     13  C   UNL     1       4.005   2.185   7.326  0.00  0.00    +0.000 A 
ATOM     14  C   UNL     1       4.952   1.178   7.284  0.00  0.00    +0.002 A 
ATOM     15  C   UNL     1       4.652  -0.036   6.701  0.00  0.00    +0.026 A 
ATOM     16  C   UNL     1       3.390  -0.254   6.151  0.00  0.00    +0.057 A 
ATOM     17  N   UNL     1       2.862  -1.387   5.512  0.00  0.00    -0.262 N 
ATOM     18  C   UNL     1       1.571  -1.183   5.121  0.00  0.00    +0.143 A 
ATOM     19  N   UNL     1       0.863  -2.090   4.511  0.00  0.00    -0.231 NA
ATOM     20  C   UNL     1       1.360  -3.313   4.211  0.00  0.00    +0.078 A 
ATOM     21  C   UNL     1       0.595  -4.279   3.554  0.00  0.00    +0.028 A 
ATOM     22  C   UNL     1       1.146  -5.507   3.267  0.00  0.00    +0.002 A 
ATOM     23  C   UNL     1       2.456  -5.800   3.624  0.00  0.00    +0.001 A 
ATOM     24  C   UNL     1       3.231  -4.865   4.273  0.00  0.00    +0.015 A 
ATOM     25  C   UNL     1       2.692  -3.615   4.574  0.00  0.00    +0.065 A 
ATOM     26  C   UNL     1       3.468  -2.579   5.266  0.00  0.00    +0.266 A 
ATOM     27  O   UNL     1       4.619  -2.780   5.607  0.00  0.00    -0.267 OA
ATOM     28  H   UNL     1       0.041   1.077   7.002  0.00  0.00    +0.123 HD
ENDROOT
BRANCH   1  35
ATOM     29  C   UNL     1      -0.018   1.503   0.010  0.00  0.00    +0.045 C 
ATOM     30  C   UNL     1       0.002  -0.004   0.002  0.00  0.00    -0.029 A 
ATOM     31  C   UNL     1       0.006  -0.689  -1.198  0.00  0.00    +0.005 A 
ATOM     32  C   UNL     1       0.025  -2.071  -1.206  0.00  0.00    +0.000 A 
ATOM     33  C   UNL     1       0.041  -2.773  -0.014  0.00  0.00    +0.002 A 
ATOM     34  C   UNL     1       0.037  -2.094   1.188  0.00  0.00    +0.024 A 
ATOM     35  C   UNL     1       0.023  -0.705   1.200  0.00  0.00    +0.047 A 
ENDBRANCH   1  35
BRANCH   5  36
ATOM     36  C   UNL     1      -2.365   0.717   6.247  0.00  0.00    +0.022 C 
BRANCH  36  37
ATOM     37  C   UNL     1      -2.791  -0.243   7.360  0.00  0.00    -0.016 C 
ATOM     38  C   UNL     1      -1.705  -0.288   8.437  0.00  0.00    +0.007 C 
ATOM     39  C   UNL     1      -4.103   0.243   7.979  0.00  0.00    +0.007 C 
ENDBRANCH  36  37
ENDBRANCH   5  36
TORSDOF 3
