REMARK  Name = ZINC59283051
REMARK  9 active torsions:
REMARK  status: ('A' for Active; 'I' for Inactive)
REMARK    1  A    between atoms: C_1  and  C_2
REMARK    2  A    between atoms: C_9  and  N_17
REMARK    3  A    between atoms: C_10  and  C_11
REMARK    4  A    between atoms: C_11  and  O_13
REMARK    5  A    between atoms: O_13  and  C_14
REMARK    6  A    between atoms: C_14  and  C_15
REMARK    7  A    between atoms: C_14  and  C_16
REMARK    8  A    between atoms: C_18  and  C_20
REMARK    9  A    between atoms: C_24  and  N_26
REMARK                            x       y       z     vdW  Elec       q    Type
REMARK                         _______ _______ _______ _____ _____    ______ ____
ROOT
ATOM      1  N   UNL     1       0.697  -5.846   2.435  0.00  0.00    -0.275 N 
ATOM      2  C   UNL     1       1.679  -6.093   3.325  0.00  0.00    +0.249 C 
ATOM      3  O   UNL     1       2.386  -5.185   3.718  0.00  0.00    -0.270 OA
ATOM      4  H   UNL     1       0.133  -6.570   2.122  0.00  0.00    +0.156 HD
ENDROOT
BRANCH   1  12
ATOM      5  C   UNL     1      -0.019   1.526   0.010  0.00  0.00    +0.008 C 
ATOM      6  C   UNL     1       0.002  -0.004   0.002  0.00  0.00    -0.009 C 
ATOM      7  C   UNL     1      -1.434  -0.537   0.019  0.00  0.00    +0.008 C 
ATOM      8  C   UNL     1      -1.432  -2.045  -0.237  0.00  0.00    +0.037 C 
ATOM      9  C   UNL     1      -0.464  -2.704   0.735  0.00  0.00    -0.021 A 
ATOM     10  C   UNL     1       0.485  -1.986   1.374  0.00  0.00    -0.004 A 
ATOM     11  S   UNL     1       1.344  -3.167   2.373  0.00  0.00    -0.077 S 
ATOM     12  C   UNL     1       0.494  -4.557   1.969  0.00  0.00    +0.087 A 
ATOM     13  C   UNL     1      -0.459  -4.120   1.061  0.00  0.00    +0.091 A 
ATOM     14  C   UNL     1       0.739  -0.515   1.248  0.00  0.00    +0.046 C 
BRANCH  13  15
ATOM     15  C   UNL     1      -1.420  -5.045   0.457  0.00  0.00    +0.342 C 
ATOM     16  O   UNL     1      -1.149  -5.610  -0.585  0.00  0.00    -0.245 OA
BRANCH  15  17
ATOM     17  O   UNL     1      -2.607  -5.271   1.057  0.00  0.00    -0.458 OA
BRANCH  17  18
ATOM     18  C   UNL     1      -3.496  -6.185   0.413  0.00  0.00    +0.171 C 
ATOM     19  C   UNL     1      -3.230  -7.602   0.926  0.00  0.00    +0.052 C 
ATOM     20  C   UNL     1      -4.942  -5.794   0.722  0.00  0.00    +0.052 C 
ENDBRANCH  17  18
ENDBRANCH  15  17
ENDBRANCH  13  15
ENDBRANCH   1  12
BRANCH   2  21
ATOM     21  C   UNL     1       1.896  -7.468   3.823  0.00  0.00    +0.039 A 
ATOM     22  C   UNL     1       1.089  -8.513   3.368  0.00  0.00    +0.013 A 
ATOM     23  C   UNL     1       1.294  -9.795   3.834  0.00  0.00    +0.003 A 
ATOM     24  C   UNL     1       2.297 -10.051   4.751  0.00  0.00    +0.025 A 
ATOM     25  C   UNL     1       3.105  -9.018   5.210  0.00  0.00    +0.052 A 
ATOM     26  C   UNL     1       2.911  -7.726   4.744  0.00  0.00    +0.037 A 
BRANCH  25  27
ATOM     27  N   UNL     1       4.117  -9.281   6.137  0.00  0.00    -0.207 N 
ATOM     28  C   UNL     1       4.707  -8.335   7.100  0.00  0.00    +0.133 C 
ATOM     29  C   UNL     1       5.203  -9.072   8.359  0.00  0.00    +0.045 C 
ATOM     30  C   UNL     1       5.972 -10.316   7.822  0.00  0.00    +0.190 C 
ATOM     31  S   UNL     1       4.903 -10.740   6.386  0.00  0.00    +0.046 S 
ATOM     32  O   UNL     1       3.888 -11.658   6.767  0.00  0.00    -0.155 OA
ATOM     33  O   UNL     1       5.689 -10.952   5.221  0.00  0.00    -0.155 OA
ENDBRANCH  25  27
ENDBRANCH   2  21
TORSDOF 6
