REMARK  Name = ZINC65525853
REMARK  3 active torsions:
REMARK  status: ('A' for Active; 'I' for Inactive)
REMARK    1  A    between atoms: C_1  and  C_2
REMARK    2  A    between atoms: C_8  and  C_16
REMARK    3  A    between atoms: CA_10  and  C_13
REMARK                            x       y       z     vdW  Elec       q    Type
REMARK                         _______ _______ _______ _____ _____    ______ ____
ROOT
ATOM      1  C   UNL     1       0.247   1.663   0.367  0.00  0.00    +0.044 C 
ATOM      2  C   UNL     1       0.189   0.162   0.243  0.00  0.00    -0.050 A 
ATOM      3  C   UNL     1       0.170  -0.431  -1.006  0.00  0.00    +0.005 A 
ATOM      4  C   UNL     1       0.117  -1.803  -1.122  0.00  0.00    +0.023 A 
ATOM      5  C   UNL     1       0.081  -2.606   0.020  0.00  0.00    +0.031 A 
ATOM      6  C   UNL     1       0.101  -2.002   1.268  0.00  0.00    -0.019 A 
ATOM      7  C   UNL     1       0.160  -0.626   1.379  0.00  0.00    +0.009 A 
ATOM      8  C   UNL     1       0.055  -3.082   2.325  0.00  0.00    +0.075 C 
ATOM      9  CA  UNL     1       0.007  -4.398   1.532  0.00  0.00    +0.194 C 
ATOM     10  N   UNL     1       0.027  -3.997   0.123  0.00  0.00    -0.331 N 
ATOM     11  H   UNL     1       0.005  -4.609  -0.629  0.00  0.00    +0.147 HD
ENDROOT
BRANCH   8  12
ATOM     12  C   UNL     1      -1.198  -2.930   3.190  0.00  0.00    +0.112 C 
ATOM     13  C   UNL     1      -1.175  -3.947   4.300  0.00  0.00    +0.054 A 
ATOM     14  H   UNL     1       0.757  -3.962   5.088  0.00  0.00    +0.166 HD
ATOM     15  C   UNL     1      -2.249  -4.683   4.667  0.00  0.00    +0.039 A 
ATOM     16  N   UNL     1      -1.882  -5.479   5.671  0.00  0.00    -0.349 N 
ATOM     17  C   UNL     1      -0.620  -5.267   5.946  0.00  0.00    +0.171 A 
ATOM     18  N   UNL     1      -0.146  -4.315   5.108  0.00  0.00    -0.348 N 
ATOM     19  C   UNL     1      -3.598  -4.557   4.002  0.00  0.00    +0.070 C 
ATOM     20  C   UNL     1      -3.608  -3.248   3.200  0.00  0.00    +0.087 C 
ATOM     21  N   UNL     1      -2.399  -3.166   2.370  0.00  0.00    -0.307 NA
ATOM     22  H   UNL     1      -2.495  -2.458   1.658  0.00  0.00    +0.123 HD
ATOM     23  H   UNL     1      -2.458  -6.114   6.125  0.00  0.00    +0.166 HD
ENDBRANCH   8  12
BRANCH   9  24
ATOM     24  C   UNL     1       1.210  -5.247   1.853  0.00  0.00    +0.376 C 
ATOM     25  O   UNL     1       1.163  -6.046   2.773  0.00  0.00    -0.244 OA
ATOM     26  OXT UNL     1       2.229  -5.134   1.194  0.00  0.00    -0.244 OA
ENDBRANCH   9  24
TORSDOF 2
