REMARK  Name = ZINC63374511
REMARK  8 active torsions:
REMARK  status: ('A' for Active; 'I' for Inactive)
REMARK    1  A    between atoms: C_1  and  C_2
REMARK    2  A    between atoms: C_2  and  C_3
REMARK    3  A    between atoms: C_6  and  C_9
REMARK    4  A    between atoms: N_15  and  C_30
REMARK    5  A    between atoms: C_18  and  C_29
REMARK    6  A    between atoms: C_35  and  O_36
REMARK    7  A    between atoms: O_36  and  C_37
REMARK    8  A    between atoms: C_37  and  C_38
REMARK                            x       y       z     vdW  Elec       q    Type
REMARK                         _______ _______ _______ _____ _____    ______ ____
ROOT
ATOM      1  C   UNL     1       2.707  -1.868  -4.752  0.00  0.00    +0.065 C 
ATOM      2  C   UNL     1       3.415  -3.207  -4.463  0.00  0.00    +0.123 C 
ATOM      3  N   UNL     1       4.854  -3.005  -4.648  0.00  0.00    -0.268 N 
ATOM      4  C   UNL     1       5.839  -3.215  -3.764  0.00  0.00    +0.317 C 
ATOM      5  O   UNL     1       5.681  -3.766  -2.692  0.00  0.00    -0.252 OA
ATOM      6  N   UNL     1       7.018  -2.747  -4.197  0.00  0.00    -0.189 N 
ATOM      7  C   UNL     1       6.926  -2.253  -5.450  0.00  0.00    +0.253 C 
ATOM      8  O   UNL     1       7.809  -1.733  -6.098  0.00  0.00    -0.272 OA
ATOM      9  C   UNL     1       5.494  -2.486  -5.876  0.00  0.00    +0.137 C 
ATOM     10  C   UNL     1       4.814  -1.167  -6.234  0.00  0.00    +0.139 C 
ATOM     11  C   UNL     1       3.775  -0.883  -5.157  0.00  0.00    -0.027 C 
ATOM     12  C   UNL     1       4.042   0.336  -4.698  0.00  0.00    -0.000 A 
ATOM     13  C   UNL     1       3.343   1.186  -3.721  0.00  0.00    +0.010 A 
ATOM     14  C   UNL     1       3.911   2.395  -3.464  0.00  0.00    +0.001 A 
ATOM     15  C   UNL     1       5.088   2.836  -4.075  0.00  0.00    +0.002 A 
ATOM     16  C   UNL     1       5.792   2.124  -4.991  0.00  0.00    +0.026 A 
ATOM     17  C   UNL     1       5.290   0.839  -5.348  0.00  0.00    +0.043 A 
ATOM     18  N   UNL     1       5.748  -0.040  -6.212  0.00  0.00    -0.375 N 
ATOM     19  C   UNL     1       5.411  -3.500  -7.019  0.00  0.00    +0.044 C 
ATOM     20  H   UNL     1       6.557   0.038  -6.742  0.00  0.00    +0.160 HD
ENDROOT
BRANCH   1  24
ATOM     21  C   UNL     1       0.707  -0.490  -1.238  0.00  0.00    -0.048 A 
ATOM     22  C   UNL     1      -0.011  -0.719  -2.397  0.00  0.00    +0.004 A 
ATOM     23  C   UNL     1       0.636  -1.164  -3.534  0.00  0.00    +0.004 A 
ATOM     24  C   UNL     1       2.002  -1.381  -3.513  0.00  0.00    -0.039 A 
ATOM     25  C   UNL     1       2.720  -1.152  -2.354  0.00  0.00    +0.004 A 
ATOM     26  C   UNL     1       2.073  -0.702  -1.218  0.00  0.00    +0.004 A 
BRANCH  21  28
ATOM     27  C   UNL     1      -0.019   1.526   0.010  0.00  0.00    +0.009 C 
ATOM     28  C   UNL     1       0.002  -0.004   0.002  0.00  0.00    +0.032 C 
ENDBRANCH  21  28
ENDBRANCH   1  24
BRANCH   6  29
ATOM     29  C   UNL     1       8.200  -2.767  -3.442  0.00  0.00    +0.087 A 
ATOM     30  C   UNL     1       9.055  -3.857  -3.517  0.00  0.00    +0.028 A 
ATOM     31  C   UNL     1      10.219  -3.875  -2.772  0.00  0.00    +0.002 A 
ATOM     32  C   UNL     1      10.534  -2.808  -1.951  0.00  0.00    +0.004 A 
ATOM     33  C   UNL     1       9.688  -1.718  -1.871  0.00  0.00    +0.047 A 
ATOM     34  C   UNL     1       8.521  -1.691  -2.619  0.00  0.00    +0.142 A 
BRANCH  34  35
ATOM     35  O   UNL     1       7.690  -0.617  -2.545  0.00  0.00    -0.490 OA
BRANCH  35  36
ATOM     36  C   UNL     1       8.084   0.450  -1.681  0.00  0.00    +0.226 C 
ATOM     37  C   UNL     1       7.032   1.560  -1.730  0.00  0.00    +0.048 C 
ENDBRANCH  35  36
ENDBRANCH  34  35
ENDBRANCH   6  29
TORSDOF 5
