REMARK  Name = ZINC63349987
REMARK  6 active torsions:
REMARK  status: ('A' for Active; 'I' for Inactive)
REMARK    1  A    between atoms: C_1  and  O_2
REMARK    2  A    between atoms: O_2  and  C_3
REMARK    3  A    between atoms: C_10  and  C_18
REMARK    4  A    between atoms: C_23  and  O_24
REMARK    5  A    between atoms: O_24  and  C_25
REMARK    6  A    between atoms: C_25  and  C_26
REMARK                            x       y       z     vdW  Elec       q    Type
REMARK                         _______ _______ _______ _____ _____    ______ ____
ROOT
ATOM      1  C   UNL     1      -0.345  -1.484   0.281  0.00  0.00    +0.121 A 
ATOM      2  C   UNL     1      -1.339  -0.499   0.142  0.00  0.00    +0.047 A 
ATOM      3  C   UNL     1      -2.650  -0.803   0.031  0.00  0.00    +0.029 A 
ATOM      4  C   UNL     1      -3.079  -2.204   0.053  0.00  0.00    +0.043 A 
ATOM      5  N   UNL     1      -4.268  -2.758  -0.013  0.00  0.00    -0.376 N 
ATOM      6  C   UNL     1      -4.102  -4.207  -0.038  0.00  0.00    +0.128 C 
ATOM      7  C   UNL     1      -4.875  -4.908   1.083  0.00  0.00    +0.114 C 
ATOM      8  N   UNL     1      -4.419  -6.306   1.155  0.00  0.00    -0.307 NA
ATOM      9  C   UNL     1      -3.027  -6.438   1.595  0.00  0.00    +0.086 C 
ATOM     10  C   UNL     1      -2.082  -5.821   0.547  0.00  0.00    +0.048 C 
ATOM     11  C   UNL     1      -2.623  -4.446   0.220  0.00  0.00    -0.035 C 
ATOM     12  C   UNL     1      -2.032  -3.246   0.209  0.00  0.00    +0.003 A 
ATOM     13  C   UNL     1      -0.635  -2.806   0.311  0.00  0.00    +0.055 A 
ATOM     14  H   UNL     1      -5.035  -6.857   1.734  0.00  0.00    +0.123 HD
ATOM     15  H   UNL     1      -5.114  -2.283  -0.040  0.00  0.00    +0.160 HD
ENDROOT
BRANCH   7  16
ATOM     16  C   UNL     1      -4.607  -4.217   2.394  0.00  0.00    +0.014 A 
ATOM     17  C   UNL     1      -3.306  -3.993   2.804  0.00  0.00    +0.024 A 
ATOM     18  C   UNL     1      -3.059  -3.358   4.008  0.00  0.00    +0.018 A 
ATOM     19  C   UNL     1      -4.114  -2.946   4.804  0.00  0.00    +0.019 A 
ATOM     20  C   UNL     1      -5.415  -3.168   4.398  0.00  0.00    +0.047 A 
ATOM     21  C   UNL     1      -5.665  -3.800   3.188  0.00  0.00    +0.126 A 
ATOM     22 BR   UNL     1      -1.279  -3.053   4.567  0.00  0.00    -0.050 Br
BRANCH  21  23
ATOM     23  O   UNL     1      -6.945  -4.015   2.784  0.00  0.00    -0.486 OA
BRANCH  23  24
ATOM     24  C   UNL     1      -7.984  -3.559   3.653  0.00  0.00    +0.284 C 
BRANCH  24  25
ATOM     25  C   UNL     1      -9.324  -3.882   3.044  0.00  0.00    +0.078 A 
ATOM     26  C   UNL     1      -9.383  -4.531   1.825  0.00  0.00    +0.027 A 
ATOM     27  C   UNL     1     -10.621  -4.824   1.274  0.00  0.00    +0.003 A 
ATOM     28  C   UNL     1     -11.759  -4.450   1.973  0.00  0.00    +0.020 A 
ATOM     29  C   UNL     1     -11.622  -3.804   3.187  0.00  0.00    +0.111 A 
ATOM     30  N   UNL     1     -10.428  -3.547   3.683  0.00  0.00    -0.256 NA
ENDBRANCH  24  25
ENDBRANCH  23  24
ENDBRANCH  21  23
ENDBRANCH   7  16
BRANCH   1  32
ATOM     31  C   UNL     1       1.215   0.310   0.345  0.00  0.00    +0.277 C 
ATOM     32  O   UNL     1       0.954  -1.095   0.382  0.00  0.00    -0.495 OA
ENDBRANCH   1  32
TORSDOF 5
