REMARK  Name = ZINC35698577
REMARK  10 active torsions:
REMARK  status: ('A' for Active; 'I' for Inactive)
REMARK    1  A    between atoms: C_1  and  C_2
REMARK    2  A    between atoms: C_2  and  C_4
REMARK    3  A    between atoms: C_2  and  N_10
REMARK    4  A    between atoms: C_11  and  C_13
REMARK    5  A    between atoms: C_16  and  C_18
REMARK    6  A    between atoms: C_18  and  N_19
REMARK    7  A    between atoms: N_19  and  C_20
REMARK    8  A    between atoms: N_19  and  C_27
REMARK    9  A    between atoms: C_20  and  C_21
REMARK   10  A    between atoms: C_27  and  C_28
REMARK                            x       y       z     vdW  Elec       q    Type
REMARK                         _______ _______ _______ _____ _____    ______ ____
ROOT
ATOM      1  C   UNL     1      -6.545  -2.298   0.172  0.00  0.00    +0.020 C 
ENDROOT
BRANCH   1   5
ATOM      2  C   UNL     1      -8.695  -3.054  -2.644  0.00  0.00    +0.163 A 
ATOM      3  C   UNL     1      -9.021  -4.075  -1.806  0.00  0.00    +0.230 A 
ATOM      4  O   UNL     1      -8.284  -3.921  -0.695  0.00  0.00    -0.449 OA
ATOM      5  C   UNL     1      -7.521  -2.829  -0.846  0.00  0.00    +0.179 A 
ATOM      6  N   UNL     1      -7.753  -2.302  -2.011  0.00  0.00    -0.210 NA
BRANCH   2   8
ATOM      7  N   UNL     1      -8.762  -1.814  -4.749  0.00  0.00    -0.303 N 
ATOM      8  C   UNL     1      -9.252  -2.812  -3.987  0.00  0.00    +0.266 C 
ATOM      9  O   UNL     1     -10.153  -3.512  -4.407  0.00  0.00    -0.268 OA
ATOM     10  H   UNL     1      -8.096  -1.209  -4.387  0.00  0.00    +0.150 HD
BRANCH   7  12
ATOM     11  C   UNL     1     -10.522  -0.812  -6.121  0.00  0.00    +0.033 C 
ATOM     12  C   UNL     1      -9.237  -1.642  -6.125  0.00  0.00    +0.100 C 
BRANCH  12  13
ATOM     13  C   UNL     1      -8.183  -0.933  -6.935  0.00  0.00    -0.027 A 
ATOM     14  C   UNL     1      -7.463   0.106  -6.375  0.00  0.00    +0.005 A 
ATOM     15  C   UNL     1      -6.496   0.757  -7.118  0.00  0.00    +0.000 A 
ATOM     16  C   UNL     1      -6.249   0.369  -8.421  0.00  0.00    +0.000 A 
ATOM     17  C   UNL     1      -6.968  -0.671  -8.982  0.00  0.00    +0.000 A 
ATOM     18  C   UNL     1      -7.932  -1.324  -8.237  0.00  0.00    +0.005 A 
ENDBRANCH  12  13
ENDBRANCH   7  12
ENDBRANCH   2   8
ENDBRANCH   1   5
BRANCH   1  19
ATOM     19  N   UNL     1      -7.241  -1.382   1.086  0.00  0.00    +0.391 N 
ATOM     20  H   UNL     1      -7.708  -0.664   0.552  0.00  0.00    -0.080 HD
BRANCH  19  21
ATOM     21  C   UNL     1      -6.266  -0.761   1.993  0.00  0.00    -0.042 C 
BRANCH  21  22
ATOM     22  C   UNL     1      -5.322   0.106   1.199  0.00  0.00    -0.064 A 
ATOM     23  C   UNL     1      -4.102  -0.397   0.788  0.00  0.00    +0.002 A 
ATOM     24  C   UNL     1      -3.237   0.397   0.060  0.00  0.00    +0.000 A 
ATOM     25  C   UNL     1      -3.592   1.695  -0.258  0.00  0.00    +0.000 A 
ATOM     26  C   UNL     1      -4.812   2.198   0.152  0.00  0.00    +0.000 A 
ATOM     27  C   UNL     1      -5.680   1.402   0.877  0.00  0.00    +0.002 A 
ENDBRANCH  21  22
ENDBRANCH  19  21
BRANCH  19  28
ATOM     28  C   UNL     1      -8.231  -2.131   1.871  0.00  0.00    -0.042 C 
BRANCH  28  29
ATOM     29  C   UNL     1      -9.028  -1.174   2.719  0.00  0.00    -0.062 A 
ATOM     30  C   UNL     1      -8.596  -0.854   3.992  0.00  0.00    +0.003 A 
ATOM     31  C   UNL     1      -9.326   0.024   4.771  0.00  0.00    +0.021 A 
ATOM     32  C   UNL     1     -10.491   0.582   4.276  0.00  0.00    +0.059 A 
ATOM     33  C   UNL     1     -10.925   0.262   3.001  0.00  0.00    +0.059 A 
ATOM     34  C   UNL     1     -10.189  -0.613   2.221  0.00  0.00    +0.023 A 
ATOM     35 CL   UNL     1     -12.387   0.961   2.379  0.00  0.00    -0.082 Cl
ATOM     36 CL   UNL     1     -11.410   1.683   5.254  0.00  0.00    -0.082 Cl
ENDBRANCH  28  29
ENDBRANCH  19  28
ENDBRANCH   1  19
TORSDOF 9
