REMARK  Name = ZINC02755746
REMARK  5 active torsions:
REMARK  status: ('A' for Active; 'I' for Inactive)
REMARK    1  A    between atoms: C_4  and  C_7
REMARK    2  A    between atoms: C_10  and  C_33
REMARK    3  A    between atoms: C_14  and  C_17
REMARK    4  A    between atoms: N_19  and  C_20
REMARK    5  A    between atoms: C_21  and  C_30
REMARK                            x       y       z     vdW  Elec       q    Type
REMARK                         _______ _______ _______ _____ _____    ______ ____
ROOT
ATOM      1  C   UNL     1       3.711  -0.707  -0.038  0.00  0.00    +0.104 C 
ATOM      2  C   UNL     1       4.048  -1.193   1.377  0.00  0.00    +0.063 C 
ATOM      3  C   UNL     1       5.411  -1.895   1.373  0.00  0.00    +0.215 C 
ATOM      4  N   UNL     1       5.436  -2.878   0.285  0.00  0.00    -0.238 N 
ATOM      5  C   UNL     1       4.587  -2.851  -0.770  0.00  0.00    +0.130 A 
ATOM      6  C   UNL     1       4.899  -3.922  -1.585  0.00  0.00    +0.096 A 
ATOM      7  C   UNL     1       5.983  -4.600  -0.971  0.00  0.00    +0.149 A 
ATOM      8  N   UNL     1       6.287  -3.971   0.131  0.00  0.00    -0.177 NA
ATOM      9  N   UNL     1       3.612  -1.880  -0.928  0.00  0.00    -0.322 N 
ATOM     10  H   UNL     1       2.902  -1.966  -1.585  0.00  0.00    +0.148 HD
ENDROOT
BRANCH   1  14
ATOM     11  C   UNL     1      -0.017   1.378   0.010  0.00  0.00    +0.000 A 
ATOM     12  C   UNL     1       1.171   2.086   0.002  0.00  0.00    +0.000 A 
ATOM     13  C   UNL     1       2.377   1.411  -0.013  0.00  0.00    +0.005 A 
ATOM     14  C   UNL     1       2.396   0.029  -0.020  0.00  0.00    -0.027 A 
ATOM     15  C   UNL     1       1.208  -0.679  -0.012  0.00  0.00    +0.005 A 
ATOM     16  C   UNL     1       0.002  -0.004   0.002  0.00  0.00    +0.000 A 
ENDBRANCH   1  14
BRANCH   6  17
ATOM     17  C   UNL     1       4.237  -4.288  -2.843  0.00  0.00    +0.253 C 
ATOM     18  O   UNL     1       3.313  -3.617  -3.261  0.00  0.00    -0.270 OA
ATOM     19  N   UNL     1       4.654  -5.367  -3.534  0.00  0.00    -0.275 N 
ATOM     20  H   UNL     1       5.391  -5.902  -3.201  0.00  0.00    +0.156 HD
BRANCH  19  21
ATOM     21  C   UNL     1       4.028  -5.713  -4.723  0.00  0.00    +0.090 A 
ATOM     22  C   UNL     1       4.314  -6.780  -5.557  0.00  0.00    +0.084 A 
ATOM     23  C   UNL     1       3.506  -6.927  -6.758  0.00  0.00    -0.018 A 
ATOM     24  C   UNL     1       2.563  -5.972  -6.904  0.00  0.00    -0.004 A 
ATOM     25  S   UNL     1       2.746  -4.937  -5.478  0.00  0.00    -0.077 S 
ATOM     26  C   UNL     1       1.584  -5.817  -8.025  0.00  0.00    +0.043 C 
ATOM     27  C   UNL     1       0.900  -7.165  -8.287  0.00  0.00    +0.005 C 
ATOM     28  C   UNL     1       1.728  -7.941  -9.307  0.00  0.00    +0.001 C 
ATOM     29  C   UNL     1       3.212  -7.623  -9.134  0.00  0.00    +0.005 C 
ATOM     30  C   UNL     1       3.694  -8.062  -7.755  0.00  0.00    +0.037 C 
BRANCH  22  31
ATOM     31  C   UNL     1       5.365  -7.703  -5.249  0.00  0.00    +0.102 C 
ATOM     32  N   UNL     1       6.198  -8.435  -5.005  0.00  0.00    -0.191 NA
ENDBRANCH  22  31
ENDBRANCH  19  21
ENDBRANCH   6  17
BRANCH   3  33
ATOM     33  C   UNL     1       5.626  -2.603   2.712  0.00  0.00    +0.412 C 
ATOM     34  F   UNL     1       4.615  -3.551   2.906  0.00  0.00    -0.168 F 
ATOM     35  F   UNL     1       6.870  -3.243   2.707  0.00  0.00    -0.168 F 
ATOM     36  F   UNL     1       5.589  -1.664   3.748  0.00  0.00    -0.168 F 
ENDBRANCH   3  33
TORSDOF 5
