REMARK  Name = ZINC06408972
REMARK  12 active torsions:
REMARK  status: ('A' for Active; 'I' for Inactive)
REMARK    1  A    between atoms: C_1  and  C_2
REMARK    2  A    between atoms: C_9  and  C_14
REMARK    3  A    between atoms: C_14  and  C_16
REMARK    4  A    between atoms: C_14  and  N_66
REMARK    5  A    between atoms: N_20  and  C_21
REMARK    6  A    between atoms: C_21  and  C_22
REMARK    7  A    between atoms: C_21  and  C_23
REMARK    8  A    between atoms: C_21  and  C_24
REMARK    9  A    between atoms: C_25  and  C_26
REMARK   10  A    between atoms: C_25  and  N_66
REMARK   11  A    between atoms: C_32  and  C_33
REMARK   12  A    between atoms: C_32  and  N_66
REMARK                            x       y       z     vdW  Elec       q    Type
REMARK                         _______ _______ _______ _____ _____    ______ ____
ROOT
ATOM      1  C   UNL     1       2.878   1.539  -0.574  0.00  0.00    +0.040 C 
ENDROOT
BRANCH   1  10
ATOM      2  C   UNL     1      -4.197  -0.442   0.709  0.00  0.00    +0.044 C 
ATOM      3  C   UNL     1      -3.183   0.510   0.129  0.00  0.00    -0.050 A 
ATOM      4  C   UNL     1      -3.613   1.648  -0.542  0.00  0.00    +0.005 A 
ATOM      5  C   UNL     1      -2.703   2.537  -1.072  0.00  0.00    +0.026 A 
ATOM      6  C   UNL     1      -1.340   2.288  -0.947  0.00  0.00    +0.049 A 
ATOM      7  C   UNL     1      -0.909   1.132  -0.270  0.00  0.00    -0.001 A 
ATOM      8  C   UNL     1      -1.850   0.248   0.268  0.00  0.00    +0.013 A 
ATOM      9  C   UNL     1       0.528   0.881  -0.139  0.00  0.00    +0.017 A 
ATOM     10  C   UNL     1       1.393   1.770  -0.686  0.00  0.00    +0.011 A 
ATOM     11  C   UNL     1       0.908   2.912  -1.359  0.00  0.00    +0.251 A 
ATOM     12  O   UNL     1       1.703   3.699  -1.843  0.00  0.00    -0.268 OA
ATOM     13  N   UNL     1      -0.409   3.153  -1.480  0.00  0.00    -0.322 N 
ATOM     14  H   UNL     1      -0.708   3.948  -1.949  0.00  0.00    +0.169 HD
ENDBRANCH   1  10
BRANCH   1  15
ATOM     15  C   UNL     1       3.477   2.563   0.355  0.00  0.00    +0.143 A 
ATOM     16  N   UNL     1       3.509   3.861   0.172  0.00  0.00    -0.115 NA
ATOM     17  N   UNL     1       4.104   4.391   1.185  0.00  0.00    -0.023 NA
ATOM     18  N   UNL     1       4.452   3.465   2.009  0.00  0.00    -0.043 NA
ATOM     19  N   UNL     1       4.079   2.324   1.535  0.00  0.00    -0.225 N 
BRANCH  19  20
ATOM     20  C   UNL     1       4.276   1.015   2.162  0.00  0.00    +0.059 C 
ATOM     21  C   UNL     1       5.111   0.127   1.237  0.00  0.00    +0.036 C 
ATOM     22  C   UNL     1       5.006   1.192   3.494  0.00  0.00    +0.036 C 
ATOM     23  C   UNL     1       2.917   0.358   2.408  0.00  0.00    +0.036 C 
ENDBRANCH  19  20
ENDBRANCH   1  15
BRANCH   1  24
ATOM     24  N   UNL     1       3.484   1.685  -1.914  0.00  0.00    +0.395 N 
ATOM     25  H   UNL     1       3.105   2.528  -2.361  0.00  0.00    -0.079 HD
BRANCH  24  26
ATOM     26  C   UNL     1       4.950   1.823  -1.793  0.00  0.00    -0.041 C 
BRANCH  26  27
ATOM     27  C   UNL     1       5.516   2.188  -3.141  0.00  0.00    -0.064 A 
ATOM     28  C   UNL     1       5.929   1.196  -4.010  0.00  0.00    +0.002 A 
ATOM     29  C   UNL     1       6.444   1.531  -5.248  0.00  0.00    +0.000 A 
ATOM     30  C   UNL     1       6.556   2.860  -5.614  0.00  0.00    +0.000 A 
ATOM     31  C   UNL     1       6.149   3.853  -4.742  0.00  0.00    +0.000 A 
ATOM     32  C   UNL     1       5.629   3.517  -3.506  0.00  0.00    +0.002 A 
ENDBRANCH  26  27
ENDBRANCH  24  26
BRANCH  24  33
ATOM     33  C   UNL     1       3.154   0.510  -2.748  0.00  0.00    -0.034 C 
BRANCH  33  34
ATOM     34  C   UNL     1       1.756   0.677  -3.285  0.00  0.00    -0.027 A 
ATOM     35  C   UNL     1       1.311   1.499  -4.266  0.00  0.00    +0.009 A 
ATOM     36  C   UNL     1      -0.031   1.484  -4.597  0.00  0.00    +0.008 A 
ATOM     37  C   UNL     1      -0.863   0.646  -3.931  0.00  0.00    +0.045 A 
ATOM     38  S   UNL     1       0.257  -0.162  -2.799  0.00  0.00    -0.103 S 
ENDBRANCH  33  34
ENDBRANCH  24  33
ENDBRANCH   1  24
TORSDOF 8
