REMARK  Name = ZINC39325122
REMARK  11 active torsions:
REMARK  status: ('A' for Active; 'I' for Inactive)
REMARK    1  A    between atoms: C_1  and  C_2
REMARK    2  A    between atoms: C_2  and  O_3
REMARK    3  A    between atoms: O_3  and  C_4
REMARK    4  A    between atoms: C_11  and  C_16
REMARK    5  A    between atoms: C_16  and  N_17
REMARK    6  A    between atoms: N_17  and  C_18
REMARK    7  A    between atoms: N_17  and  S_24
REMARK    8  A    between atoms: C_18  and  C_19
REMARK    9  A    between atoms: S_24  and  C_27
REMARK   10  A    between atoms: C_30  and  C_33
REMARK   11  A    between atoms: C_33  and  C_35
REMARK                            x       y       z     vdW  Elec       q    Type
REMARK                         _______ _______ _______ _____ _____    ______ ____
ROOT
ATOM      1  N   UNL     1       3.738  -7.683  -4.172  0.00  0.00    -0.168 NA
ENDROOT
BRANCH   1   2
ATOM      2  S   UNL     1       3.769  -8.728  -2.888  0.00  0.00    +0.061 S 
ATOM      3  O   UNL     1       4.477  -9.882  -3.320  0.00  0.00    -0.153 OA
ATOM      4  O   UNL     1       4.168  -7.968  -1.756  0.00  0.00    -0.153 OA
BRANCH   2   5
ATOM      5  C   UNL     1       2.108  -9.238  -2.592  0.00  0.00    +0.106 A 
ATOM      6  C   UNL     1       1.355  -8.602  -1.621  0.00  0.00    +0.029 A 
ATOM      7  C   UNL     1       0.056  -8.996  -1.383  0.00  0.00    +0.013 A 
ATOM      8  C   UNL     1      -0.502 -10.041  -2.127  0.00  0.00    +0.017 A 
ATOM      9  C   UNL     1       0.265 -10.678  -3.108  0.00  0.00    +0.013 A 
ATOM     10  C   UNL     1       1.562 -10.269  -3.337  0.00  0.00    +0.029 A 
BRANCH   8  11
ATOM     11  C   UNL     1      -1.888 -10.468  -1.879  0.00  0.00    +0.160 C 
ATOM     12  O   UNL     1      -2.550  -9.913  -1.028  0.00  0.00    -0.292 OA
ATOM     13  C   UNL     1      -2.485 -11.594  -2.684  0.00  0.00    +0.091 C 
ENDBRANCH   8  11
ENDBRANCH   2   5
ENDBRANCH   1   2
BRANCH   1  14
ATOM     14  C   UNL     1       3.711  -6.237  -3.939  0.00  0.00    +0.126 C 
BRANCH  14  22
ATOM     15  C   UNL     1       0.524  -1.453  -2.917  0.00  0.00    +0.121 A 
ATOM     16  C   UNL     1      -0.517  -2.208  -2.365  0.00  0.00    +0.047 A 
ATOM     17  C   UNL     1      -0.579  -3.560  -2.477  0.00  0.00    +0.027 A 
ATOM     18  C   UNL     1       0.423  -4.268  -3.167  0.00  0.00    +0.041 A 
ATOM     19  N   UNL     1       0.349  -5.595  -3.269  0.00  0.00    -0.284 N 
ATOM     20  C   UNL     1       1.254  -6.322  -3.902  0.00  0.00    +0.225 C 
ATOM     21  O   UNL     1       1.132  -7.531  -3.962  0.00  0.00    -0.275 OA
ATOM     22  C   UNL     1       2.440  -5.645  -4.551  0.00  0.00    +0.114 C 
ATOM     23  C   UNL     1       2.528  -4.136  -4.439  0.00  0.00    -0.003 C 
ATOM     24  C   UNL     1       1.532  -3.500  -3.760  0.00  0.00    -0.004 A 
ATOM     25  C   UNL     1       1.537  -2.045  -3.609  0.00  0.00    +0.055 A 
ATOM     26  H   UNL     1      -0.404  -6.049  -2.859  0.00  0.00    +0.155 HD
BRANCH  15  27
ATOM     27  O   UNL     1       0.521  -0.102  -2.766  0.00  0.00    -0.492 OA
BRANCH  27  29
ATOM     28  C   UNL     1      -0.398   1.985  -1.967  0.00  0.00    +0.048 C 
ATOM     29  C   UNL     1      -0.566   0.466  -2.032  0.00  0.00    +0.225 C 
ENDBRANCH  27  29
ENDBRANCH  15  27
ENDBRANCH  14  22
ENDBRANCH   1  14
BRANCH   1  30
ATOM     30  C   UNL     1       3.739  -8.204  -5.541  0.00  0.00    +0.183 C 
BRANCH  30  31
ATOM     31  C   UNL     1       5.151  -8.239  -6.065  0.00  0.00    +0.120 A 
ATOM     32  C   UNL     1       6.005  -9.273  -5.957  0.00  0.00    +0.046 A 
ATOM     33  C   UNL     1       7.210  -8.876  -6.583  0.00  0.00    +0.041 A 
ATOM     34  C   UNL     1       7.020  -7.624  -7.035  0.00  0.00    +0.195 A 
ATOM     35  O   UNL     1       5.769  -7.245  -6.724  0.00  0.00    -0.466 OA
ENDBRANCH  30  31
ENDBRANCH   1  30
TORSDOF 9
