REMARK  Name = ZINC64316038
REMARK  7 active torsions:
REMARK  status: ('A' for Active; 'I' for Inactive)
REMARK    1  A    between atoms: C_1  and  C_2
REMARK    2  A    between atoms: C_4  and  C_7
REMARK    3  A    between atoms: C_7  and  C_8
REMARK    4  A    between atoms: C_7  and  N_9
REMARK    5  A    between atoms: C_10  and  C_12
REMARK    6  A    between atoms: C_15  and  S_18
REMARK    7  A    between atoms: S_18  and  C_19
REMARK                            x       y       z     vdW  Elec       q    Type
REMARK                         _______ _______ _______ _____ _____    ______ ____
ROOT
ATOM      1  N   UNL     1       1.030  -4.187  -1.250  0.00  0.00    -0.300 N 
ATOM      2  C   UNL     1       1.586  -5.036  -2.136  0.00  0.00    +0.245 C 
ATOM      3  O   UNL     1       1.265  -4.988  -3.308  0.00  0.00    -0.270 OA
ATOM      4  H   UNL     1       1.286  -4.225  -0.315  0.00  0.00    +0.150 HD
ENDROOT
BRANCH   2   5
ATOM      5  C   UNL     1       2.585  -6.023  -1.685  0.00  0.00    +0.037 A 
ATOM      6  C   UNL     1       2.951  -6.083  -0.337  0.00  0.00    +0.014 A 
ATOM      7  C   UNL     1       3.880  -7.001   0.079  0.00  0.00    +0.016 A 
ATOM      8  C   UNL     1       4.459  -7.874  -0.840  0.00  0.00    +0.016 A 
ATOM      9  C   UNL     1       4.096  -7.816  -2.183  0.00  0.00    +0.016 A 
ATOM     10  C   UNL     1       3.163  -6.904  -2.604  0.00  0.00    +0.014 A 
BRANCH   8  11
ATOM     11  S   UNL     1       5.653  -9.052  -0.301  0.00  0.00    -0.016 S 
BRANCH  11  12
ATOM     12  C   UNL     1       6.107  -9.941  -1.816  0.00  0.00    +0.448 C 
ATOM     13  F   UNL     1       6.638  -9.038  -2.744  0.00  0.00    -0.160 F 
ATOM     14  F   UNL     1       7.063 -10.917  -1.516  0.00  0.00    -0.160 F 
ATOM     15  F   UNL     1       4.971 -10.551  -2.357  0.00  0.00    -0.160 F 
ENDBRANCH  11  12
ENDBRANCH   8  11
ENDBRANCH   2   5
BRANCH   1  16
ATOM     16  C   UNL     1       0.038  -3.206  -1.697  0.00  0.00    +0.159 C 
ATOM     17  C   UNL     1      -1.347  -3.856  -1.721  0.00  0.00    +0.038 C 
BRANCH  16  21
ATOM     18  C   UNL     1      -0.018   1.503   0.010  0.00  0.00    +0.091 C 
ATOM     19  C   UNL     1       0.002  -0.004   0.002  0.00  0.00    +0.169 A 
ATOM     20  N   UNL     1       0.008  -0.776  -1.091  0.00  0.00    -0.195 NA
ATOM     21  C   UNL     1       0.026  -2.034  -0.750  0.00  0.00    +0.247 A 
ATOM     22  O   UNL     1       0.033  -2.107   0.587  0.00  0.00    -0.336 OA
ATOM     23  N   UNL     1       0.023  -0.767   1.057  0.00  0.00    -0.062 NA
ENDBRANCH  16  21
ENDBRANCH   1  16
TORSDOF 5
