REMARK  Name = ZINC14359670
REMARK  10 active torsions:
REMARK  status: ('A' for Active; 'I' for Inactive)
REMARK    1  A    between atoms: C_1  and  C_2
REMARK    2  A    between atoms: C_2  and  C_3
REMARK    3  A    between atoms: C_2  and  C_4
REMARK    4  A    between atoms: C_4  and  C_5
REMARK    5  A    between atoms: N_9  and  C_13
REMARK    6  A    between atoms: C_13  and  C_14
REMARK    7  A    between atoms: C_17  and  C_32
REMARK    8  A    between atoms: C_20  and  C_22
REMARK    9  A    between atoms: C_35  and  O_38
REMARK   10  A    between atoms: O_38  and  C_39
REMARK                            x       y       z     vdW  Elec       q    Type
REMARK                         _______ _______ _______ _____ _____    ______ ____
ROOT
ATOM      1  C   UNL     1      -1.624  -1.124  -1.408  0.00  0.00    +0.253 C 
ATOM      2  O   UNL     1      -0.988  -0.668  -2.334  0.00  0.00    -0.272 OA
ATOM      3  N   UNL     1      -2.713  -1.882  -1.648  0.00  0.00    -0.184 N 
ATOM      4  C   UNL     1      -3.240  -2.228  -2.978  0.00  0.00    +0.137 C 
ATOM      5  C   UNL     1      -4.472  -3.099  -2.663  0.00  0.00    +0.087 C 
ATOM      6  C   UNL     1      -4.510  -3.144  -1.152  0.00  0.00    +0.069 C 
ATOM      7  N   UNL     1      -3.526  -2.462  -0.676  0.00  0.00    -0.181 NA
ENDROOT
BRANCH   6   8
ATOM      8  C   UNL     1      -5.519  -3.857  -0.348  0.00  0.00    -0.002 A 
ATOM      9  C   UNL     1      -6.549  -4.569  -0.990  0.00  0.00    +0.010 A 
ATOM     10  C   UNL     1      -7.489  -5.234  -0.271  0.00  0.00    +0.009 A 
ATOM     11  C   UNL     1      -7.441  -5.218   1.135  0.00  0.00    -0.018 A 
ATOM     12  C   UNL     1      -8.401  -5.900   1.900  0.00  0.00    +0.008 A 
ATOM     13  C   UNL     1      -8.329  -5.868   3.259  0.00  0.00    +0.001 A 
ATOM     14  C   UNL     1      -7.315  -5.166   3.908  0.00  0.00    +0.001 A 
ATOM     15  C   UNL     1      -6.366  -4.494   3.201  0.00  0.00    +0.008 A 
ATOM     16  C   UNL     1      -6.408  -4.504   1.795  0.00  0.00    -0.017 A 
ATOM     17  C   UNL     1      -5.442  -3.827   1.036  0.00  0.00    +0.018 A 
ENDBRANCH   6   8
BRANCH   4  18
ATOM     18  C   UNL     1      -2.223  -3.015  -3.763  0.00  0.00    -0.024 A 
ATOM     19  C   UNL     1      -1.436  -3.956  -3.125  0.00  0.00    +0.009 A 
ATOM     20  C   UNL     1      -0.507  -4.683  -3.844  0.00  0.00    +0.046 A 
ATOM     21  C   UNL     1      -0.356  -4.460  -5.205  0.00  0.00    +0.120 A 
ATOM     22  C   UNL     1      -1.143  -3.511  -5.841  0.00  0.00    +0.046 A 
ATOM     23  C   UNL     1      -2.074  -2.791  -5.119  0.00  0.00    +0.009 A 
BRANCH  21  24
ATOM     24  O   UNL     1       0.561  -5.171  -5.913  0.00  0.00    -0.495 OA
ATOM     25  C   UNL     1       1.336  -6.131  -5.192  0.00  0.00    +0.277 C 
ENDBRANCH  21  24
ENDBRANCH   4  18
BRANCH   1  26
ATOM     26  C   UNL     1      -1.199  -0.844   0.010  0.00  0.00    +0.215 C 
BRANCH  26  30
ATOM     27  C   UNL     1       2.164   0.734  -0.015  0.00  0.00    +0.161 C 
ATOM     28  C   UNL     1       1.261  -0.484  -0.013  0.00  0.00    +0.244 C 
ATOM     29  O   UNL     1       1.601  -1.648  -0.021  0.00  0.00    -0.273 OA
ATOM     30  N   UNL     1       0.002  -0.004   0.002  0.00  0.00    -0.216 N 
ATOM     31  C   UNL     1      -0.016   1.334   0.009  0.00  0.00    +0.310 C 
ATOM     32  O   UNL     1      -1.035   1.996   0.018  0.00  0.00    -0.252 OA
ATOM     33  N   UNL     1       1.220   1.865   0.000  0.00  0.00    -0.288 N 
ATOM     34  H   UNL     1       1.446   2.808   0.003  0.00  0.00    +0.151 HD
BRANCH  27  35
ATOM     35  C   UNL     1       3.022   0.765  -1.281  0.00  0.00    +0.034 C 
BRANCH  35  37
ATOM     36  C   UNL     1       4.990   1.690  -0.051  0.00  0.00    +0.007 C 
ATOM     37  C   UNL     1       4.009   1.932  -1.199  0.00  0.00    -0.015 C 
ATOM     38  C   UNL     1       4.780   2.040  -2.516  0.00  0.00    +0.007 C 
ENDBRANCH  35  37
ENDBRANCH  27  35
ENDBRANCH  26  30
ENDBRANCH   1  26
TORSDOF 7
