REMARK  Name = ZINC22701266
REMARK  17 active torsions:
REMARK  status: ('A' for Active; 'I' for Inactive)
REMARK    1  A    between atoms: C_1  and  C_2
REMARK    2  A    between atoms: C_2  and  N_3
REMARK    3  A    between atoms: N_3  and  C_4
REMARK    4  A    between atoms: N_3  and  C_6
REMARK    5  A    between atoms: C_4  and  C_5
REMARK    6  A    between atoms: C_6  and  C_7
REMARK    7  A    between atoms: C_7  and  N_8
REMARK    8  A    between atoms: N_17  and  C_18
REMARK    9  A    between atoms: C_18  and  C_20
REMARK   10  A    between atoms: C_20  and  C_21
REMARK   11  A    between atoms: C_21  and  C_22
REMARK   12  A    between atoms: C_23  and  C_32
REMARK   13  A    between atoms: N_25  and  C_28
REMARK   14  A    between atoms: C_26  and  C_27
REMARK   15  A    between atoms: C_28  and  C_29
REMARK   16  A    between atoms: C_29  and  C_30
REMARK   17  A    between atoms: C_29  and  C_31
REMARK                            x       y       z     vdW  Elec       q    Type
REMARK                         _______ _______ _______ _____ _____    ______ ____
ROOT
ATOM      1  N   UNL     1      -2.325  -4.005   0.563  0.00  0.00    -0.314 N 
ATOM      2  C   UNL     1      -2.201  -4.931  -0.469  0.00  0.00    +0.068 A 
ATOM      3  C   UNL     1      -2.234  -4.817  -1.852  0.00  0.00    +0.028 A 
ATOM      4  C   UNL     1      -2.079  -5.942  -2.637  0.00  0.00    +0.002 A 
ATOM      5  C   UNL     1      -1.893  -7.183  -2.052  0.00  0.00    +0.002 A 
ATOM      6  C   UNL     1      -1.859  -7.306  -0.677  0.00  0.00    +0.028 A 
ATOM      7  C   UNL     1      -2.013  -6.182   0.122  0.00  0.00    +0.066 A 
ATOM      8  N   UNL     1      -2.025  -5.991   1.500  0.00  0.00    -0.326 N 
ATOM      9  C   UNL     1      -2.209  -4.667   1.744  0.00  0.00    +0.201 A 
ATOM     10  N   UNL     1      -2.270  -4.107   2.950  0.00  0.00    -0.147 NA
ATOM     11  H   UNL     1      -1.917  -6.683   2.170  0.00  0.00    +0.169 HD
ENDROOT
BRANCH  10  12
ATOM     12  C   UNL     1      -2.022  -4.835   4.034  0.00  0.00    +0.239 C 
ATOM     13  O   UNL     1      -1.650  -5.988   3.921  0.00  0.00    -0.274 OA
BRANCH  12  14
ATOM     14  C   UNL     1      -2.200  -4.233   5.404  0.00  0.00    +0.103 C 
BRANCH  14  15
ATOM     15  C   UNL     1      -1.851  -5.274   6.469  0.00  0.00    +0.048 C 
BRANCH  15  16
ATOM     16  C   UNL     1      -2.029  -4.671   7.838  0.00  0.00    -0.004 A 
ATOM     17  C   UNL     1      -1.052  -3.989   8.571  0.00  0.00    +0.063 A 
ATOM     18  N   UNL     1      -1.581  -3.616   9.708  0.00  0.00    -0.176 NA
ATOM     19  N   UNL     1      -2.913  -4.049   9.735  0.00  0.00    -0.268 N 
ATOM     20  C   UNL     1      -3.164  -4.690   8.574  0.00  0.00    +0.040 A 
ATOM     21  C   UNL     1      -4.475  -5.316   8.171  0.00  0.00    +0.065 C 
ATOM     22  C   UNL     1       0.364  -3.729   8.127  0.00  0.00    +0.068 C 
BRANCH  19  23
ATOM     23  C   UNL     1      -3.865  -3.840  10.828  0.00  0.00    +0.146 C 
BRANCH  23  24
ATOM     24  C   UNL     1      -4.614  -2.524  10.607  0.00  0.00    +0.004 C 
ATOM     25  C   UNL     1      -5.467  -2.630   9.341  0.00  0.00    +0.009 C 
ATOM     26  C   UNL     1      -5.518  -2.243  11.809  0.00  0.00    +0.009 C 
ENDBRANCH  23  24
ENDBRANCH  19  23
ENDBRANCH  15  16
ENDBRANCH  14  15
ENDBRANCH  12  14
ENDBRANCH  10  12
BRANCH   1  27
ATOM     27  C   UNL     1      -2.536  -2.565   0.403  0.00  0.00    +0.106 C 
BRANCH  27  28
ATOM     28  C   UNL     1      -1.182  -1.856   0.324  0.00  0.00    -0.057 C 
BRANCH  28  29
ATOM     29  N   UNL     1      -1.392  -0.430   0.039  0.00  0.00    +0.380 N 
ATOM     30  H   UNL     1      -1.933  -0.332  -0.807  0.00  0.00    -0.082 HD
BRANCH  29  32
ATOM     31  C   UNL     1      -2.441   1.645   0.807  0.00  0.00    -0.017 C 
ATOM     32  C   UNL     1      -2.113   0.192   1.157  0.00  0.00    -0.082 C 
ENDBRANCH  29  32
BRANCH  29  33
ATOM     33  C   UNL     1      -0.091   0.231  -0.133  0.00  0.00    -0.082 C 
ATOM     34  C   UNL     1       0.609  -0.336  -1.370  0.00  0.00    -0.017 C 
ENDBRANCH  29  33
ENDBRANCH  28  29
ENDBRANCH  27  28
ENDBRANCH   1  27
TORSDOF 11
