REMARK  Name = ZINC13831085
REMARK  5 active torsions:
REMARK  status: ('A' for Active; 'I' for Inactive)
REMARK    1  A    between atoms: C_3  and  C_32
REMARK    2  A    between atoms: C_6  and  C_7
REMARK    3  A    between atoms: C_10  and  C_24
REMARK    4  A    between atoms: C_13  and  C_15
REMARK    5  A    between atoms: C_29  and  O_30
REMARK                            x       y       z     vdW  Elec       q    Type
REMARK                         _______ _______ _______ _____ _____    ______ ____
ROOT
ATOM      1  C   UNL     1      -1.293  -0.775   0.011  0.00  0.00    +0.081 C 
ATOM      2  N   UNL     1      -1.096  -2.056  -0.677  0.00  0.00    +0.401 N 
ATOM      3  C   UNL     1      -0.859  -1.799  -2.107  0.00  0.00    -0.028 C 
ATOM      4  C   UNL     1      -2.161  -1.274  -2.723  0.00  0.00    +0.044 C 
ATOM      5  C   UNL     1      -2.721  -0.184  -1.851  0.00  0.00    +0.040 C 
ATOM      6  N   UNL     1      -2.325   0.014  -0.649  0.00  0.00    -0.299 NA
ATOM      7  H   UNL     1      -0.298  -2.532  -0.283  0.00  0.00    -0.081 HD
ATOM      8  H   UNL     1      -1.920  -2.628  -0.569  0.00  0.00    -0.081 HD
ENDROOT
BRANCH   5   9
ATOM      9  C   UNL     1      -3.769   0.693  -2.404  0.00  0.00    -0.001 A 
ATOM     10  C   UNL     1      -4.227   0.501  -3.710  0.00  0.00    +0.013 A 
ATOM     11  C   UNL     1      -5.207   1.322  -4.224  0.00  0.00    +0.050 A 
ATOM     12  C   UNL     1      -5.742   2.342  -3.449  0.00  0.00    +0.166 A 
ATOM     13  C   UNL     1      -5.289   2.539  -2.144  0.00  0.00    +0.167 A 
ATOM     14  C   UNL     1      -4.311   1.716  -1.621  0.00  0.00    +0.059 A 
ATOM     15  O   UNL     1      -5.967   3.594  -1.603  0.00  0.00    -0.453 OA
ATOM     16  C   UNL     1      -6.543   4.294  -2.721  0.00  0.00    +0.466 C 
ATOM     17  O   UNL     1      -6.702   3.271  -3.721  0.00  0.00    -0.453 OA
ENDBRANCH   5   9
BRANCH   3  18
ATOM     18  C   UNL     1      -0.451  -3.077  -2.793  0.00  0.00    -0.018 A 
ATOM     19  C   UNL     1      -0.833  -4.296  -2.267  0.00  0.00    +0.025 A 
ATOM     20  C   UNL     1      -0.459  -5.470  -2.896  0.00  0.00    +0.041 A 
ATOM     21  C   UNL     1       0.300  -5.426  -4.053  0.00  0.00    +0.023 A 
ATOM     22  C   UNL     1       0.684  -4.209  -4.581  0.00  0.00    +0.047 A 
ATOM     23  C   UNL     1       0.304  -3.030  -3.955  0.00  0.00    +0.119 A 
ATOM     24 CL   UNL     1      -0.940  -7.000  -2.233  0.00  0.00    -0.084 Cl
BRANCH  23  25
ATOM     25  O   UNL     1       0.676  -1.832  -4.477  0.00  0.00    -0.507 OA
ATOM     26  H   UNL     1       1.525  -1.506  -4.148  0.00  0.00    +0.292 HD
ENDBRANCH  23  25
ENDBRANCH   3  18
BRANCH   1  32
ATOM     27  C   UNL     1      -0.017   1.378   0.010  0.00  0.00    +0.004 A 
ATOM     28  C   UNL     1       1.171   2.086   0.002  0.00  0.00    +0.012 A 
ATOM     29  C   UNL     1       2.377   1.411  -0.013  0.00  0.00    +0.055 A 
ATOM     30  C   UNL     1       2.396   0.029  -0.020  0.00  0.00    +0.012 A 
ATOM     31  C   UNL     1       1.208  -0.679  -0.012  0.00  0.00    +0.004 A 
ATOM     32  C   UNL     1       0.002  -0.004   0.002  0.00  0.00    -0.040 A 
BRANCH  29  33
ATOM     33  C   UNL     1       3.672   2.182  -0.022  0.00  0.00    +0.417 C 
ATOM     34  F   UNL     1       4.086   2.414   1.294  0.00  0.00    -0.166 F 
ATOM     35  F   UNL     1       4.651   1.442  -0.695  0.00  0.00    -0.166 F 
ATOM     36  F   UNL     1       3.482   3.405  -0.674  0.00  0.00    -0.166 F 
ENDBRANCH  29  33
ENDBRANCH   1  32
TORSDOF 5
