REMARK  Name = ZINC25175084
REMARK  6 active torsions:
REMARK  status: ('A' for Active; 'I' for Inactive)
REMARK    1  A    between atoms: C_3  and  C_6
REMARK    2  A    between atoms: C_6  and  C_8
REMARK    3  A    between atoms: C_6  and  N_28
REMARK    4  A    between atoms: C_8  and  N_9
REMARK    5  A    between atoms: C_10  and  C_12
REMARK    6  A    between atoms: C_19  and  C_21
REMARK                            x       y       z     vdW  Elec       q    Type
REMARK                         _______ _______ _______ _____ _____    ______ ____
ROOT
ATOM      1  N   UNL     1      -1.226   2.056  -0.062  0.00  0.00    -0.316 N 
ATOM      2  C   UNL     1      -0.059   1.408  -0.246  0.00  0.00    +0.218 C 
ATOM      3  O   UNL     1      -0.058   0.226  -0.520  0.00  0.00    -0.275 OA
ATOM      4  H   UNL     1      -1.227   3.127   0.187  0.00  0.00    +0.149 HD
ENDROOT
BRANCH   2   5
ATOM      5  C   UNL     1       1.245   2.152  -0.116  0.00  0.00    +0.092 C 
ATOM      6  C   UNL     1       2.409   1.193  -0.374  0.00  0.00    +0.016 C 
ATOM      7  C   UNL     1       3.732   1.955  -0.276  0.00  0.00    +0.020 C 
ATOM      8  C   UNL     1       3.882   2.529   1.137  0.00  0.00    +0.108 C 
ATOM      9  N   UNL     1       2.695   3.337   1.448  0.00  0.00    -0.297 N 
ATOM     10  C   UNL     1       1.367   2.728   1.298  0.00  0.00    +0.120 C 
ATOM     11  C   UNL     1       2.823   4.613   1.862  0.00  0.00    +0.247 C 
ATOM     12  O   UNL     1       1.834   5.303   2.020  0.00  0.00    -0.270 OA
BRANCH  11  13
ATOM     13  C   UNL     1       4.165   5.174   2.125  0.00  0.00    +0.037 A 
ATOM     14  C   UNL     1       5.181   4.357   2.624  0.00  0.00    +0.014 A 
ATOM     15  C   UNL     1       6.432   4.885   2.862  0.00  0.00    +0.021 A 
ATOM     16  C   UNL     1       6.679   6.226   2.618  0.00  0.00    +0.041 A 
ATOM     17  C   UNL     1       5.674   7.043   2.128  0.00  0.00    +0.021 A 
ATOM     18  C   UNL     1       4.420   6.525   1.881  0.00  0.00    +0.014 A 
ATOM     19 CL   UNL     1       8.255   6.885   2.927  0.00  0.00    -0.084 Cl
ENDBRANCH  11  13
ENDBRANCH   2   5
BRANCH   1  20
ATOM     20  C   UNL     1      -2.494   1.333  -0.193  0.00  0.00    +0.096 C 
BRANCH  20  21
ATOM     21  C   UNL     1      -3.658   2.317  -0.062  0.00  0.00    +0.016 C 
BRANCH  21  22
ATOM     22  N   UNL     1      -3.521   3.074   1.189  0.00  0.00    +0.387 N 
ATOM     23  C   UNL     1      -3.348   2.170   2.334  0.00  0.00    -0.078 C 
ATOM     24  C   UNL     1      -3.064   2.990   3.594  0.00  0.00    -0.019 C 
ATOM     25  C   UNL     1      -4.232   3.948   3.848  0.00  0.00    -0.004 C 
ATOM     26  C   UNL     1      -4.422   4.845   2.622  0.00  0.00    -0.019 C 
ATOM     27  C   UNL     1      -4.666   3.971   1.390  0.00  0.00    -0.078 C 
ATOM     28  H   UNL     1      -2.617   3.696   1.113  0.00  0.00    -0.081 HD
ENDBRANCH  21  22
BRANCH  21  31
ATOM     29  C   UNL     1      -4.076   4.276  -3.157  0.00  0.00    +0.041 A 
ATOM     30  C   UNL     1      -4.415   3.181  -2.328  0.00  0.00    +0.043 A 
ATOM     31  C   UNL     1      -3.643   3.271  -1.230  0.00  0.00    +0.093 A 
ATOM     32  O   UNL     1      -2.853   4.350  -1.352  0.00  0.00    -0.469 OA
ATOM     33  C   UNL     1      -3.111   4.963  -2.519  0.00  0.00    +0.195 A 
ENDBRANCH  21  31
ENDBRANCH  20  21
ENDBRANCH   1  20
TORSDOF 6
