REMARK  Name = ZINC12615052
REMARK  10 active torsions:
REMARK  status: ('A' for Active; 'I' for Inactive)
REMARK    1  A    between atoms: C_1  and  C_2
REMARK    2  A    between atoms: C_4  and  C_12
REMARK    3  A    between atoms: C_7  and  O_8
REMARK    4  A    between atoms: O_8  and  C_9
REMARK    5  A    between atoms: C_9  and  C_10
REMARK    6  A    between atoms: C_9  and  C_11
REMARK    7  A    between atoms: C_13  and  C_23
REMARK    8  A    between atoms: N_15  and  C_17
REMARK    9  A    between atoms: C_32  and  C_39
REMARK   10  A    between atoms: C_35  and  C_38
REMARK                            x       y       z     vdW  Elec       q    Type
REMARK                         _______ _______ _______ _____ _____    ______ ____
ROOT
ATOM      1  C   UNL     1       0.520  -4.231   0.021  0.00  0.00    +0.100 A 
ATOM      2  C   UNL     1       1.495  -5.016  -0.745  0.00  0.00    +0.022 A 
ATOM      3  C   UNL     1       1.262  -6.342  -0.429  0.00  0.00    +0.123 A 
ATOM      4  N   UNL     1       0.236  -6.383   0.441  0.00  0.00    -0.239 N 
ATOM      5  N   UNL     1      -0.207  -5.084   0.707  0.00  0.00    -0.166 NA
ENDROOT
BRANCH   2   6
ATOM      6  C   UNL     1       2.516  -4.497  -1.661  0.00  0.00    +0.032 C 
ATOM      7  C   UNL     1       3.352  -5.355  -2.303  0.00  0.00    +0.080 C 
ATOM      8  C   UNL     1       4.440  -5.076  -3.265  0.00  0.00    +0.276 C 
ATOM      9  O   UNL     1       4.719  -3.938  -3.608  0.00  0.00    -0.267 OA
ATOM     10  N   UNL     1       5.094  -6.120  -3.727  0.00  0.00    -0.154 NA
ATOM     11  C   UNL     1       4.797  -7.359  -3.368  0.00  0.00    +0.154 C 
ATOM     12  S   UNL     1       3.440  -7.140  -2.227  0.00  0.00    -0.052 S 
ATOM     13  N   UNL     1       5.387  -8.527  -3.775  0.00  0.00    -0.307 N 
ATOM     14  C   UNL     1       4.926  -9.827  -3.263  0.00  0.00    +0.138 C 
ATOM     15  C   UNL     1       4.681 -10.755  -4.463  0.00  0.00    +0.133 C 
ATOM     16  O   UNL     1       5.850 -10.776  -5.285  0.00  0.00    -0.371 OA
ATOM     17  C   UNL     1       6.187  -9.509  -5.856  0.00  0.00    +0.133 C 
ATOM     18  C   UNL     1       6.505  -8.518  -4.731  0.00  0.00    +0.138 C 
ATOM     19  C   UNL     1       7.412  -9.666  -6.761  0.00  0.00    +0.039 C 
ATOM     20  C   UNL     1       3.492 -10.242  -5.278  0.00  0.00    +0.039 C 
ENDBRANCH   2   6
BRANCH   1  24
ATOM     21  C   UNL     1      -2.376  -0.173   0.258  0.00  0.00    +0.047 C 
ATOM     22  C   UNL     1      -1.012  -0.802   0.131  0.00  0.00    -0.008 A 
ATOM     23  C   UNL     1      -0.885  -2.175   0.129  0.00  0.00    +0.017 A 
ATOM     24  C   UNL     1       0.378  -2.756   0.018  0.00  0.00    +0.003 A 
ATOM     25  C   UNL     1       1.508  -1.945  -0.097  0.00  0.00    +0.014 A 
ATOM     26  C   UNL     1       1.373  -0.573  -0.099  0.00  0.00    +0.046 A 
ATOM     27  C   UNL     1       0.114   0.002   0.012  0.00  0.00    +0.124 A 
BRANCH  27  28
ATOM     28  O   UNL     1      -0.016   1.355   0.009  0.00  0.00    -0.489 OA
BRANCH  28  29
ATOM     29  C   UNL     1       1.167   2.119  -0.231  0.00  0.00    +0.167 C 
ATOM     30  C   UNL     1       0.783   3.485  -0.805  0.00  0.00    +0.051 C 
ATOM     31  C   UNL     1       1.925   2.313   1.083  0.00  0.00    +0.051 C 
ENDBRANCH  28  29
ENDBRANCH  27  28
ENDBRANCH   1  24
BRANCH   4  32
ATOM     32  C   UNL     1      -0.306  -7.549   0.996  0.00  0.00    +0.065 A 
ATOM     33  C   UNL     1       0.215  -8.790   0.653  0.00  0.00    +0.028 A 
ATOM     34  C   UNL     1      -0.317  -9.938   1.206  0.00  0.00    +0.002 A 
ATOM     35  C   UNL     1      -1.375  -9.853   2.092  0.00  0.00    +0.000 A 
ATOM     36  C   UNL     1      -1.900  -8.620   2.432  0.00  0.00    +0.002 A 
ATOM     37  C   UNL     1      -1.369  -7.468   1.886  0.00  0.00    +0.028 A 
ENDBRANCH   4  32
TORSDOF 5
