REMARK  Name = ZINC41007010
REMARK  7 active torsions:
REMARK  status: ('A' for Active; 'I' for Inactive)
REMARK    1  A    between atoms: C_1  and  C_2
REMARK    2  A    between atoms: C_2  and  O_37
REMARK    3  A    between atoms: C_6  and  C_28
REMARK    4  A    between atoms: C_8  and  C_21
REMARK    5  A    between atoms: C_10  and  C_12
REMARK    6  A    between atoms: N_14  and  C_15
REMARK    7  A    between atoms: N_30  and  C_31
REMARK                            x       y       z     vdW  Elec       q    Type
REMARK                         _______ _______ _______ _____ _____    ______ ____
ROOT
ATOM      1  C   UNL     1      -1.037   0.821   0.002  0.00  0.00    +0.042 C 
ATOM      2  C   UNL     1      -0.394  -0.567  -0.012  0.00  0.00    +0.082 C 
ATOM      3  C   UNL     1      -1.489  -1.638  -0.026  0.00  0.00    +0.110 C 
ATOM      4  C   UNL     1      -0.836  -2.997   0.095  0.00  0.00    +0.148 C 
ATOM      5  O   UNL     1      -1.095  -3.881  -0.686  0.00  0.00    -0.296 OA
ATOM      6  C   UNL     1       0.152  -3.220   1.219  0.00  0.00    +0.149 C 
ATOM      7  C   UNL     1       1.188  -2.092   1.188  0.00  0.00    +0.053 C 
ATOM      8  C   UNL     1       0.471  -0.742   1.237  0.00  0.00    +0.115 C 
ENDROOT
BRANCH   7   9
ATOM      9  C   UNL     1       2.105  -2.218   2.377  0.00  0.00    -0.041 A 
ATOM     10  C   UNL     1       1.605  -2.057   3.656  0.00  0.00    +0.004 A 
ATOM     11  C   UNL     1       2.445  -2.173   4.747  0.00  0.00    +0.001 A 
ATOM     12  C   UNL     1       3.787  -2.451   4.560  0.00  0.00    +0.015 A 
ATOM     13  C   UNL     1       4.287  -2.613   3.281  0.00  0.00    +0.018 A 
ATOM     14  C   UNL     1       3.445  -2.502   2.189  0.00  0.00    +0.019 A 
ATOM     15 BR   UNL     1       6.122  -2.992   3.025  0.00  0.00    -0.050 Br
ENDBRANCH   7   9
BRANCH   8  16
ATOM     16  C   UNL     1      -0.403  -0.683   2.464  0.00  0.00    +0.224 C 
ATOM     17  O   UNL     1      -1.560  -1.040   2.401  0.00  0.00    -0.275 OA
ATOM     18  N   UNL     1       0.102  -0.235   3.630  0.00  0.00    -0.285 N 
ATOM     19  H   UNL     1       1.034   0.028   3.687  0.00  0.00    +0.155 HD
BRANCH  18  20
ATOM     20  C   UNL     1      -0.719  -0.150   4.761  0.00  0.00    +0.033 A 
ATOM     21  C   UNL     1      -2.046  -0.550   4.689  0.00  0.00    +0.023 A 
ATOM     22  C   UNL     1      -2.854  -0.465   5.806  0.00  0.00    +0.002 A 
ATOM     23  C   UNL     1      -2.341   0.020   6.995  0.00  0.00    +0.000 A 
ATOM     24  C   UNL     1      -1.020   0.420   7.070  0.00  0.00    +0.002 A 
ATOM     25  C   UNL     1      -0.205   0.331   5.958  0.00  0.00    +0.023 A 
ENDBRANCH  18  20
ENDBRANCH   8  16
BRANCH   6  26
ATOM     26  C   UNL     1      -0.573  -3.210   2.539  0.00  0.00    +0.228 C 
ATOM     27  O   UNL     1       0.038  -3.402   3.569  0.00  0.00    -0.275 OA
ATOM     28  N   UNL     1      -1.902  -2.987   2.577  0.00  0.00    -0.285 N 
ATOM     29  H   UNL     1      -2.389  -2.821   1.755  0.00  0.00    +0.155 HD
BRANCH  28  30
ATOM     30  C   UNL     1      -2.579  -2.996   3.802  0.00  0.00    +0.033 A 
ATOM     31  C   UNL     1      -1.871  -3.148   4.987  0.00  0.00    +0.023 A 
ATOM     32  C   UNL     1      -2.542  -3.157   6.194  0.00  0.00    +0.002 A 
ATOM     33  C   UNL     1      -3.917  -3.013   6.223  0.00  0.00    +0.000 A 
ATOM     34  C   UNL     1      -4.625  -2.861   5.045  0.00  0.00    +0.002 A 
ATOM     35  C   UNL     1      -3.959  -2.846   3.835  0.00  0.00    +0.023 A 
ENDBRANCH  28  30
ENDBRANCH   6  26
BRANCH   2  36
ATOM     36  O   UNL     1       0.421  -0.703  -1.178  0.00  0.00    -0.388 OA
ATOM     37  H   UNL     1      -0.063  -0.605  -2.010  0.00  0.00    +0.210 HD
ENDBRANCH   2  36
TORSDOF 6
