REMARK  Name = ZINC39673115
REMARK  10 active torsions:
REMARK  status: ('A' for Active; 'I' for Inactive)
REMARK    1  A    between atoms: C_1  and  C_2
REMARK    2  A    between atoms: C_5  and  C_9
REMARK    3  A    between atoms: C_7  and  C_8
REMARK    4  A    between atoms: C_9  and  N_10
REMARK    5  A    between atoms: C_11  and  C_13
REMARK    6  A    between atoms: C_24  and  C_26
REMARK    7  A    between atoms: C_30  and  O_33
REMARK    8  A    between atoms: C_31  and  C_32
REMARK    9  A    between atoms: O_33  and  C_34
REMARK   10  A    between atoms: C_34  and  C_36
REMARK                            x       y       z     vdW  Elec       q    Type
REMARK                         _______ _______ _______ _____ _____    ______ ____
ROOT
ATOM      1  C   UNL     1       2.805  -7.216   0.329  0.00  0.00    +0.100 C 
ATOM      2  C   UNL     1       3.654  -6.527   1.421  0.00  0.00    +0.121 C 
ATOM      3  N   UNL     1       3.581  -7.441   2.585  0.00  0.00    -0.296 N 
ATOM      4  C   UNL     1       3.656  -8.798   1.993  0.00  0.00    +0.115 C 
ATOM      5  C   UNL     1       2.812  -8.707   0.706  0.00  0.00    -0.004 C 
ATOM      6  C   UNL     1       3.453  -9.531  -0.406  0.00  0.00    -0.010 C 
ATOM      7  C   UNL     1       3.396 -11.015  -0.034  0.00  0.00    -0.082 C 
ATOM      8  N   UNL     1       1.998 -11.420   0.157  0.00  0.00    +0.379 N 
ATOM      9  C   UNL     1       1.416 -10.689   1.290  0.00  0.00    -0.082 C 
ATOM     10  C   UNL     1       1.390  -9.191   0.974  0.00  0.00    -0.010 C 
ATOM     11  C   UNL     1       3.472  -7.112   3.887  0.00  0.00    +0.247 C 
ATOM     12  O   UNL     1       3.518  -7.979   4.739  0.00  0.00    -0.270 OA
ATOM     13  H   UNL     1       1.472 -11.215  -0.679  0.00  0.00    -0.086 HD
ATOM     14  H   UNL     1       1.958 -12.411   0.342  0.00  0.00    -0.086 HD
ENDROOT
BRANCH  11  15
ATOM     15  C   UNL     1       3.295  -5.698   4.281  0.00  0.00    +0.043 A 
ATOM     16  C   UNL     1       3.938  -4.686   3.565  0.00  0.00    +0.013 A 
ATOM     17  C   UNL     1       3.771  -3.368   3.935  0.00  0.00    +0.004 A 
ATOM     18  C   UNL     1       2.968  -3.044   5.013  0.00  0.00    +0.047 A 
ATOM     19  C   UNL     1       2.324  -4.043   5.731  0.00  0.00    +0.135 A 
ATOM     20  C   UNL     1       2.481  -5.370   5.365  0.00  0.00    +0.004 A 
ATOM     21  C   UNL     1       1.779  -6.455   6.139  0.00  0.00    +0.048 C 
BRANCH  19  22
ATOM     22  O   UNL     1       1.536  -3.719   6.790  0.00  0.00    -0.426 OA
BRANCH  22  23
ATOM     23  C   UNL     1       2.090  -3.727   8.013  0.00  0.00    +0.309 C 
ATOM     24  O   UNL     1       3.275  -3.924   8.139  0.00  0.00    -0.251 OA
ATOM     25  C   UNL     1       1.232  -3.489   9.229  0.00  0.00    +0.136 C 
ENDBRANCH  22  23
ENDBRANCH  19  22
ENDBRANCH  11  15
BRANCH   1  27
ATOM     26  N   UNL     1       0.661  -6.689  -0.787  0.00  0.00    -0.311 N 
ATOM     27  C   UNL     1       1.397  -6.678   0.342  0.00  0.00    +0.218 C 
ATOM     28  O   UNL     1       0.926  -6.236   1.368  0.00  0.00    -0.275 OA
ATOM     29  H   UNL     1       1.038  -7.043  -1.608  0.00  0.00    +0.149 HD
BRANCH  26  30
ATOM     30  C   UNL     1      -0.707  -6.166  -0.775  0.00  0.00    +0.139 C 
BRANCH  30  35
ATOM     31  C   UNL     1      -3.005  -6.649  -6.055  0.00  0.00    +0.044 C 
ATOM     32  C   UNL     1      -2.406  -6.523  -4.678  0.00  0.00    -0.048 A 
ATOM     33  C   UNL     1      -2.543  -7.554  -3.767  0.00  0.00    +0.004 A 
ATOM     34  C   UNL     1      -1.994  -7.439  -2.504  0.00  0.00    +0.005 A 
ATOM     35  C   UNL     1      -1.306  -6.292  -2.152  0.00  0.00    -0.030 A 
ATOM     36  C   UNL     1      -1.167  -5.262  -3.063  0.00  0.00    +0.008 A 
ATOM     37  C   UNL     1      -1.713  -5.379  -4.328  0.00  0.00    -0.047 A 
ATOM     38  C   UNL     1      -1.558  -4.258  -5.323  0.00  0.00    +0.044 C 
ENDBRANCH  30  35
ENDBRANCH  26  30
ENDBRANCH   1  27
TORSDOF 6
