REMARK  Name = ZINC40987366
REMARK  7 active torsions:
REMARK  status: ('A' for Active; 'I' for Inactive)
REMARK    1  A    between atoms: C_1  and  C_2
REMARK    2  A    between atoms: C_5  and  C_8
REMARK    3  A    between atoms: C_8  and  C_10
REMARK    4  A    between atoms: C_8  and  N_27
REMARK    5  A    between atoms: C_10  and  N_11
REMARK    6  A    between atoms: C_12  and  C_14
REMARK    7  A    between atoms: C_16  and  C_19
REMARK                            x       y       z     vdW  Elec       q    Type
REMARK                         _______ _______ _______ _____ _____    ______ ____
ROOT
ATOM      1  N   UNL     1       2.328  -4.301  -0.894  0.00  0.00    -0.311 N 
ATOM      2  C   UNL     1       3.640  -4.610  -0.888  0.00  0.00    +0.266 C 
ATOM      3  O   UNL     1       4.136  -5.133   0.090  0.00  0.00    -0.268 OA
ATOM      4  H   UNL     1       1.932  -3.883  -1.675  0.00  0.00    +0.149 HD
ENDROOT
BRANCH   2   5
ATOM      5  C   UNL     1       4.478  -4.312  -2.075  0.00  0.00    +0.168 A 
ATOM      6  C   UNL     1       5.856  -4.585  -2.207  0.00  0.00    +0.086 A 
ATOM      7  C   UNL     1       6.250  -4.163  -3.438  0.00  0.00    +0.168 A 
ATOM      8  O   UNL     1       5.176  -3.645  -4.062  0.00  0.00    -0.354 OA
ATOM      9  N   UNL     1       4.067  -3.753  -3.188  0.00  0.00    -0.073 NA
BRANCH   7  10
ATOM     10  C   UNL     1       7.617  -4.256  -3.994  0.00  0.00    +0.023 A 
ATOM     11  C   UNL     1       8.643  -4.824  -3.237  0.00  0.00    +0.014 A 
ATOM     12  C   UNL     1       9.917  -4.909  -3.759  0.00  0.00    +0.042 A 
ATOM     13  C   UNL     1      10.180  -4.432  -5.033  0.00  0.00    +0.158 A 
ATOM     14  C   UNL     1       9.164  -3.866  -5.790  0.00  0.00    +0.159 A 
ATOM     15  C   UNL     1       7.884  -3.781  -5.279  0.00  0.00    +0.053 A 
ATOM     16  F   UNL     1       9.427  -3.402  -7.032  0.00  0.00    -0.202 F 
ATOM     17  F   UNL     1      11.430  -4.517  -5.539  0.00  0.00    -0.202 F 
ENDBRANCH   7  10
ENDBRANCH   2   5
BRANCH   1  18
ATOM     18  C   UNL     1       1.501  -4.596   0.279  0.00  0.00    +0.094 C 
BRANCH  18  19
ATOM     19  C   UNL     1       0.095  -4.031   0.065  0.00  0.00    -0.020 C 
BRANCH  19  24
ATOM     20  C   UNL     1       0.372   1.724  -0.371  0.00  0.00    +0.044 C 
ATOM     21  C   UNL     1       0.300   0.224  -0.257  0.00  0.00    -0.050 A 
ATOM     22  C   UNL     1       0.200  -0.552  -1.397  0.00  0.00    +0.003 A 
ATOM     23  C   UNL     1       0.134  -1.929  -1.293  0.00  0.00    +0.002 A 
ATOM     24  C   UNL     1       0.168  -2.530  -0.048  0.00  0.00    -0.059 A 
ATOM     25  C   UNL     1       0.268  -1.755   1.091  0.00  0.00    +0.002 A 
ATOM     26  C   UNL     1       0.339  -0.378   0.987  0.00  0.00    +0.003 A 
ENDBRANCH  19  24
BRANCH  19  27
ATOM     27  N   UNL     1      -0.757  -4.395   1.205  0.00  0.00    +0.385 N 
ATOM     28  C   UNL     1      -0.866  -5.856   1.286  0.00  0.00    -0.078 C 
ATOM     29  C   UNL     1      -1.685  -6.243   2.519  0.00  0.00    -0.019 C 
ATOM     30  C   UNL     1      -3.085  -5.631   2.408  0.00  0.00    -0.004 C 
ATOM     31  C   UNL     1      -2.956  -4.113   2.250  0.00  0.00    -0.019 C 
ATOM     32  C   UNL     1      -2.089  -3.805   1.027  0.00  0.00    -0.078 C 
ATOM     33  H   UNL     1      -0.346  -4.043   2.057  0.00  0.00    -0.081 HD
ENDBRANCH  19  27
ENDBRANCH  18  19
ENDBRANCH   1  18
TORSDOF 6
