REMARK  Name = ZINC35430784
REMARK  5 active torsions:
REMARK  status: ('A' for Active; 'I' for Inactive)
REMARK    1  A    between atoms: C_1  and  N_2
REMARK    2  A    between atoms: N_2  and  C_3
REMARK    3  A    between atoms: C_3  and  C_4
REMARK    4  A    between atoms: C_5  and  O_12
REMARK    5  A    between atoms: O_12  and  C_13
REMARK                            x       y       z     vdW  Elec       q    Type
REMARK                         _______ _______ _______ _____ _____    ______ ____
ROOT
ATOM      1  C   UNL     1       0.856  -2.004  -1.445  0.00  0.00    +0.070 A 
ATOM      2  C   UNL     1       1.821  -2.768  -0.896  0.00  0.00    +0.241 A 
ATOM      3  N   UNL     1       1.670  -4.025  -1.345  0.00  0.00    -0.186 NA
ATOM      4  C   UNL     1       0.648  -4.068  -2.151  0.00  0.00    +0.181 A 
ATOM      5  N   UNL     1       0.077  -2.828  -2.260  0.00  0.00    -0.296 N 
ATOM      6  C   UNL     1      -1.025  -2.718  -3.079  0.00  0.00    +0.100 A 
ATOM      7  C   UNL     1      -1.503  -3.780  -3.727  0.00  0.00    +0.067 A 
ATOM      8  S   UNL     1      -0.375  -5.065  -3.210  0.00  0.00    -0.058 S 
ENDROOT
BRANCH   1   9
ATOM      9  C   UNL     1       0.650  -0.529  -1.215  0.00  0.00    -0.023 C 
BRANCH   9  11
ATOM     10  C   UNL     1      -0.444   1.106   0.158  0.00  0.00    -0.100 C 
ATOM     11  N   UNL     1      -0.243  -0.332  -0.066  0.00  0.00    +0.381 N 
ATOM     12  H   UNL     1       0.170  -0.746   0.756  0.00  0.00    -0.086 HD
ATOM     13  H   UNL     1      -1.133  -0.771  -0.252  0.00  0.00    -0.086 HD
ENDBRANCH   9  11
ENDBRANCH   1   9
BRANCH   2  14
ATOM     14  O   UNL     1       2.783  -2.339  -0.035  0.00  0.00    -0.436 OA
BRANCH  14  15
ATOM     15  C   UNL     1       3.591  -3.272   0.535  0.00  0.00    +0.130 A 
ATOM     16  C   UNL     1       4.681  -2.875   1.296  0.00  0.00    +0.047 A 
ATOM     17  C   UNL     1       5.500  -3.825   1.874  0.00  0.00    +0.018 A 
ATOM     18  C   UNL     1       5.234  -5.170   1.696  0.00  0.00    +0.014 A 
ATOM     19  C   UNL     1       4.148  -5.568   0.938  0.00  0.00    +0.018 A 
ATOM     20  C   UNL     1       3.322  -4.622   0.362  0.00  0.00    +0.047 A 
ATOM     21  I   UNL     1       6.479  -6.608   2.575  0.00  0.00    -0.044 I 
ENDBRANCH  14  15
ENDBRANCH   2  14
TORSDOF 4
