REMARK  Name = ZINC39940705
REMARK  9 active torsions:
REMARK  status: ('A' for Active; 'I' for Inactive)
REMARK    1  A    between atoms: C_1  and  C_2
REMARK    2  A    between atoms: C_2  and  O_3
REMARK    3  A    between atoms: O_3  and  C_4
REMARK    4  A    between atoms: C_4  and  C_6
REMARK    5  A    between atoms: C_7  and  C_34
REMARK    6  A    between atoms: C_13  and  C_17
REMARK    7  A    between atoms: C_17  and  C_19
REMARK    8  A    between atoms: C_17  and  S_20
REMARK    9  A    between atoms: S_20  and  C_21
REMARK                            x       y       z     vdW  Elec       q    Type
REMARK                         _______ _______ _______ _____ _____    ______ ____
ROOT
ATOM      1  C   UNL     1       1.449  -2.344  -2.516  0.00  0.00    +0.102 A 
ATOM      2  C   UNL     1       1.649  -3.651  -2.857  0.00  0.00    -0.015 A 
ATOM      3  C   UNL     1       2.321  -3.966  -4.039  0.00  0.00    +0.076 A 
ATOM      4  C   UNL     1       2.648  -5.295  -4.604  0.00  0.00    +0.260 A 
ATOM      5  O   UNL     1       2.325  -6.317  -4.025  0.00  0.00    -0.267 OA
ATOM      6  N   UNL     1       3.313  -5.345  -5.775  0.00  0.00    -0.309 N 
ATOM      7  H   UNL     1       3.536  -6.207  -6.159  0.00  0.00    +0.170 HD
ATOM      8  C   UNL     1       3.678  -4.214  -6.428  0.00  0.00    +0.124 A 
ATOM      9  N   UNL     1       3.405  -3.027  -5.958  0.00  0.00    -0.225 NA
ATOM     10  C   UNL     1       2.755  -2.865  -4.813  0.00  0.00    +0.116 A 
ATOM     11  S   UNL     1       2.205  -1.464  -3.872  0.00  0.00    -0.062 S 
ATOM     12  C   UNL     1       1.145  -4.751  -1.958  0.00  0.00    +0.046 C 
ENDROOT
BRANCH   1  13
ATOM     13  C   UNL     1       0.776  -1.800  -1.335  0.00  0.00    +0.346 C 
ATOM     14  O   UNL     1       0.312  -2.552  -0.499  0.00  0.00    -0.244 OA
BRANCH  13  15
ATOM     15  O   UNL     1       0.671  -0.465  -1.174  0.00  0.00    -0.461 OA
BRANCH  15  17
ATOM     16  C   UNL     1      -0.019   1.526   0.010  0.00  0.00    +0.048 C 
ATOM     17  C   UNL     1       0.002  -0.004   0.002  0.00  0.00    +0.229 C 
ENDBRANCH  15  17
ENDBRANCH  13  15
ENDBRANCH   1  13
BRANCH   8  18
ATOM     18  C   UNL     1       4.420  -4.331  -7.734  0.00  0.00    +0.113 C 
ATOM     19  C   UNL     1       3.616  -5.201  -8.702  0.00  0.00    +0.027 C 
BRANCH  18  20
ATOM     20  S   UNL     1       4.646  -2.680  -8.451  0.00  0.00    -0.100 S 
BRANCH  20  21
ATOM     21  C   UNL     1       5.673  -2.975  -9.917  0.00  0.00    +0.290 C 
ATOM     22  N   UNL     1       7.038  -2.467  -9.703  0.00  0.00    -0.147 NA
ATOM     23  N   UNL     1       7.265  -1.590 -10.537  0.00  0.00    -0.112 NA
ATOM     24  C   UNL     1       6.222  -1.355 -11.386  0.00  0.00    +0.253 A 
ATOM     25  N   UNL     1       5.180  -2.193 -11.057  0.00  0.00    -0.274 N 
ATOM     26  C   UNL     1       4.145  -1.943 -11.920  0.00  0.00    +0.073 A 
ATOM     27  C   UNL     1       2.865  -2.461 -12.078  0.00  0.00    +0.028 A 
ATOM     28  C   UNL     1       2.048  -1.976 -13.076  0.00  0.00    +0.002 A 
ATOM     29  C   UNL     1       2.494  -0.972 -13.927  0.00  0.00    +0.002 A 
ATOM     30  C   UNL     1       3.747  -0.449 -13.790  0.00  0.00    +0.030 A 
ATOM     31  C   UNL     1       4.597  -0.925 -12.784  0.00  0.00    +0.091 A 
ATOM     32  N   UNL     1       5.859  -0.610 -12.409  0.00  0.00    -0.209 NA
ENDBRANCH  20  21
ENDBRANCH  18  20
ENDBRANCH   8  18
TORSDOF 6
