REMARK  Name = ZINC12659023
REMARK  6 active torsions:
REMARK  status: ('A' for Active; 'I' for Inactive)
REMARK    1  A    between atoms: C_6  and  N_11
REMARK    2  A    between atoms: C_12  and  C_14
REMARK    3  A    between atoms: C_14  and  N_25
REMARK    4  A    between atoms: C_15  and  C_16
REMARK    5  A    between atoms: C_20  and  N_22
REMARK    6  A    between atoms: C_26  and  C_28
REMARK                            x       y       z     vdW  Elec       q    Type
REMARK                         _______ _______ _______ _____ _____    ______ ____
ROOT
ATOM      1  C   UNL     1      -1.269   6.237  -0.069  0.00  0.00    +0.097 C 
ATOM      2  C   UNL     1      -0.323   5.312   0.213  0.00  0.00    +0.036 C 
ENDROOT
BRANCH   2   3
ATOM      3  C   UNL     1      -0.718   3.941   0.570  0.00  0.00    -0.021 A 
ATOM      4  C   UNL     1      -1.937   3.705   1.214  0.00  0.00    +0.008 A 
ATOM      5  C   UNL     1      -2.303   2.417   1.540  0.00  0.00    +0.003 A 
ATOM      6  C   UNL     1      -1.462   1.358   1.241  0.00  0.00    +0.033 A 
ATOM      7  C   UNL     1      -0.254   1.583   0.604  0.00  0.00    +0.127 A 
ATOM      8  C   UNL     1       0.124   2.866   0.266  0.00  0.00    +0.040 A 
BRANCH   7   9
ATOM      9  N   UNL     1       0.634   0.444   0.283  0.00  0.00    +0.056 N 
ATOM     10  O   UNL     1       0.302  -0.690   0.580  0.00  0.00    -0.126 OA
ATOM     11  O   UNL     1       1.698   0.639  -0.278  0.00  0.00    -0.126 OA
ENDBRANCH   7   9
ENDBRANCH   2   3
BRANCH   1  13
ATOM     12  N   UNL     1       0.432   7.923  -0.541  0.00  0.00    -0.280 N 
ATOM     13  C   UNL     1      -0.874   7.598  -0.462  0.00  0.00    +0.262 C 
ATOM     14  O   UNL     1      -1.725   8.429  -0.715  0.00  0.00    -0.268 OA
ATOM     15  H   UNL     1       1.109   7.283  -0.272  0.00  0.00    +0.155 HD
BRANCH  12  21
ATOM     16  C   UNL     1       3.042  13.544  -1.968  0.00  0.00    +0.001 A 
ATOM     17  C   UNL     1       3.835  12.905  -1.018  0.00  0.00    +0.001 A 
ATOM     18  C   UNL     1       3.499  11.677  -0.536  0.00  0.00    +0.008 A 
ATOM     19  C   UNL     1       2.334  11.042  -1.003  0.00  0.00    -0.016 A 
ATOM     20  C   UNL     1       1.957   9.775  -0.529  0.00  0.00    +0.031 A 
ATOM     21  C   UNL     1       0.810   9.184  -1.010  0.00  0.00    +0.034 A 
ATOM     22  C   UNL     1       0.022   9.832  -1.970  0.00  0.00    +0.024 A 
ATOM     23  C   UNL     1       0.363  11.060  -2.440  0.00  0.00    +0.010 A 
ATOM     24  C   UNL     1       1.528  11.692  -1.970  0.00  0.00    -0.018 A 
ATOM     25  C   UNL     1       1.908  12.960  -2.443  0.00  0.00    +0.008 A 
ENDBRANCH  12  21
ENDBRANCH   1  13
BRANCH   1  26
ATOM     26  N   UNL     1      -2.623   5.899   0.013  0.00  0.00    -0.277 N 
ATOM     27  C   UNL     1      -3.435   6.569   0.855  0.00  0.00    +0.248 C 
ATOM     28  O   UNL     1      -3.014   7.529   1.471  0.00  0.00    -0.270 OA
ATOM     29  H   UNL     1      -2.978   5.183  -0.536  0.00  0.00    +0.155 HD
BRANCH  27  30
ATOM     30  C   UNL     1      -4.837   6.137   1.030  0.00  0.00    +0.038 A 
ATOM     31  C   UNL     1      -5.296   4.976   0.405  0.00  0.00    +0.013 A 
ATOM     32  C   UNL     1      -6.605   4.574   0.576  0.00  0.00    +0.002 A 
ATOM     33  C   UNL     1      -7.466   5.326   1.356  0.00  0.00    +0.015 A 
ATOM     34  C   UNL     1      -7.019   6.481   1.974  0.00  0.00    +0.019 A 
ATOM     35  C   UNL     1      -5.710   6.891   1.815  0.00  0.00    +0.028 A 
ATOM     36 BR   UNL     1      -8.205   7.501   3.038  0.00  0.00    -0.050 Br
ENDBRANCH  27  30
ENDBRANCH   1  26
TORSDOF 6
