REMARK  Name = ZINC38905479
REMARK  9 active torsions:
REMARK  status: ('A' for Active; 'I' for Inactive)
REMARK    1  A    between atoms: C_1  and  C_2
REMARK    2  A    between atoms: C_5  and  C_34
REMARK    3  A    between atoms: C_6  and  C_8
REMARK    4  A    between atoms: C_8  and  C_10
REMARK    5  A    between atoms: C_8  and  N_11
REMARK    6  A    between atoms: C_12  and  C_14
REMARK    7  A    between atoms: N_19  and  C_21
REMARK    8  A    between atoms: C_21  and  C_22
REMARK    9  A    between atoms: C_24  and  C_27
REMARK                            x       y       z     vdW  Elec       q    Type
REMARK                         _______ _______ _______ _____ _____    ______ ____
ROOT
ATOM      1  C   UNL     1       1.895  -1.702   5.645  0.00  0.00    +0.058 C 
ATOM      2  C   UNL     1       0.783  -0.900   6.327  0.00  0.00    +0.009 C 
ATOM      3  C   UNL     1       1.386  -0.084   7.474  0.00  0.00    -0.018 C 
ATOM      4  C   UNL     1       2.100  -1.028   8.444  0.00  0.00    -0.078 C 
ATOM      5  N   UNL     1       3.168  -1.745   7.738  0.00  0.00    +0.386 N 
ATOM      6  C   UNL     1       2.591  -2.586   6.682  0.00  0.00    -0.065 C 
ATOM      7  H   UNL     1       3.804  -1.079   7.325  0.00  0.00    -0.081 HD
ENDROOT
BRANCH   1   9
ATOM      8  N   UNL     1       0.632  -2.003   3.539  0.00  0.00    -0.309 N 
ATOM      9  C   UNL     1       1.300  -2.568   4.564  0.00  0.00    +0.215 C 
ATOM     10  O   UNL     1       1.422  -3.774   4.617  0.00  0.00    -0.276 OA
ATOM     11  H   UNL     1       0.534  -1.039   3.497  0.00  0.00    +0.149 HD
BRANCH   8  12
ATOM     12  C   UNL     1       0.054  -2.845   2.489  0.00  0.00    +0.100 C 
ATOM     13  C   UNL     1      -1.350  -3.287   2.905  0.00  0.00    +0.033 C 
BRANCH  12  19
ATOM     14  C   UNL     1      -0.355   1.536   0.103  0.00  0.00    +0.044 C 
ATOM     15  C   UNL     1      -0.223   0.035   0.063  0.00  0.00    -0.050 A 
ATOM     16  C   UNL     1      -0.176  -0.622  -1.153  0.00  0.00    +0.003 A 
ATOM     17  C   UNL     1      -0.055  -1.999  -1.189  0.00  0.00    +0.004 A 
ATOM     18  C   UNL     1       0.019  -2.718  -0.011  0.00  0.00    -0.046 A 
ATOM     19  C   UNL     1      -0.027  -2.061   1.204  0.00  0.00    -0.024 A 
ATOM     20  C   UNL     1      -0.143  -0.683   1.241  0.00  0.00    +0.009 A 
ATOM     21  C   UNL     1       0.150  -4.219  -0.051  0.00  0.00    +0.044 C 
ENDBRANCH  12  19
ENDBRANCH   8  12
ENDBRANCH   1   9
BRANCH   5  22
ATOM     22  C   UNL     1       3.900  -2.591   8.690  0.00  0.00    +0.022 C 
BRANCH  22  23
ATOM     23  C   UNL     1       4.604  -1.720   9.698  0.00  0.00    +0.211 A 
ATOM     24  N   UNL     1       4.109  -1.319  10.834  0.00  0.00    -0.193 NA
ATOM     25  C   UNL     1       5.007  -0.557  11.484  0.00  0.00    +0.202 A 
ATOM     26  N   UNL     1       6.090  -0.470  10.753  0.00  0.00    -0.056 NA
ATOM     27  O   UNL     1       5.845  -1.232   9.580  0.00  0.00    -0.340 OA
BRANCH  25  28
ATOM     28  C   UNL     1       4.804   0.080  12.809  0.00  0.00    +0.023 A 
ATOM     29  C   UNL     1       3.602  -0.094  13.492  0.00  0.00    +0.013 A 
ATOM     30  C   UNL     1       3.418   0.501  14.723  0.00  0.00    +0.016 A 
ATOM     31  C   UNL     1       4.425   1.269  15.281  0.00  0.00    +0.018 A 
ATOM     32  C   UNL     1       5.622   1.444  14.607  0.00  0.00    +0.016 A 
ATOM     33  C   UNL     1       5.818   0.849  13.378  0.00  0.00    +0.013 A 
ATOM     34 BR   UNL     1       4.167   2.081  16.969  0.00  0.00    -0.050 Br
ENDBRANCH  25  28
ENDBRANCH  22  23
ENDBRANCH   5  22
TORSDOF 6
