REMARK  Name = ZINC39733539
REMARK  11 active torsions:
REMARK  status: ('A' for Active; 'I' for Inactive)
REMARK    1  A    between atoms: C_1  and  C_2
REMARK    2  A    between atoms: C_4  and  C_25
REMARK    3  A    between atoms: C_5  and  C_24
REMARK    4  A    between atoms: C_6  and  C_8
REMARK    5  A    between atoms: C_8  and  C_10
REMARK    6  A    between atoms: C_10  and  C_12
REMARK    7  A    between atoms: C_10  and  O_13
REMARK    8  A    between atoms: O_13  and  C_14
REMARK    9  A    between atoms: C_17  and  N_21
REMARK   10  A    between atoms: C_25  and  O_27
REMARK   11  A    between atoms: O_27  and  C_28
REMARK                            x       y       z     vdW  Elec       q    Type
REMARK                         _______ _______ _______ _____ _____    ______ ____
ROOT
ATOM      1  C   UNL     1      -0.090  -1.825   3.297  0.00  0.00    +0.221 C 
ATOM      2  O   UNL     1      -0.833  -2.632   3.802  0.00  0.00    -0.286 OA
ENDROOT
BRANCH   1   7
ATOM      3  C   UNL     1      -0.799   1.931   0.631  0.00  0.00    +0.038 C 
ATOM      4  C   UNL     1      -0.611   0.427   0.424  0.00  0.00    +0.140 C 
ATOM      5  C   UNL     1      -1.948  -0.279   0.476  0.00  0.00    +0.065 C 
ATOM      6  C   UNL     1      -1.869  -1.142   1.508  0.00  0.00    -0.010 C 
ATOM      7  C   UNL     1      -0.542  -1.030   2.130  0.00  0.00    +0.109 C 
ATOM      8  N   UNL     1       0.183  -0.141   1.520  0.00  0.00    -0.272 NA
ATOM      9  C   UNL     1      -2.967  -2.073   1.955  0.00  0.00    +0.046 C 
BRANCH   5  10
ATOM     10  C   UNL     1      -3.096  -0.066  -0.415  0.00  0.00    +0.337 C 
ATOM     11  O   UNL     1      -4.116  -0.708  -0.256  0.00  0.00    -0.245 OA
BRANCH  10  12
ATOM     12  O   UNL     1      -3.019   0.842  -1.409  0.00  0.00    -0.465 OA
ATOM     13  C   UNL     1      -4.174   0.996  -2.237  0.00  0.00    +0.280 C 
ENDBRANCH  10  12
ENDBRANCH   5  10
ENDBRANCH   1   7
BRANCH   1  14
ATOM     14  C   UNL     1       1.297  -1.626   3.853  0.00  0.00    +0.242 C 
ATOM     15  C   UNL     1       2.318  -2.283   2.922  0.00  0.00    +0.061 C 
BRANCH  14  16
ATOM     16  O   UNL     1       1.380  -2.222   5.149  0.00  0.00    -0.480 OA
BRANCH  16  17
ATOM     17  C   UNL     1       2.317  -1.722   5.998  0.00  0.00    +0.140 A 
ATOM     18  C   UNL     1       3.213  -0.760   5.557  0.00  0.00    +0.049 A 
ATOM     19  C   UNL     1       4.163  -0.254   6.422  0.00  0.00    +0.036 A 
ATOM     20  C   UNL     1       4.222  -0.705   7.728  0.00  0.00    +0.128 A 
ATOM     21  C   UNL     1       3.330  -1.664   8.171  0.00  0.00    +0.056 A 
ATOM     22  C   UNL     1       2.374  -2.170   7.311  0.00  0.00    +0.085 A 
ATOM     23 CL   UNL     1       1.250  -3.370   7.870  0.00  0.00    -0.080 Cl
BRANCH  20  24
ATOM     24  N   UNL     1       5.242  -0.161   8.652  0.00  0.00    +0.056 N 
ATOM     25  O   UNL     1       6.022   0.677   8.265  0.00  0.00    -0.126 OA
ATOM     26  O   UNL     1       5.294  -0.555   9.794  0.00  0.00    -0.126 OA
ENDBRANCH  20  24
ENDBRANCH  16  17
ENDBRANCH  14  16
ENDBRANCH   1  14
TORSDOF 7
