REMARK  Name = ZINC01993296
REMARK  10 active torsions:
REMARK  status: ('A' for Active; 'I' for Inactive)
REMARK    1  A    between atoms: C_1  and  C_2
REMARK    2  A    between atoms: C_5  and  N_9
REMARK    3  A    between atoms: C_6  and  C_8
REMARK    4  A    between atoms: C_10  and  C_12
REMARK    5  A    between atoms: C_12  and  O_13
REMARK    6  A    between atoms: O_13  and  C_14
REMARK    7  A    between atoms: C_22  and  O_25
REMARK    8  A    between atoms: O_25  and  C_26
REMARK    9  A    between atoms: C_28  and  C_33
REMARK   10  A    between atoms: C_31  and  C_32
REMARK                            x       y       z     vdW  Elec       q    Type
REMARK                         _______ _______ _______ _____ _____    ______ ____
ROOT
ATOM      1  C   UNL     1      -0.353   1.894   0.084  0.00  0.00    +0.125 A 
ATOM      2  C   UNL     1      -1.595   2.526   0.078  0.00  0.00    +0.046 A 
ATOM      3  C   UNL     1      -1.677   3.889   0.072  0.00  0.00    +0.019 A 
ATOM      4  C   UNL     1      -0.508   4.652   0.061  0.00  0.00    +0.068 A 
ATOM      5  C   UNL     1       0.750   4.023   0.062  0.00  0.00    +0.142 A 
ATOM      6  C   UNL     1       0.815   2.637   0.073  0.00  0.00    +0.092 A 
ATOM      7  O   UNL     1       1.872   4.771   0.051  0.00  0.00    -0.459 OA
ATOM      8  C   UNL     1       1.843   6.110   0.040  0.00  0.00    +0.245 A 
ATOM      9  C   UNL     1       0.693   6.814   0.039  0.00  0.00    +0.210 A 
ATOM     10  C   UNL     1      -0.553   6.124   0.049  0.00  0.00    +0.234 A 
ATOM     11  O   UNL     1      -1.613   6.728   0.049  0.00  0.00    -0.283 OA
ENDROOT
BRANCH   1  12
ATOM     12  O   UNL     1      -0.288   0.538   0.094  0.00  0.00    -0.483 OA
BRANCH  12  13
ATOM     13  C   UNL     1      -1.529  -0.171   0.105  0.00  0.00    +0.324 C 
BRANCH  13  15
ATOM     14  N   UNL     1      -2.288  -2.525   0.127  0.00  0.00    -0.282 N 
ATOM     15  C   UNL     1      -1.260  -1.653   0.116  0.00  0.00    +0.255 C 
ATOM     16  O   UNL     1      -0.118  -2.063   0.115  0.00  0.00    -0.272 OA
ATOM     17  H   UNL     1      -3.199  -2.200   0.210  0.00  0.00    +0.155 HD
BRANCH  14  22
ATOM     18  C   UNL     1      -1.294  -8.093  -0.312  0.00  0.00    +0.044 C 
ATOM     19  C   UNL     1      -1.558  -6.614  -0.195  0.00  0.00    -0.050 A 
ATOM     20  C   UNL     1      -0.644  -5.707  -0.702  0.00  0.00    +0.005 A 
ATOM     21  C   UNL     1      -0.883  -4.351  -0.596  0.00  0.00    +0.024 A 
ATOM     22  C   UNL     1      -2.043  -3.898   0.019  0.00  0.00    +0.036 A 
ATOM     23  C   UNL     1      -2.956  -4.810   0.531  0.00  0.00    -0.029 A 
ATOM     24  C   UNL     1      -2.713  -6.165   0.418  0.00  0.00    +0.008 A 
ATOM     25  C   UNL     1      -4.212  -4.322   1.205  0.00  0.00    +0.045 C 
ENDBRANCH  14  22
ENDBRANCH  13  15
ENDBRANCH  12  13
ENDBRANCH   1  12
BRANCH   9  26
ATOM     26  O   UNL     1       0.723   8.175   0.028  0.00  0.00    -0.449 OA
BRANCH  26  27
ATOM     27  C   UNL     1       1.931   8.785  -0.089  0.00  0.00    +0.132 A 
ATOM     28  C   UNL     1       2.569   9.286   1.038  0.00  0.00    +0.050 A 
ATOM     29  C   UNL     1       3.797   9.905   0.916  0.00  0.00    -0.047 A 
ATOM     30  C   UNL     1       4.392  10.027  -0.326  0.00  0.00    +0.004 A 
ATOM     31  C   UNL     1       3.759   9.529  -1.450  0.00  0.00    +0.007 A 
ATOM     32  C   UNL     1       2.533   8.904  -1.334  0.00  0.00    -0.008 A 
ATOM     33  C   UNL     1       1.846   8.356  -2.558  0.00  0.00    +0.047 C 
ATOM     34  C   UNL     1       4.490  10.450   2.139  0.00  0.00    +0.044 C 
ENDBRANCH  26  27
ENDBRANCH   9  26
TORSDOF 6
