REMARK  Name = ZINC33859851
REMARK  14 active torsions:
REMARK  status: ('A' for Active; 'I' for Inactive)
REMARK    1  A    between atoms: C_1  and  C_2
REMARK    2  A    between atoms: C_2  and  C_28
REMARK    3  A    between atoms: C_4  and  C_26
REMARK    4  A    between atoms: C_4  and  C_27
REMARK    5  A    between atoms: C_9  and  O_11
REMARK    6  A    between atoms: O_11  and  C_12
REMARK    7  A    between atoms: C_12  and  C_13
REMARK    8  A    between atoms: N_15  and  C_16
REMARK    9  A    between atoms: C_16  and  C_18
REMARK   10  A    between atoms: C_16  and  C_23
REMARK   11  A    between atoms: C_18  and  C_19
REMARK   12  A    between atoms: C_19  and  C_20
REMARK   13  A    between atoms: C_20  and  C_21
REMARK   14  A    between atoms: C_21  and  N_22
REMARK                            x       y       z     vdW  Elec       q    Type
REMARK                         _______ _______ _______ _____ _____    ______ ____
ROOT
ATOM      1  C   UNL     1       3.221  -3.088   5.955  0.00  0.00    +0.251 C 
ATOM      2  O   UNL     1       3.893  -3.976   5.475  0.00  0.00    -0.272 OA
ATOM      3  N   UNL     1       3.201  -2.904   7.290  0.00  0.00    -0.301 N 
ATOM      4  H   UNL     1       2.664  -2.194   7.674  0.00  0.00    +0.150 HD
ENDROOT
BRANCH   1   5
ATOM      5  C   UNL     1       2.409  -2.189   5.059  0.00  0.00    +0.324 C 
BRANCH   5   6
ATOM      6  O   UNL     1       2.595  -2.580   3.697  0.00  0.00    -0.483 OA
BRANCH   6  15
ATOM      7  C   UNL     1       0.006   1.745  -0.304  0.00  0.00    +0.016 C 
ATOM      8  C   UNL     1      -0.054   0.219  -0.401  0.00  0.00    -0.009 C 
ATOM      9  C   UNL     1       0.801  -0.276  -1.587  0.00  0.00    +0.022 C 
ATOM     10  C   UNL     1       1.362  -1.612  -1.057  0.00  0.00    -0.009 C 
ATOM     11  C   UNL     1       1.384  -1.463   0.449  0.00  0.00    -0.035 A 
ATOM     12  C   UNL     1       0.570  -0.410   0.827  0.00  0.00    -0.038 A 
ATOM     13  C   UNL     1       0.435  -0.087   2.166  0.00  0.00    +0.008 A 
ATOM     14  C   UNL     1       1.111  -0.810   3.129  0.00  0.00    +0.046 A 
ATOM     15  C   UNL     1       1.927  -1.866   2.753  0.00  0.00    +0.121 A 
ATOM     16  C   UNL     1       2.062  -2.190   1.412  0.00  0.00    +0.050 A 
ATOM     17  C   UNL     1       2.779  -1.842  -1.588  0.00  0.00    +0.016 C 
ATOM     18  C   UNL     1       0.448  -2.770  -1.463  0.00  0.00    +0.016 C 
ATOM     19  C   UNL     1      -1.503  -0.246  -0.558  0.00  0.00    +0.016 C 
ENDBRANCH   6  15
ENDBRANCH   5   6
ENDBRANCH   1   5
BRANCH   3  20
ATOM     20  C   UNL     1       3.991  -3.778   8.161  0.00  0.00    +0.159 C 
BRANCH  20  21
ATOM     21  C   UNL     1       3.204  -5.027   8.466  0.00  0.00    +0.231 C 
ATOM     22  O   UNL     1       2.094  -5.173   8.002  0.00  0.00    -0.274 OA
ATOM     23  N   UNL     1       3.735  -5.982   9.255  0.00  0.00    -0.328 N 
ATOM     24  H   UNL     1       4.623  -5.866   9.627  0.00  0.00    +0.145 HD
ATOM     25  H   UNL     1       3.229  -6.786   9.452  0.00  0.00    +0.145 HD
ENDBRANCH  20  21
BRANCH  20  26
ATOM     26  C   UNL     1       4.309  -3.045   9.466  0.00  0.00    +0.032 C 
BRANCH  26  27
ATOM     27  C   UNL     1       5.213  -1.846   9.169  0.00  0.00    +0.000 C 
BRANCH  27  28
ATOM     28  C   UNL     1       5.531  -1.113  10.474  0.00  0.00    -0.019 C 
BRANCH  28  29
ATOM     29  C   UNL     1       6.434   0.086  10.178  0.00  0.00    -0.086 C 
BRANCH  29  30
ATOM     30  N   UNL     1       6.740   0.790  11.430  0.00  0.00    +0.378 N 
ATOM     31  H   UNL     1       5.882   1.112  11.853  0.00  0.00    -0.090 HD
ATOM     32  H   UNL     1       7.212   0.162  12.062  0.00  0.00    -0.090 HD
ATOM     33  H   UNL     1       7.336   1.581  11.235  0.00  0.00    -0.090 HD
ENDBRANCH  29  30
ENDBRANCH  28  29
ENDBRANCH  27  28
ENDBRANCH  26  27
ENDBRANCH  20  26
ENDBRANCH   3  20
TORSDOF 10
