REMARK  Name = ZINC67022035
REMARK  3 active torsions:
REMARK  status: ('A' for Active; 'I' for Inactive)
REMARK    1  A    between atoms: C_3  and  C_11
REMARK    2  A    between atoms: N_13  and  C_14
REMARK    3  A    between atoms: C_15  and  C_24
REMARK                            x       y       z     vdW  Elec       q    Type
REMARK                         _______ _______ _______ _____ _____    ______ ____
ROOT
ATOM      1  C   UNL     1       4.818   4.233  -0.022  0.00  0.00    +0.085 A 
ATOM      2  C   UNL     1       4.988   5.607  -0.010  0.00  0.00    +0.068 A 
ATOM      3  C   UNL     1       6.354   6.113  -0.022  0.00  0.00    -0.023 A 
ATOM      4  C   UNL     1       7.295   5.147  -0.050  0.00  0.00    -0.004 A 
ATOM      5  S   UNL     1       6.384   3.628  -0.041  0.00  0.00    -0.077 S 
ATOM      6  C   UNL     1       8.782   5.319  -0.088  0.00  0.00    +0.043 C 
ATOM      7  C   UNL     1       9.200   6.322   0.995  0.00  0.00    +0.005 C 
ATOM      8  C   UNL     1       9.166   7.726   0.399  0.00  0.00    +0.001 C 
ATOM      9  C   UNL     1       8.053   7.830  -0.641  0.00  0.00    +0.005 C 
ATOM     10  C   UNL     1       6.692   7.597   0.008  0.00  0.00    +0.037 C 
ENDROOT
BRANCH   2  11
ATOM     11  C   UNL     1       3.839   6.517   0.014  0.00  0.00    +0.244 C 
ATOM     12  O   UNL     1       3.375   6.884   1.078  0.00  0.00    -0.270 OA
ATOM     13  N   UNL     1       3.296   6.947  -1.142  0.00  0.00    -0.325 N 
ATOM     14  H   UNL     1       3.665   6.654  -1.990  0.00  0.00    +0.145 HD
ATOM     15  H   UNL     1       2.535   7.549  -1.126  0.00  0.00    +0.145 HD
ENDBRANCH   2  11
BRANCH   1  18
ATOM     16  C   UNL     1       3.651   2.174  -0.023  0.00  0.00    +0.252 C 
ATOM     17  O   UNL     1       4.714   1.583  -0.037  0.00  0.00    -0.270 OA
ATOM     18  N   UNL     1       3.630   3.521  -0.014  0.00  0.00    -0.275 N 
ATOM     19  H   UNL     1       2.782   3.993  -0.003  0.00  0.00    +0.156 HD
BRANCH  16  22
ATOM     20  C   UNL     1      -0.017   1.380   0.010  0.00  0.00    +0.005 A 
ATOM     21  C   UNL     1       1.163   2.092   0.002  0.00  0.00    +0.017 A 
ATOM     22  C   UNL     1       2.386   1.416  -0.014  0.00  0.00    +0.082 A 
ATOM     23  C   UNL     1       2.405   0.015  -0.023  0.00  0.00    +0.174 A 
ATOM     24  C   UNL     1       1.207  -0.690  -0.013  0.00  0.00    +0.163 A 
ATOM     25  C   UNL     1       0.002  -0.004   0.002  0.00  0.00    +0.049 A 
ATOM     26  O   UNL     1       1.201  -2.051  -0.013  0.00  0.00    -0.485 OA
ATOM     27  C   UNL     1       2.416  -2.700  -0.403  0.00  0.00    +0.270 C 
ATOM     28  C   UNL     1       3.580  -2.020   0.329  0.00  0.00    +0.270 C 
ATOM     29  O   UNL     1       3.596  -0.637  -0.042  0.00  0.00    -0.484 OA
ENDBRANCH  16  22
ENDBRANCH   1  18
TORSDOF 3
