REMARK  Name = ZINC08899951
REMARK  5 active torsions:
REMARK  status: ('A' for Active; 'I' for Inactive)
REMARK    1  A    between atoms: C_3  and  C_7
REMARK    2  A    between atoms: C_11  and  N_16
REMARK    3  A    between atoms: C_17  and  C_19
REMARK    4  A    between atoms: C_20  and  C_21
REMARK    5  A    between atoms: C_24  and  C_26
REMARK                            x       y       z     vdW  Elec       q    Type
REMARK                         _______ _______ _______ _____ _____    ______ ____
ROOT
ATOM      1  N   UNL     1      -1.945  -4.384  -0.002  0.00  0.00    -0.282 N 
ATOM      2  C   UNL     1      -2.113  -3.056  -0.163  0.00  0.00    +0.241 C 
ATOM      3  O   UNL     1      -3.231  -2.597  -0.308  0.00  0.00    -0.270 OA
ATOM      4  H   UNL     1      -1.051  -4.758   0.037  0.00  0.00    +0.155 HD
ENDROOT
BRANCH   1   9
ATOM      5  C   UNL     1      -7.226  -6.562   1.212  0.00  0.00    +0.230 A 
ATOM      6  N   UNL     1      -6.557  -5.449   1.376  0.00  0.00    -0.209 NA
ATOM      7  C   UNL     1      -5.319  -5.600   0.840  0.00  0.00    +0.112 A 
ATOM      8  C   UNL     1      -4.206  -4.762   0.734  0.00  0.00    +0.055 A 
ATOM      9  C   UNL     1      -3.061  -5.221   0.111  0.00  0.00    +0.036 A 
ATOM     10  C   UNL     1      -3.010  -6.516  -0.401  0.00  0.00    +0.027 A 
ATOM     11  C   UNL     1      -4.102  -7.351  -0.296  0.00  0.00    +0.050 A 
ATOM     12  C   UNL     1      -5.260  -6.904   0.322  0.00  0.00    +0.156 A 
ATOM     13  O   UNL     1      -6.463  -7.469   0.573  0.00  0.00    -0.435 OA
BRANCH   5  16
ATOM     14  C   UNL     1     -10.544  -8.184   1.880  0.00  0.00    +0.020 A 
ATOM     15  C   UNL     1      -9.245  -8.020   1.433  0.00  0.00    +0.016 A 
ATOM     16  C   UNL     1      -8.615  -6.791   1.663  0.00  0.00    +0.055 A 
ATOM     17  C   UNL     1      -9.322  -5.783   2.320  0.00  0.00    +0.123 A 
ATOM     18  N   UNL     1     -10.560  -5.987   2.722  0.00  0.00    -0.263 NA
ATOM     19  C   UNL     1     -11.176  -7.137   2.524  0.00  0.00    +0.111 A 
ENDBRANCH   5  16
ENDBRANCH   1   9
BRANCH   2  20
ATOM     20  C   UNL     1      -0.990  -2.196  -0.165  0.00  0.00    +0.071 C 
ATOM     21  C   UNL     1      -1.159  -0.859  -0.328  0.00  0.00    +0.051 C 
BRANCH  21  22
ATOM     22  C   UNL     1      -0.036   0.000  -0.330  0.00  0.00    +0.129 A 
ATOM     23  C   UNL     1      -0.064   1.374  -0.485  0.00  0.00    +0.050 A 
ATOM     24  C   UNL     1       1.260   1.814  -0.422  0.00  0.00    +0.050 A 
ATOM     25  C   UNL     1       2.043   0.710  -0.234  0.00  0.00    +0.136 A 
ATOM     26  O   UNL     1       1.252  -0.376  -0.179  0.00  0.00    -0.455 OA
BRANCH  25  27
ATOM     27  C   UNL     1       3.514   0.709  -0.110  0.00  0.00    +0.020 A 
ATOM     28  C   UNL     1       4.225   1.908  -0.189  0.00  0.00    +0.031 A 
ATOM     29  C   UNL     1       5.600   1.901  -0.068  0.00  0.00    +0.043 A 
ATOM     30  C   UNL     1       6.275   0.707   0.122  0.00  0.00    +0.040 A 
ATOM     31  C   UNL     1       5.577  -0.486   0.196  0.00  0.00    +0.043 A 
ATOM     32  C   UNL     1       4.201  -0.492   0.081  0.00  0.00    +0.031 A 
ATOM     33 CL   UNL     1       6.433  -1.978   0.432  0.00  0.00    -0.083 Cl
ATOM     34 CL   UNL     1       6.485   3.392  -0.160  0.00  0.00    -0.083 Cl
ENDBRANCH  25  27
ENDBRANCH  21  22
ENDBRANCH   2  20
TORSDOF 5
