REMARK  Name = ZINC63140497
REMARK  5 active torsions:
REMARK  status: ('A' for Active; 'I' for Inactive)
REMARK    1  A    between atoms: C_1  and  O_2
REMARK    2  A    between atoms: O_2  and  C_3
REMARK    3  A    between atoms: C_6  and  C_9
REMARK    4  A    between atoms: N_28  and  C_31
REMARK    5  A    between atoms: C_31  and  C_32
REMARK                            x       y       z     vdW  Elec       q    Type
REMARK                         _______ _______ _______ _____ _____    ______ ____
ROOT
ATOM      1  C   UNL     1       2.811  -2.419   4.314  0.00  0.00    +0.133 C 
ATOM      2  C   UNL     1       1.762  -2.810   5.355  0.00  0.00    +0.131 C 
ATOM      3  C   UNL     1       1.030  -4.018   4.776  0.00  0.00    -0.034 C 
ATOM      4  C   UNL     1      -0.243  -3.669   4.646  0.00  0.00    -0.001 A 
ATOM      5  C   UNL     1      -1.421  -4.415   4.173  0.00  0.00    +0.010 A 
ATOM      6  C   UNL     1      -2.598  -3.736   4.167  0.00  0.00    +0.001 A 
ATOM      7  C   UNL     1      -2.720  -2.405   4.580  0.00  0.00    +0.002 A 
ATOM      8  C   UNL     1      -1.692  -1.644   5.030  0.00  0.00    +0.026 A 
ATOM      9  C   UNL     1      -0.402  -2.249   5.084  0.00  0.00    +0.043 A 
ATOM     10  N   UNL     1       0.750  -1.753   5.488  0.00  0.00    -0.375 N 
ATOM     11  C   UNL     1       1.764  -5.287   4.439  0.00  0.00    +0.065 C 
ATOM     12  C   UNL     1       3.086  -4.957   3.796  0.00  0.00    +0.167 C 
ATOM     13  N   UNL     1       3.526  -3.579   3.803  0.00  0.00    -0.279 N 
ATOM     14  C   UNL     1       4.743  -3.349   3.209  0.00  0.00    +0.234 C 
ATOM     15  O   UNL     1       5.252  -2.248   3.210  0.00  0.00    -0.274 OA
ATOM     16  C   UNL     1       5.420  -4.535   2.555  0.00  0.00    +0.204 C 
ATOM     17  N   UNL     1       4.410  -5.283   1.784  0.00  0.00    -0.287 N 
ATOM     18  C   UNL     1       3.224  -5.526   2.406  0.00  0.00    +0.237 C 
ATOM     19  O   UNL     1       2.337  -6.161   1.877  0.00  0.00    -0.274 OA
ATOM     20  H   UNL     1       0.913  -0.853   5.812  0.00  0.00    +0.160 HD
ENDROOT
BRANCH   1  24
ATOM     21  C   UNL     1       0.873  -0.435   1.063  0.00  0.00    +0.120 A 
ATOM     22  C   UNL     1       1.503   0.305   2.053  0.00  0.00    +0.046 A 
ATOM     23  C   UNL     1       2.128  -0.338   3.103  0.00  0.00    +0.009 A 
ATOM     24  C   UNL     1       2.127  -1.720   3.168  0.00  0.00    -0.025 A 
ATOM     25  C   UNL     1       1.500  -2.460   2.183  0.00  0.00    +0.009 A 
ATOM     26  C   UNL     1       0.868  -1.821   1.133  0.00  0.00    +0.046 A 
BRANCH  21  28
ATOM     27  C   UNL     1       0.301   1.624   0.021  0.00  0.00    +0.277 C 
ATOM     28  O   UNL     1       0.257   0.196   0.029  0.00  0.00    -0.495 OA
ENDBRANCH  21  28
ENDBRANCH   1  24
BRANCH  17  29
ATOM     29  C   UNL     1       4.670  -5.741   0.417  0.00  0.00    +0.145 C 
BRANCH  29  30
ATOM     30  C   UNL     1       4.105  -4.745  -0.563  0.00  0.00    -0.012 A 
ATOM     31  C   UNL     1       2.859  -4.957  -1.123  0.00  0.00    +0.008 A 
ATOM     32  C   UNL     1       2.340  -4.044  -2.021  0.00  0.00    +0.020 A 
ATOM     33  C   UNL     1       3.067  -2.917  -2.360  0.00  0.00    +0.042 A 
ATOM     34  C   UNL     1       4.314  -2.704  -1.800  0.00  0.00    +0.040 A 
ATOM     35  C   UNL     1       4.831  -3.616  -0.897  0.00  0.00    +0.047 A 
ATOM     36 CL   UNL     1       6.393  -3.346  -0.189  0.00  0.00    -0.083 Cl
ATOM     37 CL   UNL     1       2.415  -1.771  -3.489  0.00  0.00    -0.083 Cl
ENDBRANCH  29  30
ENDBRANCH  17  29
TORSDOF 4
