REMARK  Name = ZINC38893857
REMARK  5 active torsions:
REMARK  status: ('A' for Active; 'I' for Inactive)
REMARK    1  A    between atoms: C_5  and  N_7
REMARK    2  A    between atoms: C_8  and  C_10
REMARK    3  A    between atoms: N_15  and  C_17
REMARK    4  A    between atoms: C_17  and  C_18
REMARK    5  A    between atoms: C_20  and  C_23
REMARK                            x       y       z     vdW  Elec       q    Type
REMARK                         _______ _______ _______ _____ _____    ______ ____
ROOT
ATOM      1  C   UNL     1       0.119  -4.276   0.191  0.00  0.00    +0.059 C 
ATOM      2  C   UNL     1       0.914  -4.686   1.434  0.00  0.00    +0.009 C 
ATOM      3  C   UNL     1       0.875  -6.210   1.574  0.00  0.00    -0.018 C 
ATOM      4  C   UNL     1      -0.582  -6.673   1.639  0.00  0.00    -0.078 C 
ATOM      5  N   UNL     1      -1.281  -6.275   0.412  0.00  0.00    +0.386 N 
ATOM      6  C   UNL     1      -1.310  -4.811   0.306  0.00  0.00    -0.065 C 
ATOM      7  H   UNL     1      -0.800  -6.659  -0.388  0.00  0.00    -0.081 HD
ENDROOT
BRANCH   1   9
ATOM      8  N   UNL     1       1.237  -2.080  -0.022  0.00  0.00    -0.284 N 
ATOM      9  C   UNL     1       0.086  -2.773   0.087  0.00  0.00    +0.219 C 
ATOM     10  O   UNL     1      -0.976  -2.187   0.102  0.00  0.00    -0.275 OA
ATOM     11  H   UNL     1       2.080  -2.551  -0.115  0.00  0.00    +0.155 HD
BRANCH   8  16
ATOM     12  C   UNL     1       0.153   1.372   0.637  0.00  0.00    +0.002 A 
ATOM     13  C   UNL     1       1.173   2.086   0.035  0.00  0.00    +0.001 A 
ATOM     14  C   UNL     1       2.214   1.421  -0.586  0.00  0.00    +0.017 A 
ATOM     15  C   UNL     1       2.239   0.040  -0.607  0.00  0.00    +0.039 A 
ATOM     16  C   UNL     1       1.216  -0.681  -0.003  0.00  0.00    +0.047 A 
ATOM     17  C   UNL     1       0.172  -0.009   0.620  0.00  0.00    +0.024 A 
ATOM     18 BR   UNL     1       3.662  -0.869  -1.458  0.00  0.00    -0.048 Br
ENDBRANCH   8  16
ENDBRANCH   1   9
BRANCH   5  19
ATOM     19  C   UNL     1      -2.657  -6.789   0.445  0.00  0.00    +0.022 C 
BRANCH  19  20
ATOM     20  C   UNL     1      -2.631  -8.296   0.418  0.00  0.00    +0.211 A 
ATOM     21  N   UNL     1      -2.591  -9.075   1.461  0.00  0.00    -0.193 NA
ATOM     22  C   UNL     1      -2.577 -10.363   1.074  0.00  0.00    +0.202 A 
ATOM     23  N   UNL     1      -2.610 -10.407  -0.235  0.00  0.00    -0.056 NA
ATOM     24  O   UNL     1      -2.651  -9.060  -0.682  0.00  0.00    -0.340 OA
BRANCH  22  25
ATOM     25  C   UNL     1      -2.534 -11.538   1.979  0.00  0.00    +0.023 A 
ATOM     26  C   UNL     1      -2.508 -11.356   3.360  0.00  0.00    +0.014 A 
ATOM     27  C   UNL     1      -2.468 -12.452   4.198  0.00  0.00    +0.039 A 
ATOM     28  C   UNL     1      -2.453 -13.732   3.667  0.00  0.00    +0.123 A 
ATOM     29  C   UNL     1      -2.478 -13.917   2.295  0.00  0.00    +0.039 A 
ATOM     30  C   UNL     1      -2.524 -12.827   1.450  0.00  0.00    +0.014 A 
ATOM     31  F   UNL     1      -2.414 -14.802   4.491  0.00  0.00    -0.205 F 
ENDBRANCH  22  25
ENDBRANCH  19  20
ENDBRANCH   5  19
TORSDOF 5
