REMARK  Name = ZINC45677889
REMARK  10 active torsions:
REMARK  status: ('A' for Active; 'I' for Inactive)
REMARK    1  A    between atoms: C_1  and  C_2
REMARK    2  A    between atoms: C_5  and  C_7
REMARK    3  A    between atoms: C_7  and  N_8
REMARK    4  A    between atoms: N_11  and  C_12
REMARK    5  A    between atoms: C_12  and  C_13
REMARK    6  A    between atoms: C_13  and  C_14
REMARK    7  A    between atoms: C_14  and  C_15
REMARK    8  A    between atoms: C_16  and  C_27
REMARK    9  A    between atoms: C_17  and  N_26
REMARK   10  A    between atoms: N_18  and  C_20
REMARK                            x       y       z     vdW  Elec       q    Type
REMARK                         _______ _______ _______ _____ _____    ______ ____
ROOT
ATOM      1  C   UNL     1       2.955  -9.122  -5.023  0.00  0.00    +0.060 C 
ENDROOT
BRANCH   1   2
ATOM      2  C   UNL     1       3.032  -9.332  -6.513  0.00  0.00    +0.083 A 
ATOM      3  C   UNL     1       2.000  -9.850  -7.331  0.00  0.00    +0.114 A 
ATOM      4  C   UNL     1       2.488  -9.875  -8.635  0.00  0.00    +0.138 A 
ATOM      5  N   UNL     1       3.752  -9.395  -8.595  0.00  0.00    -0.217 N 
ATOM      6  N   UNL     1       4.058  -9.062  -7.271  0.00  0.00    -0.168 NA
BRANCH   5   7
ATOM      7  C   UNL     1       4.608  -9.249  -9.695  0.00  0.00    +0.067 A 
ATOM      8  C   UNL     1       4.568 -10.169 -10.734  0.00  0.00    +0.028 A 
ATOM      9  C   UNL     1       5.413 -10.023 -11.817  0.00  0.00    +0.002 A 
ATOM     10  C   UNL     1       6.297  -8.962 -11.867  0.00  0.00    +0.000 A 
ATOM     11  C   UNL     1       6.340  -8.044 -10.834  0.00  0.00    +0.002 A 
ATOM     12  C   UNL     1       5.494  -8.181  -9.751  0.00  0.00    +0.028 A 
ENDBRANCH   5   7
BRANCH   4  13
ATOM     13  N   UNL     1       1.810 -10.309  -9.757  0.00  0.00    -0.342 N 
ATOM     14  H   UNL     1       0.901 -10.638  -9.677  0.00  0.00    +0.144 HD
ATOM     15  H   UNL     1       2.243 -10.286 -10.625  0.00  0.00    +0.144 HD
ENDBRANCH   4  13
BRANCH   3  16
ATOM     16  C   UNL     1       0.701 -10.268  -6.900  0.00  0.00    +0.104 C 
ATOM     17  N   UNL     1      -0.331 -10.601  -6.558  0.00  0.00    -0.191 NA
ENDBRANCH   3  16
ENDBRANCH   1   2
BRANCH   1  18
ATOM     18  C   UNL     1       2.422  -7.717  -4.732  0.00  0.00    +0.025 C 
BRANCH  18  19
ATOM     19  C   UNL     1       2.345  -7.504  -3.219  0.00  0.00    +0.106 C 
BRANCH  19  23
ATOM     20  N   UNL     1       1.210  -4.510  -1.412  0.00  0.00    -0.295 N 
ATOM     21  C   UNL     1       1.680  -5.747  -1.667  0.00  0.00    +0.300 C 
ATOM     22  O   UNL     1       1.965  -6.491  -0.749  0.00  0.00    -0.253 OA
ATOM     23  N   UNL     1       1.834  -6.159  -2.941  0.00  0.00    -0.299 N 
ATOM     24  H   UNL     1       0.983  -3.917  -2.144  0.00  0.00    +0.151 HD
ATOM     25  H   UNL     1       1.606  -5.566  -3.674  0.00  0.00    +0.150 HD
BRANCH  20  26
ATOM     26  C   UNL     1       1.043  -4.062  -0.027  0.00  0.00    +0.148 C 
BRANCH  26  31
ATOM     27  C   UNL     1      -0.018   1.503   0.010  0.00  0.00    +0.051 C 
ATOM     28  C   UNL     1       0.002  -0.004   0.002  0.00  0.00    -0.013 A 
ATOM     29  C   UNL     1      -1.039  -0.872   0.002  0.00  0.00    +0.011 A 
ATOM     30  C   UNL     1      -0.780  -2.230  -0.007  0.00  0.00    +0.013 A 
ATOM     31  C   UNL     1       0.507  -2.653  -0.016  0.00  0.00    +0.007 A 
ATOM     32  S   UNL     1       1.404  -1.109  -0.018  0.00  0.00    -0.097 S 
ENDBRANCH  26  31
ENDBRANCH  20  26
ENDBRANCH  19  23
ENDBRANCH  18  19
ENDBRANCH   1  18
TORSDOF 9
