REMARK  Name = ZINC23055312
REMARK  12 active torsions:
REMARK  status: ('A' for Active; 'I' for Inactive)
REMARK    1  A    between atoms: C_1  and  C_2
REMARK    2  A    between atoms: C_3  and  C_14
REMARK    3  A    between atoms: C_4  and  C_13
REMARK    4  A    between atoms: C_9  and  S_11
REMARK    5  A    between atoms: S_11  and  C_12
REMARK    6  A    between atoms: C_14  and  C_15
REMARK    7  A    between atoms: C_15  and  C_16
REMARK    8  A    between atoms: N_18  and  C_19
REMARK    9  A    between atoms: C_19  and  C_20
REMARK   10  A    between atoms: C_20  and  C_22
REMARK   11  A    between atoms: C_20  and  N_27
REMARK   12  A    between atoms: C_30  and  C_33
REMARK                            x       y       z     vdW  Elec       q    Type
REMARK                         _______ _______ _______ _____ _____    ______ ____
ROOT
ATOM      1  C   UNL     1       4.896   6.470  -1.211  0.00  0.00    +0.213 C 
ATOM      2  O   UNL     1       5.100   7.151  -0.229  0.00  0.00    -0.276 OA
ATOM      3  N   UNL     1       5.192   6.949  -2.436  0.00  0.00    -0.317 N 
ATOM      4  H   UNL     1       5.006   6.331  -3.327  0.00  0.00    +0.149 HD
ENDROOT
BRANCH   1   5
ATOM      5  C   UNL     1       4.311   5.089  -1.063  0.00  0.00    +0.100 C 
BRANCH   5   6
ATOM      6  C   UNL     1       4.071   4.794   0.419  0.00  0.00    +0.048 C 
BRANCH   6   9
ATOM      7  C   UNL     1       5.819   2.489   0.748  0.00  0.00    +0.066 C 
ATOM      8  C   UNL     1       4.323   2.303   0.726  0.00  0.00    +0.047 A 
ATOM      9  C   UNL     1       3.486   3.413   0.568  0.00  0.00    -0.005 A 
ATOM     10  C   UNL     1       2.139   3.231   0.550  0.00  0.00    +0.048 A 
ATOM     11  N   UNL     1       1.642   1.975   0.687  0.00  0.00    -0.200 N 
ATOM     12  C   UNL     1       2.487   0.912   0.840  0.00  0.00    +0.254 A 
ATOM     13  N   UNL     1       3.811   1.100   0.856  0.00  0.00    -0.216 NA
ATOM     14  N   UNL     1       1.736  -0.179   0.949  0.00  0.00    -0.183 NA
ATOM     15  C   UNL     1       0.449   0.152   0.871  0.00  0.00    +0.211 A 
ATOM     16  N   UNL     1       0.340   1.456   0.711  0.00  0.00    -0.137 NA
ATOM     17  C   UNL     1       1.212   4.407   0.381  0.00  0.00    +0.066 C 
BRANCH  15  18
ATOM     18  S   UNL     1      -0.900  -0.978   0.965  0.00  0.00    -0.088 S 
ATOM     19  C   UNL     1      -0.105  -2.593   1.183  0.00  0.00    +0.093 C 
ENDBRANCH  15  18
ENDBRANCH   6   9
ENDBRANCH   5   6
ENDBRANCH   1   5
BRANCH   3  20
ATOM     20  C   UNL     1       5.760   8.291  -2.580  0.00  0.00    +0.094 C 
BRANCH  20  21
ATOM     21  C   UNL     1       6.001   8.586  -4.062  0.00  0.00    -0.013 C 
BRANCH  21  22
ATOM     22  N   UNL     1       4.750   8.396  -4.809  0.00  0.00    +0.386 N 
ATOM     23  C   UNL     1       3.627   9.057  -4.131  0.00  0.00    -0.078 C 
ATOM     24  C   UNL     1       2.322   8.718  -4.854  0.00  0.00    -0.015 C 
ATOM     25  C   UNL     1       2.413   9.189  -6.308  0.00  0.00    -0.018 C 
ATOM     26  C   UNL     1       3.618   8.523  -6.978  0.00  0.00    -0.015 C 
ATOM     27  C   UNL     1       4.886   8.868  -6.193  0.00  0.00    -0.078 C 
ATOM     28  C   UNL     1       1.134   8.798  -7.053  0.00  0.00    +0.007 C 
ATOM     29  H   UNL     1       4.534   7.318  -4.841  0.00  0.00    -0.081 HD
ENDBRANCH  21  22
BRANCH  21  30
ATOM     30  C   UNL     1       6.469  10.010  -4.221  0.00  0.00    -0.022 A 
ATOM     31  C   UNL     1       7.705  10.472  -4.532  0.00  0.00    +0.009 A 
ATOM     32  C   UNL     1       7.907  11.836  -4.626  0.00  0.00    +0.008 A 
ATOM     33  C   UNL     1       6.863  12.671  -4.404  0.00  0.00    +0.045 A 
ATOM     34  S   UNL     1       5.539  11.525  -4.057  0.00  0.00    -0.103 S 
ENDBRANCH  21  30
ENDBRANCH  20  21
ENDBRANCH   3  20
TORSDOF 8
