REMARK  Name = ZINC20116704
REMARK  17 active torsions:
REMARK  status: ('A' for Active; 'I' for Inactive)
REMARK    1  A    between atoms: C_1  and  C_2
REMARK    2  A    between atoms: C_2  and  N_3
REMARK    3  A    between atoms: N_3  and  C_4
REMARK    4  A    between atoms: N_3  and  C_6
REMARK    5  A    between atoms: C_4  and  C_5
REMARK    6  A    between atoms: C_6  and  C_7
REMARK    7  A    between atoms: C_7  and  C_9
REMARK    8  A    between atoms: C_7  and  C_10
REMARK    9  A    between atoms: C_10  and  N_11
REMARK   10  A    between atoms: C_12  and  C_14
REMARK   11  A    between atoms: C_14  and  S_15
REMARK   12  A    between atoms: S_15  and  C_16
REMARK   13  A    between atoms: C_20  and  C_34
REMARK   14  A    between atoms: C_21  and  C_26
REMARK   15  A    between atoms: C_22  and  C_25
REMARK   16  A    between atoms: C_26  and  C_27
REMARK   17  A    between atoms: C_30  and  C_33
REMARK                            x       y       z     vdW  Elec       q    Type
REMARK                         _______ _______ _______ _____ _____    ______ ____
ROOT
ATOM      1  C   UNL     1      -1.515   4.060  -0.550  0.00  0.00    +0.211 A 
ATOM      2  N   UNL     1      -0.887   5.233  -0.510  0.00  0.00    -0.183 NA
ATOM      3  C   UNL     1       0.427   5.040  -0.540  0.00  0.00    +0.254 A 
ATOM      4  N   UNL     1       1.463   5.886  -0.534  0.00  0.00    -0.216 NA
ATOM      5  C   UNL     1       2.699   5.440  -0.570  0.00  0.00    +0.047 A 
ATOM      6  C   UNL     1       2.951   4.064  -0.615  0.00  0.00    -0.001 A 
ATOM      7  C   UNL     1       1.905   3.198  -0.622  0.00  0.00    +0.049 A 
ATOM      8  N   UNL     1       0.640   3.691  -0.590  0.00  0.00    -0.200 N 
ATOM      9  N   UNL     1      -0.625   3.088  -0.591  0.00  0.00    -0.137 NA
ATOM     10  C   UNL     1       2.145   1.711  -0.669  0.00  0.00    +0.066 C 
ATOM     11  C   UNL     1       3.849   6.414  -0.562  0.00  0.00    +0.066 C 
ENDROOT
BRANCH   1  12
ATOM     12  S   UNL     1      -3.263   3.839  -0.533  0.00  0.00    -0.075 S 
BRANCH  12  13
ATOM     13  C   UNL     1      -3.918   5.530  -0.474  0.00  0.00    +0.173 C 
BRANCH  13  15
ATOM     14  N   UNL     1      -6.132   6.630  -0.411  0.00  0.00    -0.314 N 
ATOM     15  C   UNL     1      -5.424   5.484  -0.455  0.00  0.00    +0.223 C 
ATOM     16  O   UNL     1      -5.999   4.417  -0.479  0.00  0.00    -0.275 OA
ATOM     17  H   UNL     1      -5.611   7.599  -0.389  0.00  0.00    +0.149 HD
BRANCH  14  18
ATOM     18  C   UNL     1      -7.596   6.586  -0.393  0.00  0.00    +0.105 C 
BRANCH  18  19
ATOM     19  C   UNL     1      -8.149   8.012  -0.343  0.00  0.00    -0.014 C 
ATOM     20  C   UNL     1      -7.782   8.747  -1.633  0.00  0.00    +0.007 C 
BRANCH  19  21
ATOM     21  C   UNL     1      -9.671   7.965  -0.198  0.00  0.00    -0.074 C 
BRANCH  21  22
ATOM     22  N   UNL     1     -10.190   9.328  -0.029  0.00  0.00    +0.380 N 
ATOM     23  H   UNL     1      -9.851   9.928  -0.887  0.00  0.00    -0.082 HD
BRANCH  22  25
ATOM     24  C   UNL     1     -12.162  10.780  -0.100  0.00  0.00    -0.017 C 
ATOM     25  C   UNL     1     -11.659   9.336  -0.026  0.00  0.00    -0.082 C 
ENDBRANCH  22  25
BRANCH  22  26
ATOM     26  C   UNL     1      -9.658   9.947   1.193  0.00  0.00    -0.082 C 
ATOM     27  C   UNL     1      -9.963   9.049   2.393  0.00  0.00    -0.017 C 
ENDBRANCH  22  26
ENDBRANCH  21  22
ENDBRANCH  19  21
ENDBRANCH  18  19
ENDBRANCH  14  18
ENDBRANCH  13  15
ENDBRANCH  12  13
ENDBRANCH   1  12
BRANCH   6  28
ATOM     28  C   UNL     1       4.367   3.550  -0.655  0.00  0.00    +0.073 C 
BRANCH  28  29
ATOM     29  C   UNL     1       4.816   3.204   0.741  0.00  0.00    -0.043 A 
ATOM     30  C   UNL     1       5.340   4.185   1.562  0.00  0.00    +0.004 A 
ATOM     31  C   UNL     1       5.748   3.869   2.844  0.00  0.00    +0.003 A 
ATOM     32  C   UNL     1       5.640   2.569   3.303  0.00  0.00    -0.050 A 
ATOM     33  C   UNL     1       5.120   1.587   2.480  0.00  0.00    +0.003 A 
ATOM     34  C   UNL     1       4.709   1.905   1.199  0.00  0.00    +0.004 A 
ATOM     35  C   UNL     1       6.089   2.223   4.699  0.00  0.00    +0.044 C 
ENDBRANCH  28  29
ENDBRANCH   6  28
TORSDOF 11
