REMARK  Name = ZINC08649309
REMARK  8 active torsions:
REMARK  status: ('A' for Active; 'I' for Inactive)
REMARK    1  A    between atoms: C_1  and  C_2
REMARK    2  A    between atoms: C_5  and  C_8
REMARK    3  A    between atoms: N_15  and  C_28
REMARK    4  A    between atoms: C_16  and  S_18
REMARK    5  A    between atoms: S_18  and  C_19
REMARK    6  A    between atoms: C_19  and  C_21
REMARK    7  A    between atoms: C_19  and  C_22
REMARK    8  A    between atoms: C_28  and  C_29
REMARK                            x       y       z     vdW  Elec       q    Type
REMARK                         _______ _______ _______ _____ _____    ______ ____
ROOT
ATOM      1  C   UNL     1       0.273  -4.196  -0.024  0.00  0.00    +0.004 A 
ATOM      2  C   UNL     1       1.547  -4.651  -0.039  0.00  0.00    +0.056 A 
ATOM      3  S   UNL     1       2.520  -3.157  -0.040  0.00  0.00    -0.076 S 
ATOM      4  C   UNL     1       1.205  -1.966  -0.020  0.00  0.00    +0.117 A 
ATOM      5  C   UNL     1       0.042  -2.754  -0.014  0.00  0.00    +0.080 A 
ATOM      6  C   UNL     1      -1.196  -2.039   0.002  0.00  0.00    +0.264 A 
ATOM      7  O   UNL     1      -2.256  -2.641   0.009  0.00  0.00    -0.267 OA
ATOM      8  N   UNL     1      -1.175  -0.694   0.010  0.00  0.00    -0.283 N 
ATOM      9  C   UNL     1       0.002  -0.004   0.002  0.00  0.00    +0.174 A 
ATOM     10  N   UNL     1       1.157  -0.639  -0.018  0.00  0.00    -0.216 NA
ENDROOT
BRANCH   1  15
ATOM     11  C   UNL     1      -4.154  -7.878  -0.001  0.00  0.00    +0.044 C 
ATOM     12  C   UNL     1      -2.995  -6.914  -0.007  0.00  0.00    -0.050 A 
ATOM     13  C   UNL     1      -1.982  -7.060  -0.938  0.00  0.00    +0.004 A 
ATOM     14  C   UNL     1      -0.919  -6.181  -0.948  0.00  0.00    +0.009 A 
ATOM     15  C   UNL     1      -0.867  -5.143  -0.019  0.00  0.00    -0.017 A 
ATOM     16  C   UNL     1      -1.889  -5.003   0.920  0.00  0.00    +0.009 A 
ATOM     17  C   UNL     1      -2.949  -5.886   0.918  0.00  0.00    +0.004 A 
ENDBRANCH   1  15
BRANCH   9  18
ATOM     18  S   UNL     1      -0.022   1.758   0.012  0.00  0.00    -0.075 S 
BRANCH  18  19
ATOM     19  C   UNL     1       1.756   2.096  -0.004  0.00  0.00    +0.137 C 
ATOM     20  C   UNL     1       2.384   1.586   1.295  0.00  0.00    +0.029 C 
BRANCH  19  21
ATOM     21  C   UNL     1       1.984   3.581  -0.121  0.00  0.00    +0.233 C 
ATOM     22  O   UNL     1       1.132   4.357   0.255  0.00  0.00    -0.274 OA
ATOM     23  N   UNL     1       3.135   4.047  -0.646  0.00  0.00    -0.239 N 
ATOM     24  C   UNL     1       3.338   5.375  -0.752  0.00  0.00    +0.303 C 
ATOM     25  O   UNL     1       2.484   6.153  -0.374  0.00  0.00    -0.253 OA
ATOM     26  N   UNL     1       4.489   5.841  -1.276  0.00  0.00    -0.313 N 
ATOM     27  H   UNL     1       3.816   3.426  -0.948  0.00  0.00    +0.159 HD
ATOM     28  H   UNL     1       5.171   5.220  -1.578  0.00  0.00    +0.146 HD
ATOM     29  H   UNL     1       4.636   6.797  -1.352  0.00  0.00    +0.146 HD
ENDBRANCH  19  21
ENDBRANCH  18  19
ENDBRANCH   9  18
BRANCH   8  30
ATOM     30  C   UNL     1      -2.441   0.044   0.026  0.00  0.00    +0.154 C 
BRANCH  30  31
ATOM     31  C   UNL     1      -2.889   0.305  -1.390  0.00  0.00    -0.013 C 
ATOM     32  C   UNL     1      -4.079  -0.077  -1.781  0.00  0.00    +0.005 C 
ENDBRANCH  30  31
ENDBRANCH   8  30
TORSDOF 6
