REMARK  Name = ZINC24217626
REMARK  8 active torsions:
REMARK  status: ('A' for Active; 'I' for Inactive)
REMARK    1  A    between atoms: C_1  and  C_2
REMARK    2  A    between atoms: C_2  and  O_3
REMARK    3  A    between atoms: O_3  and  C_4
REMARK    4  A    between atoms: C_9  and  N_10
REMARK    5  A    between atoms: C_13  and  C_17
REMARK    6  A    between atoms: C_18  and  C_20
REMARK    7  A    between atoms: C_20  and  C_21
REMARK    8  A    between atoms: C_32  and  C_34
REMARK                            x       y       z     vdW  Elec       q    Type
REMARK                         _______ _______ _______ _____ _____    ______ ____
ROOT
ATOM      1  N   UNL     1      -1.355   2.736   3.428  0.00  0.00    -0.222 NA
ATOM      2  C   UNL     1      -2.539   2.187   3.292  0.00  0.00    +0.164 C 
ATOM      3  N   UNL     1      -2.895   1.181   2.425  0.00  0.00    -0.247 N 
ATOM      4  C   UNL     1      -4.255   0.695   2.402  0.00  0.00    +0.091 C 
ATOM      5  C   UNL     1      -5.178   1.397   3.416  0.00  0.00    +0.099 C 
ATOM      6  S   UNL     1      -4.022   2.588   4.192  0.00  0.00    -0.088 S 
ATOM      7  C   UNL     1      -4.822   0.895   0.996  0.00  0.00    +0.029 C 
ATOM      8  C   UNL     1      -1.976   0.652   1.592  0.00  0.00    +0.224 C 
ATOM      9  O   UNL     1      -2.290  -0.235   0.827  0.00  0.00    -0.275 OA
ENDROOT
BRANCH   1  15
ATOM     10  C   UNL     1      -0.532   4.879   4.132  0.00  0.00    +0.146 A 
ATOM     11  C   UNL     1      -0.312   5.795   5.146  0.00  0.00    +0.048 A 
ATOM     12  C   UNL     1      -0.686   5.496   6.444  0.00  0.00    +0.004 A 
ATOM     13  C   UNL     1      -1.282   4.282   6.738  0.00  0.00    +0.002 A 
ATOM     14  C   UNL     1      -1.513   3.361   5.736  0.00  0.00    +0.031 A 
ATOM     15  C   UNL     1      -1.134   3.649   4.425  0.00  0.00    +0.108 A 
BRANCH  10  16
ATOM     16  O   UNL     1      -0.164   5.172   2.856  0.00  0.00    -0.490 OA
BRANCH  16  18
ATOM     17  C   UNL     1       0.786   6.594   1.149  0.00  0.00    +0.048 C 
ATOM     18  C   UNL     1       0.445   6.445   2.633  0.00  0.00    +0.226 C 
ENDBRANCH  16  18
ENDBRANCH  10  16
ENDBRANCH   1  15
BRANCH   8  19
ATOM     19  C   UNL     1      -0.559   1.163   1.612  0.00  0.00    +0.124 C 
BRANCH  19  20
ATOM     20  C   UNL     1       0.273   0.401   0.579  0.00  0.00    +0.120 C 
ATOM     21  C   UNL     1       1.716   0.827   0.679  0.00  0.00    -0.019 A 
ATOM     22  C   UNL     1       2.577   0.196   1.550  0.00  0.00    +0.006 A 
ATOM     23  C   UNL     1       3.895   0.611   1.640  0.00  0.00    +0.000 A 
ATOM     24  C   UNL     1       4.354   1.658   0.861  0.00  0.00    +0.001 A 
ATOM     25  C   UNL     1       3.503   2.294  -0.020  0.00  0.00    +0.008 A 
ATOM     26  C   UNL     1       2.177   1.875  -0.121  0.00  0.00    -0.019 A 
ATOM     27  C   UNL     1       1.257   2.509  -1.085  0.00  0.00    +0.023 C 
ATOM     28  C   UNL     1       0.092   1.915  -1.366  0.00  0.00    +0.079 C 
ATOM     29  N   UNL     1      -0.221   0.699  -0.769  0.00  0.00    -0.270 N 
ATOM     30  C   UNL     1      -0.976  -0.202  -1.428  0.00  0.00    +0.217 C 
ATOM     31  O   UNL     1      -1.248  -1.263  -0.906  0.00  0.00    -0.276 OA
ATOM     32  C   UNL     1      -1.483   0.107  -2.813  0.00  0.00    +0.109 C 
ENDBRANCH  19  20
ENDBRANCH   8  19
TORSDOF 5
