REMARK  Name = ZINC40010960
REMARK  11 active torsions:
REMARK  status: ('A' for Active; 'I' for Inactive)
REMARK    1  A    between atoms: C_1  and  C_2
REMARK    2  A    between atoms: C_2  and  N_3
REMARK    3  A    between atoms: N_3  and  C_4
REMARK    4  A    between atoms: C_4  and  N_6
REMARK    5  A    between atoms: C_11  and  O_33
REMARK    6  A    between atoms: C_12  and  O_31
REMARK    7  A    between atoms: C_15  and  C_17
REMARK    8  A    between atoms: C_22  and  O_29
REMARK    9  A    between atoms: O_29  and  C_30
REMARK   10  A    between atoms: O_31  and  C_32
REMARK   11  A    between atoms: O_33  and  C_34
REMARK                            x       y       z     vdW  Elec       q    Type
REMARK                         _______ _______ _______ _____ _____    ______ ____
ROOT
ATOM      1  N   UNL     1      -2.863  -2.302  -0.085  0.00  0.00    -0.304 N 
ATOM      2  C   UNL     1      -4.010  -1.384  -0.187  0.00  0.00    +0.112 C 
ATOM      3  C   UNL     1      -4.666  -1.603  -1.550  0.00  0.00    +0.054 C 
ATOM      4  C   UNL     1      -4.868  -3.071  -1.817  0.00  0.00    -0.037 A 
ATOM      5  C   UNL     1      -5.811  -3.425  -2.776  0.00  0.00    +0.053 A 
ATOM      6  C   UNL     1      -6.041  -4.754  -3.080  0.00  0.00    +0.162 A 
ATOM      7  C   UNL     1      -5.322  -5.746  -2.420  0.00  0.00    +0.162 A 
ATOM      8  C   UNL     1      -4.388  -5.391  -1.464  0.00  0.00    +0.055 A 
ATOM      9  C   UNL     1      -4.164  -4.054  -1.159  0.00  0.00    -0.019 A 
ATOM     10  C   UNL     1      -3.150  -3.740  -0.093  0.00  0.00    +0.121 C 
ENDROOT
BRANCH  10  11
ATOM     11  C   UNL     1      -3.705  -4.156   1.271  0.00  0.00    +0.123 C 
ATOM     12  C   UNL     1      -2.622  -3.924   2.305  0.00  0.00    -0.002 C 
ATOM     13  C   UNL     1      -2.915  -3.088   3.341  0.00  0.00    -0.003 A 
ATOM     14  C   UNL     1      -1.927  -2.810   4.383  0.00  0.00    +0.055 A 
ATOM     15  C   UNL     1      -2.264  -1.969   5.400  0.00  0.00    +0.121 A 
ATOM     16  C   UNL     1      -3.530  -1.374   5.461  0.00  0.00    +0.047 A 
ATOM     17  C   UNL     1      -4.487  -1.594   4.525  0.00  0.00    +0.027 A 
ATOM     18  C   UNL     1      -4.239  -2.447   3.433  0.00  0.00    +0.041 A 
ATOM     19  N   UNL     1      -5.188  -2.654   2.520  0.00  0.00    -0.284 N 
ATOM     20  C   UNL     1      -5.023  -3.442   1.472  0.00  0.00    +0.226 C 
ATOM     21  O   UNL     1      -5.927  -3.591   0.673  0.00  0.00    -0.275 OA
ATOM     22  H   UNL     1      -6.041  -2.205   2.631  0.00  0.00    +0.155 HD
BRANCH  15  23
ATOM     23  O   UNL     1      -1.354  -1.702   6.374  0.00  0.00    -0.495 OA
ATOM     24  C   UNL     1      -1.761  -0.813   7.416  0.00  0.00    +0.277 C 
ENDBRANCH  15  23
ENDBRANCH  10  11
BRANCH   1  25
ATOM     25  C   UNL     1      -1.601  -1.839   0.007  0.00  0.00    +0.133 C 
ATOM     26  S   UNL     1      -1.313  -0.157   0.143  0.00  0.00    -0.019 S 
BRANCH  25  27
ATOM     27  N   UNL     1      -0.565  -2.701  -0.007  0.00  0.00    -0.327 N 
ATOM     28  H   UNL     1      -0.729  -3.657  -0.009  0.00  0.00    +0.148 HD
BRANCH  27  30
ATOM     29  C   UNL     1       1.788  -3.371  -0.034  0.00  0.00    +0.024 C 
ATOM     30  C   UNL     1       0.810  -2.194  -0.019  0.00  0.00    +0.100 C 
ENDBRANCH  27  30
ENDBRANCH  25  27
ENDBRANCH   1  25
BRANCH   7  31
ATOM     31  O   UNL     1      -5.537  -7.057  -2.713  0.00  0.00    -0.491 OA
ATOM     32  C   UNL     1      -4.760  -8.018  -1.994  0.00  0.00    +0.277 C 
ENDBRANCH   7  31
BRANCH   6  33
ATOM     33  O   UNL     1      -6.966  -5.090  -4.018  0.00  0.00    -0.491 OA
ATOM     34  C   UNL     1      -7.665  -4.018  -4.653  0.00  0.00    +0.277 C 
ENDBRANCH   6  33
TORSDOF 7
