REMARK  Name = ZINC22430168
REMARK  11 active torsions:
REMARK  status: ('A' for Active; 'I' for Inactive)
REMARK    1  A    between atoms: C_1  and  C_2
REMARK    2  A    between atoms: C_5  and  S_8
REMARK    3  A    between atoms: S_8  and  N_11
REMARK    4  A    between atoms: N_11  and  C_12
REMARK    5  A    between atoms: N_11  and  C_31
REMARK    6  A    between atoms: C_12  and  C_13
REMARK    7  A    between atoms: N_15  and  C_16
REMARK    8  A    between atoms: C_16  and  C_18
REMARK    9  A    between atoms: C_16  and  C_24
REMARK   10  A    between atoms: C_29  and  C_30
REMARK   11  A    between atoms: C_36  and  C_37
REMARK                            x       y       z     vdW  Elec       q    Type
REMARK                         _______ _______ _______ _____ _____    ______ ____
ROOT
ATOM      1  C   UNL     1       1.005   1.457   4.036  0.00  0.00    +0.227 C 
ENDROOT
BRANCH   1   2
ATOM      2  C   UNL     1       1.493   2.648   3.252  0.00  0.00    +0.233 C 
ATOM      3  O   UNL     1       0.798   3.126   2.380  0.00  0.00    -0.274 OA
ATOM      4  N   UNL     1       2.700   3.183   3.521  0.00  0.00    -0.303 N 
ATOM      5  H   UNL     1       3.330   2.751   4.312  0.00  0.00    +0.150 HD
BRANCH   4   6
ATOM      6  C   UNL     1       3.174   4.341   2.759  0.00  0.00    +0.134 C 
BRANCH   6   7
ATOM      7  C   UNL     1       2.637   5.605   3.380  0.00  0.00    -0.020 A 
ATOM      8  C   UNL     1       2.337   5.639   4.729  0.00  0.00    +0.006 A 
ATOM      9  C   UNL     1       1.849   6.800   5.299  0.00  0.00    +0.000 A 
ATOM     10  C   UNL     1       1.651   7.923   4.518  0.00  0.00    +0.000 A 
ATOM     11  C   UNL     1       1.946   7.888   3.168  0.00  0.00    +0.004 A 
ATOM     12  C   UNL     1       2.438   6.728   2.599  0.00  0.00    -0.045 A 
ATOM     13  C   UNL     1       2.760   6.689   1.127  0.00  0.00    +0.044 C 
ENDBRANCH   6   7
BRANCH   6  14
ATOM     14  C   UNL     1       4.681   4.373   2.778  0.00  0.00    -0.023 A 
ATOM     15  C   UNL     1       5.360   4.228   3.974  0.00  0.00    +0.006 A 
ATOM     16  C   UNL     1       6.742   4.253   3.991  0.00  0.00    +0.000 A 
ATOM     17  C   UNL     1       7.444   4.432   2.814  0.00  0.00    +0.000 A 
ATOM     18  C   UNL     1       6.765   4.582   1.619  0.00  0.00    +0.000 A 
ATOM     19  C   UNL     1       5.383   4.553   1.602  0.00  0.00    +0.006 A 
ENDBRANCH   6  14
ENDBRANCH   4   6
ENDBRANCH   1   2
BRANCH   1  20
ATOM     20  N   UNL     1      -0.261   0.986   3.470  0.00  0.00    -0.194 N 
BRANCH  20  21
ATOM     21  C   UNL     1      -0.257   0.080   2.408  0.00  0.00    +0.055 A 
ATOM     22  C   UNL     1      -0.137   0.539   1.102  0.00  0.00    +0.025 A 
ATOM     23  C   UNL     1      -0.133  -0.359   0.053  0.00  0.00    +0.002 A 
ATOM     24  C   UNL     1      -0.247  -1.715   0.302  0.00  0.00    +0.000 A 
ATOM     25  C   UNL     1      -0.361  -2.176   1.600  0.00  0.00    +0.005 A 
ATOM     26  C   UNL     1      -0.371  -1.283   2.653  0.00  0.00    -0.028 A 
ATOM     27  C   UNL     1      -0.500  -1.786   4.068  0.00  0.00    +0.046 C 
ENDBRANCH  20  21
BRANCH  20  28
ATOM     28  S   UNL     1      -1.698   1.526   4.091  0.00  0.00    +0.075 S 
ATOM     29  O   UNL     1      -1.450   2.822   4.620  0.00  0.00    -0.150 OA
ATOM     30  O   UNL     1      -2.686   1.284   3.099  0.00  0.00    -0.150 OA
BRANCH  28  35
ATOM     31  C   UNL     1      -3.061  -2.015   8.783  0.00  0.00    +0.044 C 
ATOM     32  C   UNL     1      -2.721  -1.131   7.611  0.00  0.00    -0.050 A 
ATOM     33  C   UNL     1      -1.872  -0.053   7.782  0.00  0.00    +0.005 A 
ATOM     34  C   UNL     1      -1.560   0.758   6.707  0.00  0.00    +0.029 A 
ATOM     35  C   UNL     1      -2.096   0.492   5.461  0.00  0.00    +0.109 A 
ATOM     36  C   UNL     1      -2.948  -0.583   5.291  0.00  0.00    +0.029 A 
ATOM     37  C   UNL     1      -3.257  -1.397   6.365  0.00  0.00    +0.005 A 
ENDBRANCH  28  35
ENDBRANCH  20  28
ENDBRANCH   1  20
TORSDOF 8
