REMARK  Name = ZINC20758824
REMARK  4 active torsions:
REMARK  status: ('A' for Active; 'I' for Inactive)
REMARK    1  A    between atoms: C_1  and  S_2
REMARK    2  A    between atoms: S_2  and  C_3
REMARK    3  A    between atoms: C_6  and  C_9
REMARK    4  A    between atoms: C_22  and  N_25
REMARK                            x       y       z     vdW  Elec       q    Type
REMARK                         _______ _______ _______ _____ _____    ______ ____
ROOT
ATOM      1  C   UNL     1       2.413  -2.806   0.023  0.00  0.00    +0.105 C 
ATOM      2  C   UNL     1       3.442  -2.037  -0.779  0.00  0.00    +0.029 C 
ATOM      3  C   UNL     1       4.895  -2.525  -0.777  0.00  0.00    +0.033 C 
ATOM      4  C   UNL     1       5.657  -1.214  -0.989  0.00  0.00    -0.030 C 
ATOM      5  C   UNL     1       4.935  -0.193  -0.540  0.00  0.00    -0.023 C 
ATOM      6  C   UNL     1       3.673  -0.724   0.031  0.00  0.00    +0.049 C 
ATOM      7  C   UNL     1       2.401   0.029  -0.003  0.00  0.00    -0.017 A 
ATOM      8  C   UNL     1       2.373   1.408  -0.004  0.00  0.00    +0.006 A 
ATOM      9  C   UNL     1       1.169   2.085   0.002  0.00  0.00    +0.003 A 
ATOM     10  C   UNL     1      -0.017   1.373   0.010  0.00  0.00    +0.034 A 
ATOM     11  C   UNL     1       0.002  -0.004   0.002  0.00  0.00    +0.147 A 
ATOM     12  C   UNL     1       1.211  -0.703  -0.013  0.00  0.00    +0.062 A 
ATOM     13  N   UNL     1       1.151  -2.094  -0.059  0.00  0.00    -0.335 N 
ATOM     14  H   UNL     1       0.208  -2.654  -0.151  0.00  0.00    +0.147 HD
ENDROOT
BRANCH   1  18
ATOM     15  C   UNL     1       1.971  -6.746  -1.573  0.00  0.00    +0.008 A 
ATOM     16  C   UNL     1       2.753  -6.535  -0.444  0.00  0.00    +0.015 A 
ATOM     17  C   UNL     1       2.894  -5.261   0.069  0.00  0.00    +0.006 A 
ATOM     18  C   UNL     1       2.257  -4.195  -0.540  0.00  0.00    -0.027 A 
ATOM     19  C   UNL     1       1.473  -4.402  -1.660  0.00  0.00    +0.006 A 
ATOM     20  C   UNL     1       1.332  -5.672  -2.182  0.00  0.00    +0.015 A 
BRANCH  15  22
ATOM     21  C   UNL     1       0.702  -8.143  -3.666  0.00  0.00    +0.090 C 
ATOM     22  S   UNL     1       1.788  -8.371  -2.230  0.00  0.00    -0.129 S 
ENDBRANCH  15  22
ENDBRANCH   1  18
BRANCH  11  23
ATOM     23  N   UNL     1      -1.275  -0.752   0.009  0.00  0.00    +0.058 N 
ATOM     24  O   UNL     1      -2.333  -0.150   0.022  0.00  0.00    -0.126 OA
ATOM     25  O   UNL     1      -1.267  -1.970   0.003  0.00  0.00    -0.126 OA
ENDBRANCH  11  23
TORSDOF 3
