REMARK  Name = ZINC13495929
REMARK  13 active torsions:
REMARK  status: ('A' for Active; 'I' for Inactive)
REMARK    1  A    between atoms: C_1  and  C_2
REMARK    2  A    between atoms: C_2  and  C_3
REMARK    3  A    between atoms: C_3  and  C_5
REMARK    4  A    between atoms: C_3  and  N_72
REMARK    5  A    between atoms: N_9  and  C_10
REMARK    6  A    between atoms: C_10  and  C_11
REMARK    7  A    between atoms: C_18  and  C_19
REMARK    8  A    between atoms: C_18  and  N_72
REMARK    9  A    between atoms: C_19  and  C_20
REMARK   10  A    between atoms: C_24  and  C_26
REMARK   11  A    between atoms: C_27  and  C_28
REMARK   12  A    between atoms: C_27  and  N_72
REMARK   13  A    between atoms: C_34  and  C_40
REMARK                            x       y       z     vdW  Elec       q    Type
REMARK                         _______ _______ _______ _____ _____    ______ ____
ROOT
ATOM      1  N   UNL     1       0.448   7.262  -1.222  0.00  0.00    +0.389 N 
ATOM      2  H   UNL     1       1.245   7.508  -0.624  0.00  0.00    -0.080 HD
ENDROOT
BRANCH   1   3
ATOM      3  C   UNL     1       0.747   7.667  -2.612  0.00  0.00    +0.003 C 
BRANCH   3   4
ATOM      4  C   UNL     1       1.888   6.832  -3.133  0.00  0.00    +0.138 A 
ATOM      5  N   UNL     1       2.995   6.535  -2.497  0.00  0.00    -0.115 NA
ATOM      6  N   UNL     1       3.716   5.803  -3.274  0.00  0.00    -0.023 NA
ATOM      7  N   UNL     1       3.102   5.633  -4.393  0.00  0.00    -0.044 NA
ATOM      8  N   UNL     1       1.972   6.252  -4.345  0.00  0.00    -0.226 N 
BRANCH   8   9
ATOM      9  C   UNL     1       0.967   6.313  -5.410  0.00  0.00    +0.182 C 
BRANCH   9  10
ATOM     10  C   UNL     1       1.242   7.503  -6.292  0.00  0.00    -0.026 A 
ATOM     11  C   UNL     1       0.665   8.726  -6.002  0.00  0.00    +0.008 A 
ATOM     12  C   UNL     1       0.920   9.819  -6.808  0.00  0.00    +0.038 A 
ATOM     13  C   UNL     1       1.745   9.688  -7.912  0.00  0.00    +0.123 A 
ATOM     14  C   UNL     1       2.318   8.461  -8.204  0.00  0.00    +0.038 A 
ATOM     15  C   UNL     1       2.066   7.371  -7.394  0.00  0.00    +0.008 A 
ATOM     16  F   UNL     1       1.991  10.755  -8.703  0.00  0.00    -0.205 F 
ENDBRANCH   9  10
ENDBRANCH   8   9
ENDBRANCH   3   4
BRANCH   3  18
ATOM     17  C   UNL     1       2.358   9.347  -1.704  0.00  0.00    +0.002 C 
ATOM     18  C   UNL     1       1.150   9.143  -2.620  0.00  0.00    -0.011 C 
ENDBRANCH   3  18
ENDBRANCH   1   3
BRANCH   1  19
ATOM     19  C   UNL     1       0.233   5.801  -1.158  0.00  0.00    -0.073 C 
BRANCH  19  20
ATOM     20  C   UNL     1       0.182   5.375   0.311  0.00  0.00    +0.016 C 
BRANCH  20  21
ATOM     21  C   UNL     1       0.110   3.872   0.395  0.00  0.00    -0.049 A 
ATOM     22  C   UNL     1       1.271   3.121   0.356  0.00  0.00    +0.003 A 
ATOM     23  C   UNL     1       1.205   1.742   0.433  0.00  0.00    +0.001 A 
ATOM     24  C   UNL     1      -0.021   1.114   0.549  0.00  0.00    +0.003 A 
ATOM     25  C   UNL     1      -1.181   1.864   0.584  0.00  0.00    -0.050 A 
ATOM     26  C   UNL     1      -1.115   3.244   0.512  0.00  0.00    +0.007 A 
ATOM     27  C   UNL     1      -2.518   1.179   0.705  0.00  0.00    +0.044 C 
ENDBRANCH  20  21
ENDBRANCH  19  20
ENDBRANCH   1  19
BRANCH   1  28
ATOM     28  C   UNL     1      -0.754   7.971  -0.737  0.00  0.00    -0.037 C 
BRANCH  28  29
ATOM     29  C   UNL     1      -1.979   7.507  -1.483  0.00  0.00    +0.001 A 
ATOM     30  C   UNL     1      -2.742   6.509  -0.974  0.00  0.00    +0.017 A 
ATOM     31  C   UNL     1      -3.928   6.084  -1.721  0.00  0.00    -0.001 A 
ATOM     32  C   UNL     1      -4.756   5.063  -1.244  0.00  0.00    +0.010 A 
ATOM     33  C   UNL     1      -5.853   4.688  -1.967  0.00  0.00    +0.001 A 
ATOM     34  C   UNL     1      -6.152   5.310  -3.171  0.00  0.00    +0.005 A 
ATOM     35  C   UNL     1      -5.349   6.318  -3.660  0.00  0.00    -0.026 A 
ATOM     36  C   UNL     1      -4.228   6.718  -2.941  0.00  0.00    +0.052 A 
ATOM     37  N   UNL     1      -3.408   7.723  -3.407  0.00  0.00    -0.322 N 
ATOM     38  H   UNL     1      -3.616   8.159  -4.249  0.00  0.00    +0.169 HD
ATOM     39  C   UNL     1      -2.324   8.110  -2.712  0.00  0.00    +0.251 A 
ATOM     40  O   UNL     1      -1.622   9.003  -3.153  0.00  0.00    -0.268 OA
ATOM     41  C   UNL     1      -5.686   6.984  -4.970  0.00  0.00    +0.046 C 
ENDBRANCH  28  29
ENDBRANCH   1  28
TORSDOF 10
