REMARK  Name = ZINC59018708
REMARK  11 active torsions:
REMARK  status: ('A' for Active; 'I' for Inactive)
REMARK    1  A    between atoms: C_1  and  C_2
REMARK    2  A    between atoms: C_2  and  C_3
REMARK    3  A    between atoms: C_2  and  C_4
REMARK    4  A    between atoms: C_4  and  O_5
REMARK    5  A    between atoms: O_5  and  C_6
REMARK    6  A    between atoms: C_6  and  C_8
REMARK    7  A    between atoms: C_8  and  S_9
REMARK    8  A    between atoms: S_9  and  C_10
REMARK    9  A    between atoms: N_15  and  N_16
REMARK   10  A    between atoms: C_17  and  C_18
REMARK   11  A    between atoms: C_21  and  O_25
REMARK                            x       y       z     vdW  Elec       q    Type
REMARK                         _______ _______ _______ _____ _____    ______ ____
ROOT
ATOM      1  C   UNL     1      -4.302  -6.373  -0.384  0.00  0.00    +0.211 A 
ATOM      2  N   UNL     1      -5.346  -7.208  -0.421  0.00  0.00    -0.186 NA
ATOM      3  C   UNL     1      -4.918  -8.447  -0.544  0.00  0.00    +0.232 A 
ATOM      4  N   UNL     1      -3.568  -8.419  -0.589  0.00  0.00    -0.245 N 
ATOM      5  N   UNL     1      -3.195  -7.069  -0.489  0.00  0.00    -0.144 NA
ATOM      6  N   UNL     1      -5.710  -9.578  -0.616  0.00  0.00    -0.205 N 
ATOM      7  H   UNL     1      -5.300 -10.452  -0.707  0.00  0.00    +0.177 HD
ATOM      8  H   UNL     1      -2.974  -9.181  -0.677  0.00  0.00    +0.192 HD
ENDROOT
BRANCH   6   9
ATOM      9  N   UNL     1      -7.105  -9.460  -0.557  0.00  0.00    -0.188 NA
ATOM     10  C   UNL     1      -7.849 -10.522  -0.625  0.00  0.00    +0.138 C 
BRANCH  10  11
ATOM     11  C   UNL     1      -9.317 -10.399  -0.563  0.00  0.00    -0.003 A 
ATOM     12  C   UNL     1      -9.909  -9.139  -0.438  0.00  0.00    +0.028 A 
ATOM     13  C   UNL     1     -11.283  -9.029  -0.381  0.00  0.00    +0.061 A 
ATOM     14  C   UNL     1     -12.077 -10.167  -0.447  0.00  0.00    +0.145 A 
ATOM     15  C   UNL     1     -11.492 -11.421  -0.571  0.00  0.00    +0.061 A 
ATOM     16  C   UNL     1     -10.120 -11.540  -0.635  0.00  0.00    +0.028 A 
ATOM     17 BR   UNL     1     -12.579 -12.965  -0.660  0.00  0.00    -0.046 Br
ATOM     18 BR   UNL     1     -12.086  -7.325  -0.212  0.00  0.00    -0.046 Br
BRANCH  14  19
ATOM     19  O   UNL     1     -13.430 -10.053  -0.389  0.00  0.00    -0.505 OA
ATOM     20  H   UNL     1     -13.853  -9.947  -1.252  0.00  0.00    +0.292 HD
ENDBRANCH  14  19
ENDBRANCH  10  11
ENDBRANCH   6   9
BRANCH   1  21
ATOM     21  S   UNL     1      -4.398  -4.620  -0.227  0.00  0.00    -0.073 S 
BRANCH  21  22
ATOM     22  C   UNL     1      -2.666  -4.082  -0.248  0.00  0.00    +0.197 C 
BRANCH  22  23
ATOM     23  C   UNL     1      -2.605  -2.582  -0.120  0.00  0.00    +0.317 C 
ATOM     24  O   UNL     1      -3.625  -1.942  -0.023  0.00  0.00    -0.250 OA
BRANCH  23  25
ATOM     25  O   UNL     1      -1.417  -1.957  -0.112  0.00  0.00    -0.464 OA
BRANCH  25  26
ATOM     26  C   UNL     1      -1.433  -0.534   0.013  0.00  0.00    +0.235 C 
BRANCH  26  28
ATOM     27  C   UNL     1      -0.019   1.526   0.010  0.00  0.00    +0.010 C 
ATOM     28  C   UNL     1       0.002  -0.004   0.002  0.00  0.00    +0.020 C 
ATOM     29  C   UNL     1       0.742  -0.511   1.242  0.00  0.00    +0.010 C 
ENDBRANCH  26  28
ENDBRANCH  25  26
ENDBRANCH  23  25
ENDBRANCH  22  23
ENDBRANCH  21  22
ENDBRANCH   1  21
TORSDOF 9
