REMARK  Name = ZINC39227709
REMARK  13 active torsions:
REMARK  status: ('A' for Active; 'I' for Inactive)
REMARK    1  A    between atoms: C_1  and  C_2
REMARK    2  A    between atoms: C_2  and  C_3
REMARK    3  A    between atoms: C_2  and  C_4
REMARK    4  A    between atoms: C_4  and  N_5
REMARK    5  A    between atoms: N_5  and  C_6
REMARK    6  A    between atoms: C_6  and  C_7
REMARK    7  A    between atoms: C_7  and  C_8
REMARK    8  A    between atoms: C_7  and  C_9
REMARK    9  A    between atoms: C_10  and  C_12
REMARK   10  A    between atoms: C_16  and  C_18
REMARK   11  A    between atoms: N_31  and  C_34
REMARK   12  A    between atoms: C_34  and  C_35
REMARK   13  A    between atoms: C_34  and  C_36
REMARK                            x       y       z     vdW  Elec       q    Type
REMARK                         _______ _______ _______ _____ _____    ______ ____
ROOT
ATOM      1  C   UNL     1      -1.851  -7.029  -3.908  0.00  0.00    -0.017 A 
ATOM      2  C   UNL     1      -1.926  -6.311  -5.104  0.00  0.00    +0.012 A 
ATOM      3  C   UNL     1      -2.045  -6.968  -6.309  0.00  0.00    +0.047 A 
ATOM      4  C   UNL     1      -2.092  -8.356  -6.349  0.00  0.00    +0.132 A 
ATOM      5  C   UNL     1      -2.013  -9.083  -5.149  0.00  0.00    +0.060 A 
ATOM      6  C   UNL     1      -1.889  -8.418  -3.930  0.00  0.00    +0.023 A 
ATOM      7  C   UNL     1      -2.052 -10.556  -5.201  0.00  0.00    +0.170 C 
ATOM      8  O   UNL     1      -1.779 -11.236  -4.234  0.00  0.00    -0.292 OA
ATOM      9  C   UNL     1      -2.452 -11.177  -6.528  0.00  0.00    +0.127 C 
ATOM     10  C   UNL     1      -1.783 -10.349  -7.633  0.00  0.00    +0.114 C 
ATOM     11  O   UNL     1      -2.213  -8.993  -7.537  0.00  0.00    -0.485 OA
ATOM     12  C   UNL     1      -0.263 -10.419  -7.468  0.00  0.00    +0.030 C 
ATOM     13  C   UNL     1       0.406  -9.668  -8.622  0.00  0.00    -0.075 C 
ATOM     14  N   UNL     1       0.019 -10.281  -9.898  0.00  0.00    +0.381 N 
ATOM     15  C   UNL     1      -1.429 -10.150 -10.096  0.00  0.00    -0.075 C 
ATOM     16  C   UNL     1      -2.170 -10.919  -9.000  0.00  0.00    +0.030 C 
ATOM     17  H   UNL     1       0.269 -11.259  -9.890  0.00  0.00    -0.081 HD
ENDROOT
BRANCH   1  22
ATOM     18  C   UNL     1      -1.567  -4.251  -1.377  0.00  0.00    +0.037 A 
ATOM     19  C   UNL     1      -1.487  -4.980  -0.189  0.00  0.00    +0.013 A 
ATOM     20  C   UNL     1      -1.526  -6.360  -0.219  0.00  0.00    +0.001 A 
ATOM     21  C   UNL     1      -1.644  -7.027  -1.423  0.00  0.00    +0.008 A 
ATOM     22  C   UNL     1      -1.725  -6.310  -2.616  0.00  0.00    -0.017 A 
ATOM     23  C   UNL     1      -1.692  -4.920  -2.593  0.00  0.00    +0.021 A 
BRANCH  18  25
ATOM     24  N   UNL     1      -0.772  -2.141  -0.422  0.00  0.00    -0.297 N 
ATOM     25  C   UNL     1      -1.524  -2.773  -1.344  0.00  0.00    +0.247 C 
ATOM     26  O   UNL     1      -2.168  -2.129  -2.149  0.00  0.00    -0.270 OA
BRANCH  24  27
ATOM     27  C   UNL     1      -0.737  -0.677  -0.384  0.00  0.00    +0.111 C 
BRANCH  27  29
ATOM     28  C   UNL     1       0.353   1.357  -1.340  0.00  0.00    +0.009 C 
ATOM     29  C   UNL     1       0.394  -0.171  -1.281  0.00  0.00    +0.000 C 
ATOM     30  C   UNL     1       1.740  -0.623  -0.709  0.00  0.00    +0.009 C 
ENDBRANCH  27  29
ENDBRANCH  24  27
BRANCH  24  31
ATOM     31  C   UNL     1       0.010  -2.918   0.543  0.00  0.00    +0.111 C 
BRANCH  31  32
ATOM     32  C   UNL     1      -0.747  -2.994   1.870  0.00  0.00    +0.000 C 
ATOM     33  C   UNL     1      -0.024  -3.955   2.816  0.00  0.00    +0.009 C 
ATOM     34  C   UNL     1      -0.807  -1.603   2.504  0.00  0.00    +0.009 C 
ENDBRANCH  31  32
ENDBRANCH  24  31
ENDBRANCH  18  25
ENDBRANCH   1  22
BRANCH  14  35
ATOM     35  C   UNL     1       0.725  -9.608 -10.997  0.00  0.00    -0.075 C 
ATOM     36  C   UNL     1       2.235  -9.752 -10.797  0.00  0.00    -0.014 C 
ATOM     37  C   UNL     1       0.323 -10.246 -12.328  0.00  0.00    -0.014 C 
ENDBRANCH  14  35
TORSDOF 7
