REMARK  Name = ZINC09187747
REMARK  7 active torsions:
REMARK  status: ('A' for Active; 'I' for Inactive)
REMARK    1  A    between atoms: C_1  and  C_2
REMARK    2  A    between atoms: C_2  and  C_4
REMARK    3  A    between atoms: C_2  and  N_15
REMARK    4  A    between atoms: N_6  and  C_7
REMARK    5  A    between atoms: C_7  and  C_8
REMARK    6  A    between atoms: C_8  and  C_9
REMARK    7  A    between atoms: C_19  and  C_20
REMARK                            x       y       z     vdW  Elec       q    Type
REMARK                         _______ _______ _______ _____ _____    ______ ____
ROOT
ATOM      1  N   UNL     1       1.101   2.727  -0.784  0.00  0.00    -0.244 N 
ATOM      2  C   UNL     1       0.893   3.985  -0.432  0.00  0.00    +0.259 C 
ATOM      3  O   UNL     1       1.814   4.752  -0.225  0.00  0.00    -0.269 OA
ATOM      4  C   UNL     1      -0.518   4.409  -0.302  0.00  0.00    +0.077 C 
ATOM      5  C   UNL     1      -1.028   5.618   0.040  0.00  0.00    +0.028 C 
ATOM      6  S   UNL     1      -1.364   2.893  -0.725  0.00  0.00    -0.061 S 
ATOM      7  C   UNL     1       0.078   1.880  -1.012  0.00  0.00    +0.121 C 
ATOM      8  S   UNL     1       0.144   0.232  -1.474  0.00  0.00    -0.027 S 
ENDROOT
BRANCH   5   9
ATOM      9  C   UNL     1      -2.475   5.859  -0.057  0.00  0.00    -0.021 A 
ATOM     10  C   UNL     1      -3.306   4.913  -0.669  0.00  0.00    +0.008 A 
ATOM     11  C   UNL     1      -4.663   5.143  -0.752  0.00  0.00    +0.003 A 
ATOM     12  C   UNL     1      -5.204   6.309  -0.240  0.00  0.00    +0.038 A 
ATOM     13  C   UNL     1      -4.389   7.254   0.363  0.00  0.00    +0.124 A 
ATOM     14  C   UNL     1      -3.028   7.036   0.458  0.00  0.00    +0.046 A 
ATOM     15  F   UNL     1      -4.926   8.390   0.859  0.00  0.00    -0.205 F 
ENDBRANCH   5   9
BRANCH   1  17
ATOM     16  C   UNL     1       2.698   1.759  -2.364  0.00  0.00    +0.038 C 
ATOM     17  C   UNL     1       2.477   2.244  -0.930  0.00  0.00    +0.165 C 
BRANCH  17  18
ATOM     18  C   UNL     1       2.713   1.104   0.028  0.00  0.00    +0.234 C 
ATOM     19  O   UNL     1       1.820   0.733   0.760  0.00  0.00    -0.274 OA
ATOM     20  N   UNL     1       3.916   0.498   0.071  0.00  0.00    -0.313 N 
ATOM     21  H   UNL     1       4.630   0.795  -0.515  0.00  0.00    +0.149 HD
BRANCH  20  22
ATOM     22  C   UNL     1       4.145  -0.610   1.002  0.00  0.00    +0.110 C 
BRANCH  22  23
ATOM     23  C   UNL     1       5.581  -1.115   0.850  0.00  0.00    +0.075 C 
BRANCH  23  24
ATOM     24  C   UNL     1       5.817  -2.254   1.807  0.00  0.00    +0.060 A 
ATOM     25  C   UNL     1       6.254  -3.485   1.480  0.00  0.00    +0.107 A 
ATOM     26  N   UNL     1       6.330  -4.201   2.645  0.00  0.00    -0.351 N 
ATOM     27  H   UNL     1       6.628  -5.151   2.739  0.00  0.00    +0.166 HD
ATOM     28  C   UNL     1       5.929  -3.384   3.642  0.00  0.00    +0.196 A 
ATOM     29  N   UNL     1       5.623  -2.221   3.134  0.00  0.00    -0.241 NA
ENDBRANCH  23  24
ENDBRANCH  22  23
ENDBRANCH  20  22
ENDBRANCH  17  18
ENDBRANCH   1  17
TORSDOF 6
