REMARK  Name = ZINC43257894
REMARK  12 active torsions:
REMARK  status: ('A' for Active; 'I' for Inactive)
REMARK    1  A    between atoms: C_1  and  C_2
REMARK    2  A    between atoms: C_2  and  C_3
REMARK    3  A    between atoms: C_3  and  S_4
REMARK    4  A    between atoms: S_4  and  C_5
REMARK    5  A    between atoms: N_11  and  C_25
REMARK    6  A    between atoms: C_12  and  C_14
REMARK    7  A    between atoms: C_14  and  N_15
REMARK    8  A    between atoms: N_15  and  C_16
REMARK    9  A    between atoms: C_16  and  C_17
REMARK   10  A    between atoms: C_22  and  O_23
REMARK   11  A    between atoms: O_23  and  C_24
REMARK   12  A    between atoms: C_25  and  C_26
REMARK                            x       y       z     vdW  Elec       q    Type
REMARK                         _______ _______ _______ _____ _____    ______ ____
ROOT
ATOM      1  C   UNL     1      -3.265  -2.751  -0.572  0.00  0.00    +0.010 A 
ATOM      2  C   UNL     1      -4.257  -1.777  -0.460  0.00  0.00    +0.017 A 
ATOM      3  C   UNL     1      -5.551  -2.130  -0.205  0.00  0.00    +0.031 A 
ATOM      4  C   UNL     1      -5.891  -3.477  -0.054  0.00  0.00    +0.089 A 
ATOM      5  C   UNL     1      -4.895  -4.462  -0.166  0.00  0.00    +0.070 A 
ATOM      6  C   UNL     1      -3.583  -4.092  -0.430  0.00  0.00    +0.042 A 
ATOM      7  N   UNL     1      -5.531  -5.671   0.028  0.00  0.00    -0.325 N 
ATOM      8  C   UNL     1      -6.848  -5.406   0.245  0.00  0.00    +0.094 A 
ATOM      9  N   UNL     1      -7.059  -4.123   0.198  0.00  0.00    -0.234 NA
ENDROOT
BRANCH   1  10
ATOM     10  S   UNL     1      -1.601  -2.275  -0.901  0.00  0.00    -0.125 S 
BRANCH  10  11
ATOM     11  C   UNL     1      -1.674  -0.465  -1.001  0.00  0.00    +0.074 C 
BRANCH  11  13
ATOM     12  C   UNL     1      -0.338   1.613  -1.372  0.00  0.00    +0.004 C 
ATOM     13  C   UNL     1      -0.276   0.087  -1.288  0.00  0.00    +0.008 C 
ENDBRANCH  11  13
ENDBRANCH  10  11
ENDBRANCH   1  10
BRANCH   8  14
ATOM     14  C   UNL     1      -7.908  -6.446   0.504  0.00  0.00    -0.006 C 
BRANCH  14  15
ATOM     15  N   UNL     1      -8.089  -6.611   1.952  0.00  0.00    +0.386 N 
ATOM     16  H   UNL     1      -7.203  -6.836   2.379  0.00  0.00    -0.085 HD
ATOM     17  H   UNL     1      -8.445  -5.753   2.346  0.00  0.00    -0.085 HD
BRANCH  15  18
ATOM     18  C   UNL     1      -9.044  -7.699   2.205  0.00  0.00    -0.043 C 
BRANCH  18  19
ATOM     19  C   UNL     1      -9.230  -7.868   3.691  0.00  0.00    -0.023 A 
ATOM     20  C   UNL     1      -8.557  -8.871   4.362  0.00  0.00    +0.005 A 
ATOM     21  C   UNL     1      -8.728  -9.027   5.725  0.00  0.00    +0.000 A 
ATOM     22  C   UNL     1      -9.572  -8.181   6.420  0.00  0.00    +0.004 A 
ATOM     23  C   UNL     1     -10.246  -7.176   5.754  0.00  0.00    +0.046 A 
ATOM     24  C   UNL     1     -10.073  -7.014   4.387  0.00  0.00    +0.121 A 
BRANCH  24  25
ATOM     25  O   UNL     1     -10.731  -6.023   3.730  0.00  0.00    -0.495 OA
ATOM     26  C   UNL     1     -11.582  -5.181   4.510  0.00  0.00    +0.277 C 
ENDBRANCH  24  25
ENDBRANCH  18  19
ENDBRANCH  15  18
ENDBRANCH  14  15
ENDBRANCH   8  14
BRANCH   7  27
ATOM     27  C   UNL     1      -4.904  -6.996   0.004  0.00  0.00    +0.158 C 
BRANCH  27  28
ATOM     28  C   UNL     1      -4.831  -7.492  -1.417  0.00  0.00    -0.028 A 
ATOM     29  C   UNL     1      -5.835  -8.297  -1.920  0.00  0.00    +0.005 A 
ATOM     30  C   UNL     1      -5.769  -8.753  -3.223  0.00  0.00    +0.000 A 
ATOM     31  C   UNL     1      -4.698  -8.402  -4.024  0.00  0.00    +0.000 A 
ATOM     32  C   UNL     1      -3.694  -7.595  -3.521  0.00  0.00    +0.000 A 
ATOM     33  C   UNL     1      -3.763  -7.136  -2.219  0.00  0.00    +0.005 A 
ENDBRANCH  27  28
ENDBRANCH   7  27
TORSDOF 10
