REMARK  Name = ZINC63619672
REMARK  6 active torsions:
REMARK  status: ('A' for Active; 'I' for Inactive)
REMARK    1  A    between atoms: C_1  and  C_2
REMARK    2  A    between atoms: C_7  and  C_8
REMARK    3  A    between atoms: C_12  and  S_15
REMARK    4  A    between atoms: N_13  and  N_14
REMARK    5  A    between atoms: S_15  and  C_16
REMARK    6  A    between atoms: C_16  and  C_17
REMARK                            x       y       z     vdW  Elec       q    Type
REMARK                         _______ _______ _______ _____ _____    ______ ____
ROOT
ATOM      1  C   UNL     1       0.152   0.195   2.409  0.00  0.00    +0.223 C 
ATOM      2  N   UNL     1       0.862   1.462   2.160  0.00  0.00    -0.241 N 
ATOM      3  N   UNL     1       1.988   1.448   2.992  0.00  0.00    -0.161 NA
ATOM      4  C   UNL     1       2.045   0.366   3.692  0.00  0.00    +0.189 C 
ATOM      5  N   UNL     1       0.976  -0.482   3.425  0.00  0.00    -0.221 N 
ATOM      6  H   UNL     1       0.602   2.163   1.543  0.00  0.00    +0.171 HD
ENDROOT
BRANCH   1  13
ATOM      7  C   UNL     1      -2.095   0.481   0.615  0.00  0.00    +0.044 C 
ATOM      8  C   UNL     1      -0.991  -0.493   0.291  0.00  0.00    -0.044 A 
ATOM      9  C   UNL     1      -1.051  -1.245  -0.867  0.00  0.00    +0.004 A 
ATOM     10  C   UNL     1      -0.039  -2.138  -1.164  0.00  0.00    +0.000 A 
ATOM     11  C   UNL     1       1.033  -2.279  -0.303  0.00  0.00    +0.000 A 
ATOM     12  C   UNL     1       1.094  -1.526   0.855  0.00  0.00    +0.007 A 
ATOM     13  C   UNL     1       0.084  -0.630   1.150  0.00  0.00    -0.004 A 
ENDBRANCH   1  13
BRANCH   5  14
ATOM     14  N   UNL     1       0.735  -1.701   3.992  0.00  0.00    -0.250 NA
ATOM     15  H   UNL     1       1.453  -1.936   4.662  0.00  0.00    +0.141 HD
ATOM     16  H   UNL     1      -0.179  -1.728   4.418  0.00  0.00    +0.141 HD
ENDBRANCH   5  14
BRANCH   4  17
ATOM     17  S   UNL     1       3.325   0.005   4.848  0.00  0.00    -0.084 S 
BRANCH  17  18
ATOM     18  C   UNL     1       4.412   1.454   4.765  0.00  0.00    +0.124 C 
BRANCH  18  19
ATOM     19  C   UNL     1       5.582   1.270   5.734  0.00  0.00    +0.184 C 
ATOM     20  N   UNL     1       6.306   0.032   5.420  0.00  0.00    -0.363 N 
ATOM     21  C   UNL     1       6.237  -0.737   6.468  0.00  0.00    +0.060 A 
ATOM     22  C   UNL     1       6.760  -2.080   6.758  0.00  0.00    +0.027 A 
ATOM     23  C   UNL     1       6.525  -2.639   7.962  0.00  0.00    +0.002 A 
ATOM     24  C   UNL     1       5.792  -1.988   8.970  0.00  0.00    +0.002 A 
ATOM     25  C   UNL     1       5.269  -0.756   8.809  0.00  0.00    +0.027 A 
ATOM     26  C   UNL     1       5.462  -0.048   7.536  0.00  0.00    +0.060 A 
ATOM     27  N   UNL     1       5.082   1.121   7.106  0.00  0.00    -0.363 N 
ATOM     28  H   UNL     1       6.754  -0.175   4.585  0.00  0.00    +0.162 HD
ATOM     29  H   UNL     1       4.563   1.773   7.602  0.00  0.00    +0.162 HD
ENDBRANCH  18  19
ENDBRANCH  17  18
ENDBRANCH   4  17
TORSDOF 5
