REMARK  Name = ZINC32999424
REMARK  9 active torsions:
REMARK  status: ('A' for Active; 'I' for Inactive)
REMARK    1  A    between atoms: C_1  and  C_2
REMARK    2  A    between atoms: C_2  and  C_33
REMARK    3  A    between atoms: C_4  and  N_10
REMARK    4  A    between atoms: C_6  and  C_8
REMARK    5  A    between atoms: C_6  and  C_9
REMARK    6  A    between atoms: C_11  and  C_13
REMARK    7  A    between atoms: N_16  and  S_19
REMARK    8  A    between atoms: S_19  and  C_22
REMARK    9  A    between atoms: C_26  and  C_28
REMARK                            x       y       z     vdW  Elec       q    Type
REMARK                         _______ _______ _______ _____ _____    ______ ____
ROOT
ATOM      1  C   UNL     1       3.751   1.410   0.643  0.00  0.00    +0.077 C 
ATOM      2  C   UNL     1       4.260   1.472  -0.799  0.00  0.00    +0.030 C 
ATOM      3  C   UNL     1       5.689   2.022  -0.809  0.00  0.00    +0.110 C 
ATOM      4  N   UNL     1       6.517   1.204   0.088  0.00  0.00    -0.177 NA
ATOM      5  C   UNL     1       6.072   1.004   1.474  0.00  0.00    +0.110 C 
ATOM      6  C   UNL     1       4.638   0.466   1.458  0.00  0.00    +0.030 C 
ENDROOT
BRANCH   1   8
ATOM      7  N   UNL     1       1.369   1.578  -0.003  0.00  0.00    -0.312 N 
ATOM      8  C   UNL     1       2.333   0.902   0.654  0.00  0.00    +0.216 C 
ATOM      9  O   UNL     1       2.058  -0.116   1.254  0.00  0.00    -0.276 OA
ATOM     10  H   UNL     1       1.619   2.501  -0.546  0.00  0.00    +0.149 HD
BRANCH   7  14
ATOM     11  C   UNL     1      -2.947   1.923  -2.319  0.00  0.00    -0.010 C 
ATOM     12  C   UNL     1      -2.195   1.130  -1.227  0.00  0.00    -0.072 C 
ATOM     13  C   UNL     1      -0.747   1.613  -1.223  0.00  0.00    +0.009 C 
ATOM     14  C   UNL     1      -0.013   1.083   0.008  0.00  0.00    +0.070 C 
ATOM     15  C   UNL     1      -0.723   1.600   1.258  0.00  0.00    +0.009 C 
ATOM     16  C   UNL     1      -2.172   1.119   1.284  0.00  0.00    -0.072 C 
ATOM     17  N   UNL     1      -2.868   1.351   0.036  0.00  0.00    +0.386 N 
ATOM     18  C   UNL     1      -2.902   1.903   2.397  0.00  0.00    -0.010 C 
ATOM     19  C   UNL     1      -2.212  -0.364   1.673  0.00  0.00    -0.010 C 
ATOM     20  C   UNL     1      -2.241  -0.349  -1.628  0.00  0.00    -0.010 C 
ATOM     21  H   UNL     1      -3.185   2.402   0.104  0.00  0.00    -0.084 HD
ATOM     22  H   UNL     1      -3.750   0.697   0.101  0.00  0.00    -0.084 HD
ENDBRANCH   7  14
ENDBRANCH   1   8
BRANCH   4  23
ATOM     23  S   UNL     1       7.925   0.520  -0.453  0.00  0.00    +0.061 S 
ATOM     24  O   UNL     1       8.360   1.304  -1.556  0.00  0.00    -0.153 OA
ATOM     25  O   UNL     1       8.737   0.301   0.693  0.00  0.00    -0.153 OA
BRANCH  23  26
ATOM     26  C   UNL     1       7.519  -1.070  -1.094  0.00  0.00    +0.106 A 
ATOM     27  C   UNL     1       7.547  -2.176  -0.266  0.00  0.00    +0.030 A 
ATOM     28  C   UNL     1       7.224  -3.423  -0.767  0.00  0.00    +0.022 A 
ATOM     29  C   UNL     1       6.883  -3.565  -2.101  0.00  0.00    +0.053 A 
ATOM     30  C   UNL     1       6.861  -2.459  -2.930  0.00  0.00    +0.075 A 
ATOM     31  C   UNL     1       7.179  -1.211  -2.426  0.00  0.00    +0.042 A 
ATOM     32 CL   UNL     1       6.483  -5.132  -2.732  0.00  0.00    -0.083 Cl
BRANCH  30  33
ATOM     33  C   UNL     1       6.490  -2.613  -4.383  0.00  0.00    +0.419 C 
ATOM     34  F   UNL     1       6.538  -1.364  -5.011  0.00  0.00    -0.166 F 
ATOM     35  F   UNL     1       7.391  -3.483  -5.005  0.00  0.00    -0.166 F 
ATOM     36  F   UNL     1       5.195  -3.134  -4.480  0.00  0.00    -0.166 F 
ENDBRANCH  30  33
ENDBRANCH  23  26
ENDBRANCH   4  23
TORSDOF 5
