REMARK  Name = ZINC33625379
REMARK  9 active torsions:
REMARK  status: ('A' for Active; 'I' for Inactive)
REMARK    1  A    between atoms: C_1  and  C_2
REMARK    2  A    between atoms: C_7  and  N_8
REMARK    3  A    between atoms: C_13  and  C_32
REMARK    4  A    between atoms: C_16  and  C_21
REMARK    5  A    between atoms: C_16  and  C_29
REMARK    6  A    between atoms: C_21  and  C_22
REMARK    7  A    between atoms: C_25  and  O_28
REMARK    8  A    between atoms: C_37  and  O_38
REMARK    9  A    between atoms: O_38  and  C_39
REMARK                            x       y       z     vdW  Elec       q    Type
REMARK                         _______ _______ _______ _____ _____    ______ ____
ROOT
ATOM      1  N   UNL     1       0.068   0.010   2.512  0.00  0.00    -0.210 N 
ATOM      2  C   UNL     1      -1.092   0.364   3.156  0.00  0.00    +0.229 C 
ATOM      3  O   UNL     1      -2.213  -0.042   2.939  0.00  0.00    -0.275 OA
ATOM      4  C   UNL     1      -0.678   1.327   4.149  0.00  0.00    +0.077 C 
ATOM      5  C   UNL     1      -1.160   1.942   5.394  0.00  0.00    -0.023 C 
ATOM      6  N   UNL     1       0.076   2.498   6.036  0.00  0.00    +0.396 N 
ATOM      7  C   UNL     1       1.247   2.077   5.200  0.00  0.00    +0.052 C 
ATOM      8  C   UNL     1       0.738   0.763   4.571  0.00  0.00    +0.086 C 
ATOM      9  C   UNL     1       1.188   0.421   3.177  0.00  0.00    +0.229 C 
ATOM     10  O   UNL     1       2.314   0.496   2.735  0.00  0.00    -0.275 OA
ATOM     11  H   UNL     1       0.022   3.506   6.067  0.00  0.00    -0.083 HD
ATOM     12  H   UNL     1       0.172   2.130   6.971  0.00  0.00    -0.083 HD
ENDROOT
BRANCH   1  19
ATOM     13  C   UNL     1       0.063   1.486   0.079  0.00  0.00    +0.045 C 
ATOM     14  C   UNL     1       0.098  -0.020   0.096  0.00  0.00    -0.029 A 
ATOM     15  C   UNL     1       0.135  -0.724  -1.093  0.00  0.00    +0.005 A 
ATOM     16  C   UNL     1       0.167  -2.106  -1.078  0.00  0.00    +0.000 A 
ATOM     17  C   UNL     1       0.164  -2.788   0.125  0.00  0.00    +0.002 A 
ATOM     18  C   UNL     1       0.127  -2.090   1.316  0.00  0.00    +0.024 A 
ATOM     19  C   UNL     1       0.099  -0.702   1.305  0.00  0.00    +0.047 A 
ENDBRANCH   1  19
BRANCH   5  20
ATOM     20  C   UNL     1      -1.796   0.904   6.282  0.00  0.00    -0.019 A 
ATOM     21  C   UNL     1      -1.037   0.247   7.231  0.00  0.00    +0.005 A 
ATOM     22  C   UNL     1      -1.620  -0.706   8.046  0.00  0.00    +0.000 A 
ATOM     23  C   UNL     1      -2.964  -1.004   7.914  0.00  0.00    +0.004 A 
ATOM     24  C   UNL     1      -3.728  -0.349   6.967  0.00  0.00    +0.046 A 
ATOM     25  C   UNL     1      -3.146   0.611   6.152  0.00  0.00    +0.122 A 
BRANCH  25  26
ATOM     26  O   UNL     1      -3.896   1.260   5.223  0.00  0.00    -0.495 OA
ATOM     27  C   UNL     1      -5.279   0.908   5.144  0.00  0.00    +0.277 C 
ENDBRANCH  25  26
ENDBRANCH   5  20
BRANCH   7  28
ATOM     28  C   UNL     1       2.453   1.814   6.064  0.00  0.00    +0.347 C 
ATOM     29  O   UNL     1       2.387   1.980   7.270  0.00  0.00    -0.248 OA
ATOM     30  O   UNL     1       3.495   1.435   5.558  0.00  0.00    -0.248 OA
ENDBRANCH   7  28
BRANCH   7  31
ATOM     31  C   UNL     1       1.561   3.131   4.136  0.00  0.00    +0.035 C 
BRANCH  31  32
ATOM     32  C   UNL     1       1.972   4.416   4.808  0.00  0.00    -0.048 A 
ATOM     33  C   UNL     1       1.016   5.359   5.137  0.00  0.00    +0.007 A 
ATOM     34  C   UNL     1       1.390   6.538   5.752  0.00  0.00    +0.045 A 
ATOM     35  C   UNL     1       2.726   6.775   6.040  0.00  0.00    +0.117 A 
ATOM     36  C   UNL     1       3.683   5.827   5.709  0.00  0.00    +0.045 A 
ATOM     37  C   UNL     1       3.303   4.648   5.098  0.00  0.00    +0.007 A 
BRANCH  35  38
ATOM     38  O   UNL     1       3.097   7.935   6.644  0.00  0.00    -0.507 OA
ATOM     39  H   UNL     1       3.101   7.890   7.610  0.00  0.00    +0.292 HD
ENDBRANCH  35  38
ENDBRANCH  31  32
ENDBRANCH   7  31
TORSDOF 7
