REMARK  Name = ZINC33259129
REMARK  9 active torsions:
REMARK  status: ('A' for Active; 'I' for Inactive)
REMARK    1  A    between atoms: C_1  and  C_2
REMARK    2  A    between atoms: C_5  and  C_8
REMARK    3  A    between atoms: C_8  and  N_9
REMARK    4  A    between atoms: C_23  and  C_26
REMARK    5  A    between atoms: N_28  and  C_29
REMARK    6  A    between atoms: C_29  and  C_30
REMARK    7  A    between atoms: C_30  and  N_31
REMARK    8  A    between atoms: N_31  and  C_32
REMARK    9  A    between atoms: N_31  and  C_33
REMARK                            x       y       z     vdW  Elec       q    Type
REMARK                         _______ _______ _______ _____ _____    ______ ____
ROOT
ATOM      1  N   UNL     1      -7.634  -1.957  -2.639  0.00  0.00    -0.284 N 
ATOM      2  C   UNL     1      -8.638  -1.659  -1.740  0.00  0.00    +0.162 A 
ATOM      3  C   UNL     1      -8.399  -0.739  -0.703  0.00  0.00    +0.109 A 
ATOM      4  C   UNL     1      -9.434  -0.450   0.200  0.00  0.00    +0.033 A 
ATOM      5  C   UNL     1     -10.647  -1.086   0.029  0.00  0.00    +0.022 A 
ATOM      6  C   UNL     1     -10.808  -1.980  -1.019  0.00  0.00    +0.113 A 
ATOM      7  N   UNL     1      -9.825  -2.238  -1.856  0.00  0.00    -0.236 NA
ATOM      8  N   UNL     1      -7.198  -0.140  -0.571  0.00  0.00    -0.224 NA
ATOM      9  C   UNL     1      -6.223  -0.398  -1.405  0.00  0.00    +0.188 A 
ATOM     10  C   UNL     1      -6.434  -1.352  -2.510  0.00  0.00    +0.293 A 
ATOM     11  O   UNL     1      -5.535  -1.595  -3.294  0.00  0.00    -0.264 OA
ATOM     12  N   UNL     1      -4.998   0.226  -1.253  0.00  0.00    -0.311 N 
ATOM     13  C   UNL     1      -4.971   1.043  -0.033  0.00  0.00    +0.107 C 
ATOM     14  C   UNL     1      -3.660   1.831   0.026  0.00  0.00    +0.031 C 
ATOM     15  C   UNL     1      -2.482   0.853   0.018  0.00  0.00    +0.078 C 
ATOM     16  C   UNL     1      -2.560  -0.020  -1.237  0.00  0.00    +0.031 C 
ATOM     17  C   UNL     1      -3.903  -0.753  -1.261  0.00  0.00    +0.107 C 
ENDROOT
BRANCH  15  18
ATOM     18  C   UNL     1      -1.187   1.624   0.017  0.00  0.00    +0.216 C 
ATOM     19  O   UNL     1      -1.204   2.837   0.023  0.00  0.00    -0.276 OA
ATOM     20  N   UNL     1      -0.011   0.966   0.007  0.00  0.00    -0.317 N 
ATOM     21  H   UNL     1       0.004  -0.134   0.006  0.00  0.00    +0.149 HD
BRANCH  20  22
ATOM     22  C   UNL     1       1.248   1.716  -0.001  0.00  0.00    +0.085 C 
BRANCH  22  23
ATOM     23  C   UNL     1       2.424   0.737  -0.017  0.00  0.00    -0.061 C 
BRANCH  23  24
ATOM     24  N   UNL     1       3.686   1.489  -0.025  0.00  0.00    +0.377 N 
ATOM     25  C   UNL     1       3.865   2.230   1.230  0.00  0.00    -0.097 C 
ATOM     26  C   UNL     1       4.827   0.599  -0.279  0.00  0.00    -0.097 C 
ATOM     27  H   UNL     1       3.638   2.220  -0.845  0.00  0.00    -0.083 HD
ENDBRANCH  23  24
ENDBRANCH  22  23
ENDBRANCH  20  22
ENDBRANCH  15  18
BRANCH   1  28
ATOM     28  C   UNL     1      -7.870  -2.913  -3.724  0.00  0.00    +0.162 C 
BRANCH  28  33
ATOM     29  C   UNL     1      -9.854  -0.103  -8.368  0.00  0.00    +0.044 C 
ATOM     30  C   UNL     1      -9.337  -0.836  -7.157  0.00  0.00    -0.050 A 
ATOM     31  C   UNL     1      -7.977  -1.014  -6.986  0.00  0.00    +0.004 A 
ATOM     32  C   UNL     1      -7.502  -1.686  -5.875  0.00  0.00    +0.005 A 
ATOM     33  C   UNL     1      -8.388  -2.180  -4.935  0.00  0.00    -0.028 A 
ATOM     34  C   UNL     1      -9.748  -2.007  -5.110  0.00  0.00    +0.005 A 
ATOM     35  C   UNL     1     -10.223  -1.332  -6.219  0.00  0.00    +0.004 A 
ENDBRANCH  28  33
ENDBRANCH   1  28
TORSDOF 6
