REMARK  Name = ZINC67315970
REMARK  12 active torsions:
REMARK  status: ('A' for Active; 'I' for Inactive)
REMARK    1  A    between atoms: C_1  and  C_2
REMARK    2  A    between atoms: C_2  and  C_3
REMARK    3  A    between atoms: C_3  and  C_5
REMARK    4  A    between atoms: C_3  and  O_6
REMARK    5  A    between atoms: O_6  and  C_7
REMARK    6  A    between atoms: C_10  and  N_13
REMARK    7  A    between atoms: C_14  and  C_16
REMARK    8  A    between atoms: N_18  and  C_19
REMARK    9  A    between atoms: C_21  and  C_27
REMARK   10  A    between atoms: C_21  and  C_28
REMARK   11  A    between atoms: C_23  and  C_25
REMARK   12  A    between atoms: C_23  and  C_26
REMARK                            x       y       z     vdW  Elec       q    Type
REMARK                         _______ _______ _______ _____ _____    ______ ____
ROOT
ATOM      1  C   UNL     1       3.290   1.233  -9.474  0.00  0.00    +0.300 C 
ATOM      2  O   UNL     1       4.484   1.014  -9.470  0.00  0.00    -0.265 OA
ATOM      3  N   UNL     1       2.691   1.679 -10.596  0.00  0.00    -0.305 N 
ATOM      4  H   UNL     1       1.737   1.854 -10.599  0.00  0.00    +0.149 HD
ENDROOT
BRANCH   3   5
ATOM      5  C   UNL     1       3.482   1.900 -11.813  0.00  0.00    +0.071 C 
ATOM      6  C   UNL     1       3.572   0.591 -12.599  0.00  0.00    +0.009 C 
ATOM      7  C   UNL     1       4.383   0.808 -13.876  0.00  0.00    -0.072 C 
ATOM      8  N   UNL     1       3.861   1.905 -14.677  0.00  0.00    +0.386 N 
ATOM      9  C   UNL     1       3.541   3.148 -13.994  0.00  0.00    -0.072 C 
ATOM     10  C   UNL     1       2.780   2.938 -12.689  0.00  0.00    +0.009 C 
ATOM     11  C   UNL     1       4.792   3.993 -13.740  0.00  0.00    -0.010 C 
ATOM     12  C   UNL     1       2.624   3.970 -14.931  0.00  0.00    -0.010 C 
ATOM     13  C   UNL     1       4.266  -0.483 -14.718  0.00  0.00    -0.010 C 
ATOM     14  C   UNL     1       5.862   0.995 -13.537  0.00  0.00    -0.010 C 
ATOM     15  H   UNL     1       4.535   2.109 -15.420  0.00  0.00    -0.084 HD
ATOM     16  H   UNL     1       3.021   1.577 -15.160  0.00  0.00    -0.084 HD
ENDBRANCH   3   5
BRANCH   1  18
ATOM     17  N   UNL     1       3.084   0.561  -7.115  0.00  0.00    -0.278 N 
ATOM     18  C   UNL     1       2.485   1.008  -8.237  0.00  0.00    +0.303 C 
ATOM     19  O   UNL     1       1.291   1.227  -8.241  0.00  0.00    -0.265 OA
ATOM     20  H   UNL     1       4.023   0.317  -7.131  0.00  0.00    +0.155 HD
BRANCH  17  24
ATOM     21  C   UNL     1       0.905   0.231  -3.578  0.00  0.00    +0.121 A 
ATOM     22  C   UNL     1       0.299  -0.047  -4.795  0.00  0.00    +0.047 A 
ATOM     23  C   UNL     1       1.020   0.062  -5.967  0.00  0.00    +0.027 A 
ATOM     24  C   UNL     1       2.353   0.451  -5.928  0.00  0.00    +0.034 A 
ATOM     25  C   UNL     1       2.959   0.729  -4.710  0.00  0.00    +0.027 A 
ATOM     26  C   UNL     1       2.235   0.624  -3.539  0.00  0.00    +0.047 A 
BRANCH  21  27
ATOM     27  O   UNL     1       0.194   0.124  -2.424  0.00  0.00    -0.489 OA
BRANCH  27  28
ATOM     28  C   UNL     1      -1.131  -0.402  -2.525  0.00  0.00    +0.170 C 
ATOM     29  C   UNL     1      -2.105   0.731  -2.853  0.00  0.00    +0.052 C 
BRANCH  28  31
ATOM     30  C   UNL     1      -0.629  -2.257  -0.928  0.00  0.00    +0.007 C 
ATOM     31  C   UNL     1      -1.526  -1.047  -1.195  0.00  0.00    +0.041 C 
ENDBRANCH  28  31
ENDBRANCH  27  28
ENDBRANCH  21  27
ENDBRANCH  17  24
ENDBRANCH   1  18
TORSDOF 6
