REMARK  Name = ZINC63746367
REMARK  9 active torsions:
REMARK  status: ('A' for Active; 'I' for Inactive)
REMARK    1  A    between atoms: C_1  and  C_2
REMARK    2  A    between atoms: C_5  and  C_29
REMARK    3  A    between atoms: C_6  and  C_17
REMARK    4  A    between atoms: C_10  and  N_12
REMARK    5  A    between atoms: N_15  and  C_16
REMARK    6  A    between atoms: N_19  and  C_20
REMARK    7  A    between atoms: C_20  and  C_21
REMARK    8  A    between atoms: C_21  and  C_22
REMARK    9  A    between atoms: C_22  and  C_23
REMARK                            x       y       z     vdW  Elec       q    Type
REMARK                         _______ _______ _______ _____ _____    ______ ____
ROOT
ATOM      1  C   UNL     1      -0.673   1.532  -0.071  0.00  0.00    +0.044 C 
ATOM      2  C   UNL     1      -0.504   0.035  -0.041  0.00  0.00    -0.048 A 
ATOM      3  C   UNL     1      -0.430  -0.635  -1.214  0.00  0.00    +0.013 A 
ATOM      4  C   UNL     1      -0.272  -2.043  -1.225  0.00  0.00    +0.006 A 
ATOM      5  C   UNL     1      -0.170  -2.966  -2.250  0.00  0.00    -0.000 C 
ATOM      6  C   UNL     1      -0.017  -4.312  -1.575  0.00  0.00    +0.198 C 
ATOM      7  N   UNL     1      -0.045  -4.046  -0.133  0.00  0.00    -0.368 N 
ATOM      8  C   UNL     1      -0.189  -2.757   0.064  0.00  0.00    +0.065 A 
ATOM      9  C   UNL     1      -0.277  -1.958   1.295  0.00  0.00    +0.059 A 
ATOM     10  C   UNL     1      -0.424  -0.609   1.197  0.00  0.00    +0.028 A 
ATOM     11  H   UNL     1       0.032  -4.716   0.564  0.00  0.00    +0.161 HD
ENDROOT
BRANCH   9  12
ATOM     12  N   UNL     1      -0.206  -2.574   2.548  0.00  0.00    -0.268 N 
ATOM     13  C   UNL     1       0.214  -1.874   3.621  0.00  0.00    +0.304 C 
ATOM     14  O   UNL     1       0.631  -0.741   3.482  0.00  0.00    -0.253 OA
ATOM     15  N   UNL     1       0.171  -2.431   4.847  0.00  0.00    -0.302 N 
ATOM     16  C   UNL     1       0.628  -1.670   6.013  0.00  0.00    +0.129 C 
ATOM     17  H   UNL     1      -0.459  -3.506   2.645  0.00  0.00    +0.156 HD
ATOM     18  H   UNL     1      -0.162  -3.335   4.958  0.00  0.00    +0.150 HD
ENDBRANCH   9  12
BRANCH   5  19
ATOM     19  C   UNL     1      -0.203  -2.698  -3.690  0.00  0.00    -0.019 A 
ATOM     20  C   UNL     1       0.180  -1.442  -4.182  0.00  0.00    +0.008 A 
ATOM     21  C   UNL     1       0.146  -1.198  -5.537  0.00  0.00    +0.001 A 
ATOM     22  C   UNL     1      -0.266  -2.189  -6.413  0.00  0.00    +0.000 A 
ATOM     23  C   UNL     1      -0.647  -3.432  -5.936  0.00  0.00    +0.001 A 
ATOM     24  C   UNL     1      -0.613  -3.696  -4.585  0.00  0.00    +0.008 A 
ENDBRANCH   5  19
BRANCH   6  25
ATOM     25  C   UNL     1       1.296  -4.942  -1.964  0.00  0.00    +0.240 C 
ATOM     26  O   UNL     1       2.219  -4.953  -1.177  0.00  0.00    -0.273 OA
ATOM     27  N   UNL     1       1.444  -5.492  -3.185  0.00  0.00    -0.313 N 
ATOM     28  H   UNL     1       0.731  -5.420  -3.839  0.00  0.00    +0.149 HD
BRANCH  27  29
ATOM     29  C   UNL     1       2.682  -6.198  -3.525  0.00  0.00    +0.104 C 
BRANCH  29  30
ATOM     30  C   UNL     1       2.592  -6.722  -4.960  0.00  0.00    +0.023 C 
BRANCH  30  31
ATOM     31  C   UNL     1       3.885  -7.460  -5.315  0.00  0.00    +0.036 C 
BRANCH  31  32
ATOM     32  C   UNL     1       3.796  -7.976  -6.728  0.00  0.00    -0.047 A 
ATOM     33  C   UNL     1       3.278  -9.233  -6.973  0.00  0.00    +0.003 A 
ATOM     34  C   UNL     1       3.197  -9.707  -8.270  0.00  0.00    +0.000 A 
ATOM     35  C   UNL     1       3.634  -8.923  -9.320  0.00  0.00    +0.000 A 
ATOM     36  C   UNL     1       4.152  -7.665  -9.075  0.00  0.00    +0.000 A 
ATOM     37  C   UNL     1       4.229  -7.189  -7.779  0.00  0.00    +0.003 A 
ENDBRANCH  31  32
ENDBRANCH  30  31
ENDBRANCH  29  30
ENDBRANCH  27  29
ENDBRANCH   6  25
TORSDOF 7
