REMARK  Name = ZINC36158708
REMARK  12 active torsions:
REMARK  status: ('A' for Active; 'I' for Inactive)
REMARK    1  A    between atoms: C_1  and  C_2
REMARK    2  A    between atoms: C_2  and  C_3
REMARK    3  A    between atoms: C_2  and  C_4
REMARK    4  A    between atoms: C_4  and  C_5
REMARK    5  A    between atoms: C_5  and  N_6
REMARK    6  A    between atoms: N_6  and  C_7
REMARK    7  A    between atoms: N_6  and  C_23
REMARK    8  A    between atoms: C_7  and  C_8
REMARK    9  A    between atoms: C_23  and  C_24
REMARK   10  A    between atoms: C_24  and  C_26
REMARK   11  A    between atoms: C_24  and  O_33
REMARK   12  A    between atoms: C_26  and  C_27
REMARK                            x       y       z     vdW  Elec       q    Type
REMARK                         _______ _______ _______ _____ _____    ______ ____
ROOT
ATOM      1  N   UNL     1      -3.573  -0.698  -1.134  0.00  0.00    +0.386 N 
ATOM      2  H   UNL     1      -3.548  -1.658  -0.824  0.00  0.00    -0.081 HD
ENDROOT
BRANCH   1   3
ATOM      3  C   UNL     1      -2.203  -0.225  -1.374  0.00  0.00    -0.078 C 
BRANCH   3   4
ATOM      4  C   UNL     1      -2.239   1.241  -1.810  0.00  0.00    -0.016 C 
BRANCH   4   6
ATOM      5  C   UNL     1      -0.211   0.973  -3.245  0.00  0.00    +0.007 C 
ATOM      6  C   UNL     1      -0.812   1.733  -2.060  0.00  0.00    -0.019 C 
ATOM      7  C   UNL     1      -0.836   3.230  -2.374  0.00  0.00    +0.007 C 
ENDBRANCH   4   6
ENDBRANCH   3   4
ENDBRANCH   1   3
BRANCH   1   8
ATOM      8  C   UNL     1      -4.348  -0.606  -2.379  0.00  0.00    -0.003 C 
BRANCH   8   9
ATOM      9  C   UNL     1      -3.772  -1.553  -3.400  0.00  0.00    +0.094 A 
ATOM     10  N   UNL     1      -4.336  -1.627  -4.633  0.00  0.00    -0.312 N 
ATOM     11  H   UNL     1      -5.101  -1.069  -4.840  0.00  0.00    +0.170 HD
ATOM     12  C   UNL     1      -3.853  -2.459  -5.575  0.00  0.00    +0.260 A 
ATOM     13  O   UNL     1      -4.370  -2.513  -6.678  0.00  0.00    -0.267 OA
ATOM     14  C   UNL     1      -2.721  -3.281  -5.260  0.00  0.00    +0.075 A 
ATOM     15  C   UNL     1      -2.035  -4.249  -6.114  0.00  0.00    -0.023 A 
ATOM     16  C   UNL     1      -0.983  -4.902  -5.576  0.00  0.00    -0.004 A 
ATOM     17  S   UNL     1      -0.848  -4.274  -3.924  0.00  0.00    -0.073 S 
ATOM     18  C   UNL     1      -2.208  -3.135  -3.961  0.00  0.00    +0.116 A 
ATOM     19  N   UNL     1      -2.737  -2.285  -3.085  0.00  0.00    -0.229 NA
ATOM     20  C   UNL     1      -0.122  -5.934  -6.237  0.00  0.00    +0.043 C 
ATOM     21  C   UNL     1      -0.836  -6.420  -7.507  0.00  0.00    +0.005 C 
ATOM     22  C   UNL     1      -1.320  -5.200  -8.295  0.00  0.00    +0.005 C 
ATOM     23  C   UNL     1      -2.472  -4.524  -7.550  0.00  0.00    +0.037 C 
ENDBRANCH   8   9
ENDBRANCH   1   8
BRANCH   1  24
ATOM     24  C   UNL     1      -4.205   0.135  -0.102  0.00  0.00    -0.046 C 
BRANCH  24  25
ATOM     25  C   UNL     1      -3.469  -0.055   1.226  0.00  0.00    +0.102 C 
BRANCH  25  26
ATOM     26  O   UNL     1      -3.553  -1.424   1.626  0.00  0.00    -0.393 OA
ATOM     27  H   UNL     1      -4.457  -1.743   1.752  0.00  0.00    +0.210 HD
ENDBRANCH  25  26
BRANCH  25  28
ATOM     28  C   UNL     1      -4.113   0.829   2.296  0.00  0.00    +0.064 C 
BRANCH  28  29
ATOM     29  C   UNL     1      -3.315   0.736   3.571  0.00  0.00    -0.045 A 
ATOM     30  C   UNL     1      -3.621  -0.232   4.509  0.00  0.00    +0.004 A 
ATOM     31  C   UNL     1      -2.889  -0.317   5.679  0.00  0.00    +0.000 A 
ATOM     32  C   UNL     1      -1.851   0.566   5.910  0.00  0.00    +0.000 A 
ATOM     33  C   UNL     1      -1.545   1.534   4.972  0.00  0.00    +0.000 A 
ATOM     34  C   UNL     1      -2.274   1.616   3.801  0.00  0.00    +0.004 A 
ENDBRANCH  28  29
ENDBRANCH  25  28
ENDBRANCH  24  25
ENDBRANCH   1  24
TORSDOF 10
