REMARK  Name = ZINC58899780
REMARK  5 active torsions:
REMARK  status: ('A' for Active; 'I' for Inactive)
REMARK    1  A    between atoms: C_1  and  C_2
REMARK    2  A    between atoms: C_2  and  C_14
REMARK    3  A    between atoms: C_6  and  S_9
REMARK    4  A    between atoms: S_9  and  C_10
REMARK    5  A    between atoms: C_10  and  C_11
REMARK                            x       y       z     vdW  Elec       q    Type
REMARK                         _______ _______ _______ _____ _____    ______ ____
ROOT
ATOM      1  C   UNL     1      -0.019   1.526   0.010  0.00  0.00    +0.043 C 
ATOM      2  C   UNL     1       0.002  -0.004   0.002  0.00  0.00    +0.123 C 
ATOM      3  C   UNL     1      -1.411  -0.534   0.050  0.00  0.00    +0.273 C 
ATOM      4  O   UNL     1      -2.404   0.138  -0.568  0.00  0.00    -0.268 OA
ATOM      5  N   UNL     1      -1.673  -1.636   0.684  0.00  0.00    -0.184 NA
ATOM      6  C   UNL     1      -0.715  -2.340   1.343  0.00  0.00    +0.208 C 
ATOM      7  N   UNL     1       0.456  -1.824   1.595  0.00  0.00    -0.159 NA
ATOM      8  N   UNL     1       0.713  -0.499   1.193  0.00  0.00    -0.252 N 
ATOM      9  C   UNL     1       0.701  -0.505  -1.264  0.00  0.00    +0.043 C 
ATOM     10  H   UNL     1       1.334   0.065   1.680  0.00  0.00    +0.169 HD
ENDROOT
BRANCH   6  11
ATOM     11  S   UNL     1      -1.063  -3.985   1.868  0.00  0.00    -0.073 S 
BRANCH  11  12
ATOM     12  C   UNL     1       0.468  -4.519   2.683  0.00  0.00    +0.202 C 
BRANCH  12  13
ATOM     13  C   UNL     1       0.303  -5.930   3.186  0.00  0.00    +0.366 C 
ATOM     14  O   UNL     1      -0.749  -6.521   3.010  0.00  0.00    -0.245 OA
ATOM     15  O   UNL     1       1.222  -6.481   3.767  0.00  0.00    -0.245 OA
ENDBRANCH  12  13
ENDBRANCH  11  12
ENDBRANCH   6  11
TORSDOF 3
