REMARK  Name = ZINC42800073
REMARK  7 active torsions:
REMARK  status: ('A' for Active; 'I' for Inactive)
REMARK    1  A    between atoms: C_1  and  C_2
REMARK    2  A    between atoms: C_7  and  C_8
REMARK    3  A    between atoms: C_8  and  C_10
REMARK    4  A    between atoms: C_8  and  N_11
REMARK    5  A    between atoms: N_14  and  N_15
REMARK    6  A    between atoms: N_18  and  C_19
REMARK    7  A    between atoms: C_24  and  C_25
REMARK                            x       y       z     vdW  Elec       q    Type
REMARK                         _______ _______ _______ _____ _____    ______ ____
ROOT
ATOM      1  N   UNL     1       0.593  -0.793   3.564  0.00  0.00    -0.292 N 
ATOM      2  C   UNL     1       1.165  -0.222   4.642  0.00  0.00    +0.316 C 
ATOM      3  O   UNL     1       1.169   0.988   4.759  0.00  0.00    -0.251 OA
ATOM      4  N   UNL     1       1.733  -0.992   5.591  0.00  0.00    -0.217 N 
ATOM      5  H   UNL     1       0.590  -1.759   3.471  0.00  0.00    +0.151 HD
ATOM      6  H   UNL     1       2.145  -0.581   6.367  0.00  0.00    +0.174 HD
ENDROOT
BRANCH   4   7
ATOM      7  N   UNL     1       1.728  -2.387   5.457  0.00  0.00    -0.217 N 
ATOM      8  C   UNL     1       2.296  -3.157   6.406  0.00  0.00    +0.320 C 
ATOM      9  O   UNL     1       2.292  -4.367   6.290  0.00  0.00    -0.251 OA
ATOM     10  N   UNL     1       2.869  -2.586   7.484  0.00  0.00    -0.268 N 
ATOM     11  H   UNL     1       1.316  -2.798   4.681  0.00  0.00    +0.174 HD
ATOM     12  H   UNL     1       2.945  -1.620   7.538  0.00  0.00    +0.156 HD
BRANCH  10  13
ATOM     13  C   UNL     1       3.353  -3.386   8.525  0.00  0.00    +0.038 A 
ATOM     14  C   UNL     1       2.827  -4.654   8.731  0.00  0.00    +0.023 A 
ATOM     15  C   UNL     1       3.307  -5.441   9.759  0.00  0.00    +0.002 A 
ATOM     16  C   UNL     1       4.310  -4.967  10.585  0.00  0.00    +0.000 A 
ATOM     17  C   UNL     1       4.836  -3.704  10.383  0.00  0.00    +0.005 A 
ATOM     18  C   UNL     1       4.365  -2.915   9.352  0.00  0.00    -0.029 A 
ATOM     19  C   UNL     1       4.943  -1.541   9.128  0.00  0.00    +0.045 C 
ENDBRANCH  10  13
ENDBRANCH   4   7
BRANCH   1  20
ATOM     20  C   UNL     1      -0.024   0.044   2.533  0.00  0.00    +0.102 C 
ATOM     21  C   UNL     1      -1.462   0.376   2.938  0.00  0.00    +0.033 C 
BRANCH  20  28
ATOM     22  C   UNL     1      -0.094   1.510   0.044  0.00  0.00    +0.044 C 
ATOM     23  C   UNL     1      -0.064   0.004   0.030  0.00  0.00    -0.046 A 
ATOM     24  C   UNL     1      -0.063  -0.676  -1.173  0.00  0.00    +0.004 A 
ATOM     25  C   UNL     1      -0.036  -2.058  -1.186  0.00  0.00    +0.000 A 
ATOM     26  C   UNL     1      -0.008  -2.760   0.005  0.00  0.00    +0.000 A 
ATOM     27  C   UNL     1      -0.007  -2.080   1.208  0.00  0.00    +0.006 A 
ATOM     28  C   UNL     1      -0.030  -0.698   1.221  0.00  0.00    -0.025 A 
ENDBRANCH  20  28
ENDBRANCH   1  20
TORSDOF 4
