REMARK  Name = ZINC59678907
REMARK  10 active torsions:
REMARK  status: ('A' for Active; 'I' for Inactive)
REMARK    1  A    between atoms: C_1  and  C_2
REMARK    2  A    between atoms: C_5  and  N_8
REMARK    3  A    between atoms: C_9  and  C_11
REMARK    4  A    between atoms: C_15  and  N_16
REMARK    5  A    between atoms: C_17  and  C_33
REMARK    6  A    between atoms: C_19  and  C_22
REMARK    7  A    between atoms: C_20  and  C_21
REMARK    8  A    between atoms: N_23  and  C_24
REMARK    9  A    between atoms: C_27  and  C_30
REMARK   10  A    between atoms: C_30  and  C_32
REMARK                            x       y       z     vdW  Elec       q    Type
REMARK                         _______ _______ _______ _____ _____    ______ ____
ROOT
ATOM      1  C   UNL     1       0.222  -6.151   0.244  0.00  0.00    +0.072 A 
ATOM      2  C   UNL     1       1.591  -6.623   0.341  0.00  0.00    -0.023 A 
ATOM      3  C   UNL     1       1.734  -7.761   1.055  0.00  0.00    -0.004 A 
ATOM      4  S   UNL     1       0.094  -8.175   1.572  0.00  0.00    -0.075 S 
ATOM      5  C   UNL     1      -0.753  -6.899   0.883  0.00  0.00    +0.097 A 
ATOM      6  C   UNL     1       3.010  -8.495   1.333  0.00  0.00    +0.043 C 
ATOM      7  C   UNL     1       4.087  -7.970   0.371  0.00  0.00    +0.005 C 
ATOM      8  C   UNL     1       4.064  -6.438   0.390  0.00  0.00    +0.005 C 
ATOM      9  C   UNL     1       2.790  -5.928  -0.288  0.00  0.00    +0.037 C 
ENDROOT
BRANCH   5  10
ATOM     10  N   UNL     1      -2.120  -6.652   0.939  0.00  0.00    -0.311 N 
ATOM     11  C   UNL     1      -3.042  -7.147   0.058  0.00  0.00    +0.022 A 
ATOM     12  C   UNL     1      -4.264  -6.711   0.406  0.00  0.00    +0.032 A 
ATOM     13  C   UNL     1      -4.087  -5.876   1.602  0.00  0.00    +0.014 A 
ATOM     14  C   UNL     1      -2.734  -5.889   1.878  0.00  0.00    +0.030 A 
ATOM     15  C   UNL     1      -2.057  -5.178   3.022  0.00  0.00    +0.064 C 
ATOM     16  C   UNL     1      -2.736  -8.040  -1.117  0.00  0.00    +0.064 C 
BRANCH  13  17
ATOM     17  C   UNL     1      -5.134  -5.176   2.353  0.00  0.00    +0.121 C 
ATOM     18  N   UNL     1      -4.821  -4.465   3.404  0.00  0.00    -0.255 NA
BRANCH  18  19
ATOM     19  C   UNL     1      -5.795  -3.814   4.102  0.00  0.00    +0.064 A 
ATOM     20  C   UNL     1      -6.785  -3.097   3.420  0.00  0.00    +0.028 A 
ATOM     21  C   UNL     1      -7.760  -2.446   4.117  0.00  0.00    +0.013 A 
ATOM     22  C   UNL     1      -7.770  -2.495   5.518  0.00  0.00    +0.017 A 
ATOM     23  C   UNL     1      -6.779  -3.214   6.201  0.00  0.00    +0.013 A 
ATOM     24  C   UNL     1      -5.808  -3.869   5.501  0.00  0.00    +0.028 A 
BRANCH  22  25
ATOM     25  C   UNL     1      -8.818  -1.794   6.269  0.00  0.00    +0.160 C 
ATOM     26  O   UNL     1      -9.675  -1.172   5.678  0.00  0.00    -0.292 OA
ATOM     27  C   UNL     1      -8.829  -1.848   7.775  0.00  0.00    +0.091 C 
ENDBRANCH  22  25
ENDBRANCH  18  19
ENDBRANCH  13  17
ENDBRANCH   5  10
BRANCH   1  29
ATOM     28  N   UNL     1      -0.398  -4.993  -1.811  0.00  0.00    -0.281 N 
ATOM     29  C   UNL     1      -0.115  -4.929  -0.494  0.00  0.00    +0.251 C 
ATOM     30  O   UNL     1      -0.138  -3.857   0.081  0.00  0.00    -0.270 OA
ATOM     31  H   UNL     1      -0.402  -5.851  -2.264  0.00  0.00    +0.155 HD
BRANCH  28  36
ATOM     32  C   UNL     1      -1.565  -0.252  -4.697  0.00  0.00    +0.044 C 
ATOM     33  C   UNL     1      -1.255  -1.511  -3.930  0.00  0.00    -0.050 A 
ATOM     34  C   UNL     1      -0.560  -2.538  -4.543  0.00  0.00    +0.005 A 
ATOM     35  C   UNL     1      -0.274  -3.694  -3.842  0.00  0.00    +0.023 A 
ATOM     36  C   UNL     1      -0.685  -3.824  -2.522  0.00  0.00    +0.034 A 
ATOM     37  C   UNL     1      -1.383  -2.791  -1.910  0.00  0.00    +0.023 A 
ATOM     38  C   UNL     1      -1.661  -1.636  -2.615  0.00  0.00    +0.005 A 
ENDBRANCH  28  36
ENDBRANCH   1  29
TORSDOF 6
