REMARK  Name = ZINC35671855
REMARK  10 active torsions:
REMARK  status: ('A' for Active; 'I' for Inactive)
REMARK    1  A    between atoms: C_1  and  C_2
REMARK    2  A    between atoms: C_5  and  N_9
REMARK    3  A    between atoms: C_7  and  C_8
REMARK    4  A    between atoms: C_11  and  C_28
REMARK    5  A    between atoms: C_15  and  C_17
REMARK    6  A    between atoms: C_17  and  N_18
REMARK    7  A    between atoms: N_18  and  C_19
REMARK    8  A    between atoms: N_24  and  C_25
REMARK    9  A    between atoms: C_25  and  C_26
REMARK   10  A    between atoms: C_25  and  C_27
REMARK                            x       y       z     vdW  Elec       q    Type
REMARK                         _______ _______ _______ _____ _____    ______ ____
ROOT
ATOM      1  N   UNL     1       0.076  -4.091  -0.058  0.00  0.00    -0.287 N 
ATOM      2  C   UNL     1       0.939  -4.886   0.658  0.00  0.00    +0.122 A 
ATOM      3  C   UNL     1       0.608  -6.172   0.381  0.00  0.00    +0.091 A 
ATOM      4  N   UNL     1      -0.431  -6.161  -0.482  0.00  0.00    -0.214 NA
ATOM      5  C   UNL     1      -0.759  -4.921  -0.746  0.00  0.00    +0.207 A 
ATOM      6  N   UNL     1      -1.786  -4.518  -1.590  0.00  0.00    -0.254 N 
ATOM      7  C   UNL     1      -2.545  -5.439  -2.215  0.00  0.00    +0.237 C 
ATOM      8  O   UNL     1      -2.332  -6.620  -2.041  0.00  0.00    -0.274 OA
ATOM      9  H   UNL     1      -1.956  -3.573  -1.729  0.00  0.00    +0.158 HD
ENDROOT
BRANCH   1  14
ATOM     10  C   UNL     1      -0.012   1.583  -0.120  0.00  0.00    +0.044 C 
ATOM     11  C   UNL     1       0.012   0.077  -0.104  0.00  0.00    -0.047 A 
ATOM     12  C   UNL     1       0.011  -0.627  -1.295  0.00  0.00    +0.005 A 
ATOM     13  C   UNL     1       0.032  -2.007  -1.283  0.00  0.00    +0.026 A 
ATOM     14  C   UNL     1       0.055  -2.689  -0.073  0.00  0.00    +0.049 A 
ATOM     15  C   UNL     1       0.056  -1.981   1.120  0.00  0.00    +0.029 A 
ATOM     16  C   UNL     1       0.039  -0.600   1.102  0.00  0.00    -0.046 A 
ATOM     17  C   UNL     1       0.046   0.171   2.397  0.00  0.00    +0.044 C 
ENDBRANCH   1  14
BRANCH   3  18
ATOM     18  C   UNL     1       1.271  -7.380   0.931  0.00  0.00    +0.002 A 
ATOM     19  C   UNL     1       2.335  -7.249   1.822  0.00  0.00    +0.011 A 
ATOM     20  C   UNL     1       2.948  -8.376   2.331  0.00  0.00    +0.020 A 
ATOM     21  C   UNL     1       2.509  -9.634   1.957  0.00  0.00    +0.041 A 
ATOM     22  C   UNL     1       1.453  -9.770   1.072  0.00  0.00    +0.020 A 
ATOM     23  C   UNL     1       0.829  -8.649   0.562  0.00  0.00    +0.011 A 
ATOM     24 CL   UNL     1       3.285 -11.048   2.600  0.00  0.00    -0.084 Cl
ENDBRANCH   3  18
BRANCH   7  25
ATOM     25  C   UNL     1      -3.659  -5.002  -3.131  0.00  0.00    +0.205 C 
BRANCH  25  26
ATOM     26  N   UNL     1      -4.329  -6.181  -3.683  0.00  0.00    -0.274 N 
ATOM     27  C   UNL     1      -3.896  -6.723  -4.838  0.00  0.00    +0.303 C 
ATOM     28  O   UNL     1      -2.895  -6.290  -5.376  0.00  0.00    -0.253 OA
ATOM     29  N   UNL     1      -4.572  -7.746  -5.399  0.00  0.00    -0.297 N 
ATOM     30  H   UNL     1      -5.410  -8.043  -5.011  0.00  0.00    +0.150 HD
BRANCH  26  31
ATOM     31  C   UNL     1      -5.470  -6.773  -2.979  0.00  0.00    +0.078 C 
ATOM     32  C   UNL     1      -5.956  -6.072  -1.709  0.00  0.00    +0.024 C 
ATOM     33  C   UNL     1      -5.206  -7.402  -1.610  0.00  0.00    +0.024 C 
ENDBRANCH  26  31
BRANCH  29  34
ATOM     34  C   UNL     1      -4.042  -8.408  -6.593  0.00  0.00    +0.068 C 
ATOM     35  C   UNL     1      -3.043  -9.489  -6.176  0.00  0.00    +0.027 C 
ATOM     36  C   UNL     1      -5.191  -9.048  -7.374  0.00  0.00    +0.027 C 
ENDBRANCH  29  34
ENDBRANCH  25  26
ENDBRANCH   7  25
TORSDOF 6
