REMARK  Name = ZINC09781865
REMARK  9 active torsions:
REMARK  status: ('A' for Active; 'I' for Inactive)
REMARK    1  A    between atoms: C_1  and  C_2
REMARK    2  A    between atoms: C_4  and  N_11
REMARK    3  A    between atoms: C_6  and  C_8
REMARK    4  A    between atoms: C_8  and  C_9
REMARK    5  A    between atoms: C_8  and  C_10
REMARK    6  A    between atoms: C_16  and  N_17
REMARK    7  A    between atoms: C_16  and  N_67
REMARK    8  A    between atoms: C_20  and  C_24
REMARK    9  A    between atoms: C_20  and  C_25
REMARK                            x       y       z     vdW  Elec       q    Type
REMARK                         _______ _______ _______ _____ _____    ______ ____
ROOT
ATOM      1  N   UNL     1       2.064   5.029   9.521  0.00  0.00    -0.241 N 
ATOM      2  C   UNL     1       3.067   4.322  10.079  0.00  0.00    +0.249 C 
ATOM      3  O   UNL     1       4.143   4.063   9.584  0.00  0.00    -0.272 OA
ATOM      4  C   UNL     1       2.570   3.920  11.453  0.00  0.00    +0.136 C 
ATOM      5  N   UNL     1       1.218   4.502  11.516  0.00  0.00    -0.281 N 
ATOM      6  C   UNL     1       1.015   5.133  10.346  0.00  0.00    +0.308 C 
ATOM      7  O   UNL     1      -0.007   5.727  10.067  0.00  0.00    -0.252 OA
ATOM      8  C   UNL     1       3.463   4.515  12.543  0.00  0.00    +0.047 C 
ATOM      9  H   UNL     1       0.597   4.444  12.259  0.00  0.00    +0.152 HD
ENDROOT
BRANCH   4  10
ATOM     10  C   UNL     1       2.508   2.419  11.576  0.00  0.00    -0.008 A 
ATOM     11  C   UNL     1       1.314   1.798  11.780  0.00  0.00    +0.007 A 
ATOM     12  C   UNL     1       1.236   0.411  11.891  0.00  0.00    +0.001 A 
ATOM     13  C   UNL     1       2.354  -0.362  11.809  0.00  0.00    +0.008 A 
ATOM     14  C   UNL     1       3.605   0.244  11.605  0.00  0.00    -0.018 A 
ATOM     15  C   UNL     1       3.683   1.655  11.487  0.00  0.00    -0.012 A 
ATOM     16  C   UNL     1       4.935   2.260  11.283  0.00  0.00    +0.009 A 
ATOM     17  C   UNL     1       6.052   1.487  11.203  0.00  0.00    +0.001 A 
ATOM     18  C   UNL     1       5.975   0.100  11.319  0.00  0.00    +0.001 A 
ATOM     19  C   UNL     1       4.781  -0.521  11.517  0.00  0.00    +0.008 A 
ENDBRANCH   4  10
BRANCH   1  20
ATOM     20  C   UNL     1       2.117   5.617   8.180  0.00  0.00    +0.043 C 
BRANCH  20  26
ATOM     21  N   UNL     1       1.837   2.554   5.284  0.00  0.00    -0.319 N 
ATOM     22  C   UNL     1       1.282   2.292   6.620  0.00  0.00    +0.088 C 
ATOM     23  C   UNL     1       1.895   3.270   7.625  0.00  0.00    -0.057 C 
ATOM     24  C   UNL     1       2.163   4.910   5.864  0.00  0.00    -0.057 C 
ATOM     25  C   UNL     1       1.550   3.932   4.860  0.00  0.00    +0.088 C 
ATOM     26  N   UNL     1       1.582   4.650   7.198  0.00  0.00    +0.392 N 
ATOM     27  H   UNL     1       0.562   4.759   7.145  0.00  0.00    -0.079 HD
BRANCH  21  31
ATOM     28  C   UNL     1       1.180  -2.091   3.792  0.00  0.00    +0.066 C 
ATOM     29  C   UNL     1       1.028  -0.602   3.616  0.00  0.00    +0.044 A 
ATOM     30  C   UNL     1       1.523   0.269   4.567  0.00  0.00    +0.066 A 
ATOM     31  C   UNL     1       1.357   1.640   4.360  0.00  0.00    +0.125 A 
ATOM     32  N   UNL     1       0.738   2.054   3.258  0.00  0.00    -0.217 NA
ATOM     33  C   UNL     1       0.277   1.188   2.380  0.00  0.00    +0.134 A 
ATOM     34  N   UNL     1       0.417  -0.112   2.546  0.00  0.00    -0.237 NA
BRANCH  33  35
ATOM     35  C   UNL     1      -0.424   1.697   1.147  0.00  0.00    +0.051 C 
ATOM     36  C   UNL     1       0.331   1.231  -0.099  0.00  0.00    +0.015 C 
ATOM     37  C   UNL     1      -1.853   1.151   1.111  0.00  0.00    +0.015 C 
ENDBRANCH  33  35
ENDBRANCH  21  31
ENDBRANCH  20  26
ENDBRANCH   1  20
TORSDOF 5
