REMARK  Name = ZINC04016699
REMARK  12 active torsions:
REMARK  status: ('A' for Active; 'I' for Inactive)
REMARK    1  A    between atoms: C_1  and  C_2
REMARK    2  A    between atoms: C_2  and  C_3
REMARK    3  A    between atoms: C_2  and  C_4
REMARK    4  A    between atoms: C_4  and  C_5
REMARK    5  A    between atoms: C_8  and  C_11
REMARK    6  A    between atoms: C_11  and  C_13
REMARK    7  A    between atoms: C_11  and  C_14
REMARK    8  A    between atoms: C_14  and  O_16
REMARK    9  A    between atoms: O_16  and  C_17
REMARK   10  A    between atoms: C_17  and  C_19
REMARK   11  A    between atoms: C_17  and  C_29
REMARK   12  A    between atoms: C_37  and  C_39
REMARK                            x       y       z     vdW  Elec       q    Type
REMARK                         _______ _______ _______ _____ _____    ______ ____
ROOT
ATOM      1  C   UNL     1       0.243   2.454   2.149  0.00  0.00    +0.194 C 
ENDROOT
BRANCH   1   2
ATOM      2  C   UNL     1      -0.402   3.046   3.375  0.00  0.00    +0.002 A 
ATOM      3  C   UNL     1      -0.898   4.319   3.362  0.00  0.00    +0.027 A 
ATOM      4  C   UNL     1      -1.495   4.844   4.505  0.00  0.00    +0.112 A 
ATOM      5  N   UNL     1      -1.590   4.151   5.614  0.00  0.00    -0.255 NA
ATOM      6  C   UNL     1      -1.121   2.903   5.696  0.00  0.00    +0.071 A 
ATOM      7  C   UNL     1      -0.506   2.306   4.567  0.00  0.00    +0.007 A 
ATOM      8  C   UNL     1      -0.013   0.994   4.658  0.00  0.00    +0.010 A 
ATOM      9  C   UNL     1      -0.133   0.310   5.829  0.00  0.00    +0.001 A 
ATOM     10  C   UNL     1      -0.737   0.895   6.941  0.00  0.00    +0.002 A 
ATOM     11  C   UNL     1      -1.225   2.164   6.888  0.00  0.00    +0.028 A 
ENDBRANCH   1   2
BRANCH   1  12
ATOM     12  C   UNL     1      -0.792   1.639   1.371  0.00  0.00    -0.022 C 
ATOM     13  C   UNL     1      -0.186   1.180   0.041  0.00  0.00    -0.008 C 
ATOM     14  C   UNL     1      -1.023   1.752  -1.111  0.00  0.00    -0.009 C 
ATOM     15  C   UNL     1      -1.023   3.282  -1.003  0.00  0.00    -0.015 C 
ATOM     16  C   UNL     1      -1.609   3.682   0.354  0.00  0.00    -0.078 C 
ATOM     17  C   UNL     1      -3.011   1.708   0.393  0.00  0.00    -0.070 C 
ATOM     18  C   UNL     1      -2.466   1.251  -0.963  0.00  0.00    -0.003 C 
ATOM     19  N   UNL     1      -1.987   2.481   1.128  0.00  0.00    +0.385 N 
ATOM     20  H   UNL     1      -2.376   2.776   2.032  0.00  0.00    -0.081 HD
BRANCH  18  21
ATOM     21  C   UNL     1      -2.488  -0.254  -1.037  0.00  0.00    -0.033 C 
ATOM     22  C   UNL     1      -3.178  -0.853  -1.975  0.00  0.00    +0.004 C 
ENDBRANCH  18  21
ENDBRANCH   1  12
BRANCH   1  23
ATOM     23  O   UNL     1       0.752   3.521   1.306  0.00  0.00    -0.458 OA
BRANCH  23  24
ATOM     24  C   UNL     1       2.029   3.890   1.495  0.00  0.00    +0.315 C 
ATOM     25  O   UNL     1       2.730   3.272   2.260  0.00  0.00    -0.250 OA
BRANCH  24  26
ATOM     26  C   UNL     1       2.588   5.077   0.752  0.00  0.00    +0.125 C 
ATOM     27  C   UNL     1       2.663   4.754  -0.741  0.00  0.00    +0.024 C 
BRANCH  26  31
ATOM     28  C   UNL     1       6.502   5.959   2.219  0.00  0.00    -0.047 A 
ATOM     29  C   UNL     1       5.501   6.909   2.305  0.00  0.00    +0.004 A 
ATOM     30  C   UNL     1       4.234   6.623   1.830  0.00  0.00    +0.005 A 
ATOM     31  C   UNL     1       3.969   5.388   1.270  0.00  0.00    -0.034 A 
ATOM     32  C   UNL     1       4.968   4.436   1.188  0.00  0.00    +0.005 A 
ATOM     33  C   UNL     1       6.236   4.724   1.658  0.00  0.00    +0.004 A 
BRANCH  28  34
ATOM     34  C   UNL     1       7.883   6.270   2.736  0.00  0.00    +0.038 C 
BRANCH  34  36
ATOM     35  C   UNL     1       9.414   6.066   4.699  0.00  0.00    +0.007 C 
ATOM     36  C   UNL     1       7.979   5.867   4.208  0.00  0.00    -0.013 C 
ATOM     37  C   UNL     1       7.030   6.735   5.038  0.00  0.00    +0.007 C 
ENDBRANCH  34  36
ENDBRANCH  28  34
ENDBRANCH  26  31
ENDBRANCH  24  26
ENDBRANCH  23  24
ENDBRANCH   1  23
TORSDOF 9
