REMARK  Name = ZINC02281413
REMARK  14 active torsions:
REMARK  status: ('A' for Active; 'I' for Inactive)
REMARK    1  A    between atoms: C_1  and  C_2
REMARK    2  A    between atoms: C_2  and  O_3
REMARK    3  A    between atoms: O_3  and  C_4
REMARK    4  A    between atoms: C_4  and  C_6
REMARK    5  A    between atoms: C_7  and  C_38
REMARK    6  A    between atoms: C_14  and  C_15
REMARK    7  A    between atoms: C_18  and  C_21
REMARK    8  A    between atoms: C_21  and  C_22
REMARK    9  A    between atoms: C_21  and  C_23
REMARK   10  A    between atoms: C_21  and  C_24
REMARK   11  A    between atoms: C_26  and  C_28
REMARK   12  A    between atoms: C_31  and  O_34
REMARK   13  A    between atoms: O_34  and  C_35
REMARK   14  A    between atoms: C_35  and  C_37
REMARK                            x       y       z     vdW  Elec       q    Type
REMARK                         _______ _______ _______ _____ _____    ______ ____
ROOT
ATOM      1  C   UNL     1       0.216   3.408   2.304  0.00  0.00    +0.085 C 
ATOM      2  C   UNL     1      -0.494   3.254   1.147  0.00  0.00    +0.053 C 
ATOM      3  N   UNL     1      -1.819   3.185   1.173  0.00  0.00    -0.228 NA
ATOM      4  C   UNL     1      -2.549   3.242   2.258  0.00  0.00    +0.178 A 
ATOM      5  N   UNL     1      -2.035   3.395   3.525  0.00  0.00    -0.275 N 
ATOM      6  C   UNL     1      -2.882   3.445   4.561  0.00  0.00    +0.268 A 
ATOM      7  O   UNL     1      -2.474   3.579   5.699  0.00  0.00    -0.266 OA
ATOM      8  C   UNL     1      -4.322   3.333   4.280  0.00  0.00    +0.081 A 
ATOM      9  C   UNL     1      -5.373   3.355   5.138  0.00  0.00    +0.028 C 
ATOM     10  S   UNL     1      -4.313   3.162   2.502  0.00  0.00    -0.046 S 
ATOM     11  C   UNL     1      -0.550   3.489   3.604  0.00  0.00    +0.162 C 
ATOM     12  C   UNL     1       0.233   3.169  -0.171  0.00  0.00    +0.066 C 
ENDROOT
BRANCH   9  13
ATOM     13  C   UNL     1      -6.746   3.408   4.618  0.00  0.00    -0.024 A 
ATOM     14  C   UNL     1      -6.979   3.743   3.279  0.00  0.00    +0.008 A 
ATOM     15  C   UNL     1      -8.270   3.784   2.798  0.00  0.00    +0.005 A 
ATOM     16  C   UNL     1      -9.335   3.506   3.637  0.00  0.00    -0.042 A 
ATOM     17  C   UNL     1      -9.114   3.180   4.964  0.00  0.00    +0.005 A 
ATOM     18  C   UNL     1      -7.829   3.129   5.460  0.00  0.00    +0.008 A 
BRANCH  16  19
ATOM     19  C   UNL     1     -10.744   3.560   3.103  0.00  0.00    -0.013 C 
ATOM     20  C   UNL     1     -11.544   4.606   3.882  0.00  0.00    +0.015 C 
ATOM     21  C   UNL     1     -10.713   3.941   1.622  0.00  0.00    +0.015 C 
ATOM     22  C   UNL     1     -11.403   2.189   3.264  0.00  0.00    +0.015 C 
ENDBRANCH  16  19
ENDBRANCH   9  13
BRANCH  11  23
ATOM     23  C   UNL     1      -0.063   2.379   4.499  0.00  0.00    -0.020 A 
ATOM     24  C   UNL     1      -0.537   1.092   4.323  0.00  0.00    +0.009 A 
ATOM     25  C   UNL     1      -0.087   0.072   5.139  0.00  0.00    +0.047 A 
ATOM     26  C   UNL     1       0.832   0.341   6.143  0.00  0.00    +0.132 A 
ATOM     27  C   UNL     1       1.301   1.635   6.321  0.00  0.00    +0.047 A 
ATOM     28  C   UNL     1       0.853   2.651   5.499  0.00  0.00    +0.009 A 
BRANCH  26  29
ATOM     29  O   UNL     1       1.272  -0.660   6.950  0.00  0.00    -0.426 OA
BRANCH  29  30
ATOM     30  C   UNL     1       0.753  -0.718   8.187  0.00  0.00    +0.309 C 
ATOM     31  O   UNL     1      -0.105   0.065   8.520  0.00  0.00    -0.251 OA
ATOM     32  C   UNL     1       1.242  -1.759   9.161  0.00  0.00    +0.136 C 
ENDBRANCH  29  30
ENDBRANCH  26  29
ENDBRANCH  11  23
BRANCH   1  33
ATOM     33  C   UNL     1       1.619   3.488   2.285  0.00  0.00    +0.339 C 
ATOM     34  O   UNL     1       2.215   3.485   1.223  0.00  0.00    -0.245 OA
BRANCH  33  35
ATOM     35  O   UNL     1       2.306   3.569   3.446  0.00  0.00    -0.462 OA
BRANCH  35  37
ATOM     36  C   UNL     1       4.329   3.733   4.757  0.00  0.00    +0.048 C 
ATOM     37  C   UNL     1       3.730   3.648   3.352  0.00  0.00    +0.229 C 
ENDBRANCH  35  37
ENDBRANCH  33  35
ENDBRANCH   1  33
TORSDOF 8
