REMARK  Name = ZINC00624247
REMARK  9 active torsions:
REMARK  status: ('A' for Active; 'I' for Inactive)
REMARK    1  A    between atoms: C_1  and  C_2
REMARK    2  A    between atoms: C_5  and  S_8
REMARK    3  A    between atoms: S_8  and  N_11
REMARK    4  A    between atoms: N_11  and  C_12
REMARK    5  A    between atoms: N_11  and  C_30
REMARK    6  A    between atoms: C_12  and  C_13
REMARK    7  A    between atoms: C_13  and  C_15
REMARK    8  A    between atoms: C_13  and  O_29
REMARK    9  A    between atoms: C_15  and  N_16
REMARK                            x       y       z     vdW  Elec       q    Type
REMARK                         _______ _______ _______ _____ _____    ______ ____
ROOT
ATOM      1  N   UNL     1       6.079   0.584  -2.877  0.00  0.00    -0.200 N 
ENDROOT
BRANCH   1   2
ATOM      2  C   UNL     1       6.455   1.809  -3.437  0.00  0.00    +0.052 A 
ATOM      3  C   UNL     1       6.080   2.125  -4.736  0.00  0.00    +0.027 A 
ATOM      4  C   UNL     1       6.448   3.337  -5.285  0.00  0.00    +0.040 A 
ATOM      5  C   UNL     1       7.201   4.234  -4.545  0.00  0.00    +0.124 A 
ATOM      6  C   UNL     1       7.581   3.919  -3.251  0.00  0.00    +0.040 A 
ATOM      7  C   UNL     1       7.210   2.709  -2.696  0.00  0.00    +0.027 A 
ATOM      8  F   UNL     1       7.565   5.417  -5.086  0.00  0.00    -0.205 F 
ENDBRANCH   1   2
BRANCH   1   9
ATOM      9  S   UNL     1       6.613  -0.832  -3.549  0.00  0.00    +0.075 S 
ATOM     10  O   UNL     1       7.766  -0.509  -4.314  0.00  0.00    -0.150 OA
ATOM     11  O   UNL     1       6.637  -1.794  -2.504  0.00  0.00    -0.150 OA
BRANCH   9  16
ATOM     12  C   UNL     1       2.398  -2.648  -7.467  0.00  0.00    +0.044 C 
ATOM     13  C   UNL     1       3.451  -2.194  -6.488  0.00  0.00    -0.050 A 
ATOM     14  C   UNL     1       4.476  -1.368  -6.910  0.00  0.00    +0.005 A 
ATOM     15  C   UNL     1       5.442  -0.952  -6.012  0.00  0.00    +0.029 A 
ATOM     16  C   UNL     1       5.382  -1.362  -4.693  0.00  0.00    +0.109 A 
ATOM     17  C   UNL     1       4.359  -2.192  -4.273  0.00  0.00    +0.029 A 
ATOM     18  C   UNL     1       3.391  -2.604  -5.170  0.00  0.00    +0.005 A 
ENDBRANCH   9  16
ENDBRANCH   1   9
BRANCH   1  19
ATOM     19  C   UNL     1       5.213   0.554  -1.696  0.00  0.00    +0.164 C 
BRANCH  19  20
ATOM     20  C   UNL     1       3.752   0.692  -2.131  0.00  0.00    +0.153 C 
BRANCH  20  21
ATOM     21  O   UNL     1       3.552   1.976  -2.726  0.00  0.00    -0.388 OA
ATOM     22  H   UNL     1       3.816   2.716  -2.162  0.00  0.00    +0.210 HD
ENDBRANCH  20  21
BRANCH  20  23
ATOM     23  C   UNL     1       2.841   0.547  -0.911  0.00  0.00    +0.155 C 
BRANCH  23  24
ATOM     24  N   UNL     1       1.441   0.559  -1.343  0.00  0.00    -0.337 N 
ATOM     25  C   UNL     1       0.660   1.695  -1.461  0.00  0.00    +0.050 A 
ATOM     26  C   UNL     1       0.925   3.042  -1.232  0.00  0.00    +0.026 A 
ATOM     27  C   UNL     1      -0.061   3.983  -1.434  0.00  0.00    +0.002 A 
ATOM     28  C   UNL     1      -1.322   3.602  -1.866  0.00  0.00    +0.001 A 
ATOM     29  C   UNL     1      -1.602   2.273  -2.103  0.00  0.00    +0.010 A 
ATOM     30  C   UNL     1      -0.617   1.311  -1.898  0.00  0.00    +0.008 A 
ATOM     31  C   UNL     1      -0.584  -0.156  -2.048  0.00  0.00    +0.008 A 
ATOM     32  C   UNL     1       0.711  -0.563  -1.692  0.00  0.00    +0.050 A 
ATOM     33  C   UNL     1       1.037  -1.915  -1.738  0.00  0.00    +0.026 A 
ATOM     34  C   UNL     1       0.093  -2.839  -2.131  0.00  0.00    +0.002 A 
ATOM     35  C   UNL     1      -1.186  -2.435  -2.482  0.00  0.00    +0.001 A 
ATOM     36  C   UNL     1      -1.528  -1.100  -2.443  0.00  0.00    +0.010 A 
ENDBRANCH  23  24
ENDBRANCH  20  23
ENDBRANCH  19  20
ENDBRANCH   1  19
TORSDOF 8
