REMARK  Name = ZINC66222055
REMARK  4 active torsions:
REMARK  status: ('A' for Active; 'I' for Inactive)
REMARK    1  A    between atoms: C_12  and  C_14
REMARK    2  A    between atoms: C_20  and  C_23
REMARK    3  A    between atoms: C_23  and  C_24
REMARK    4  A    between atoms: C_24  and  C_25
REMARK                            x       y       z     vdW  Elec       q    Type
REMARK                         _______ _______ _______ _____ _____    ______ ____
ROOT
ATOM      1  C   UNL     1       0.535  -2.227   2.225  0.00  0.00    +0.302 C 
ATOM      2  O   UNL     1       0.601  -1.023   2.363  0.00  0.00    -0.265 OA
ATOM      3  N   UNL     1       0.118  -3.001   3.246  0.00  0.00    -0.293 N 
ATOM      4  C   UNL     1       0.142  -4.466   3.134  0.00  0.00    +0.108 C 
ATOM      5  C   UNL     1      -1.253  -5.008   3.461  0.00  0.00    +0.019 C 
ATOM      6  C   UNL     1      -1.688  -4.490   4.834  0.00  0.00    +0.006 C 
ATOM      7  C   UNL     1      -1.759  -2.962   4.805  0.00  0.00    +0.007 C 
ATOM      8  C   UNL     1      -0.365  -2.396   4.495  0.00  0.00    +0.111 C 
ENDROOT
BRANCH   1  20
ATOM      9  C   UNL     1      -0.108   1.353  -0.006  0.00  0.00    +0.002 A 
ATOM     10  C   UNL     1       1.057   2.099  -0.028  0.00  0.00    +0.001 A 
ATOM     11  C   UNL     1       2.288   1.462  -0.029  0.00  0.00    +0.016 A 
ATOM     12  C   UNL     1       2.332   0.081  -0.023  0.00  0.00    +0.029 A 
ATOM     13  C   UNL     1       1.169  -0.676  -0.035  0.00  0.00    +0.050 A 
ATOM     14  C   UNL     1      -0.061  -0.028  -0.006  0.00  0.00    +0.024 A 
ATOM     15  N   UNL     1       1.214  -2.072  -0.136  0.00  0.00    -0.263 N 
ATOM     16  C   UNL     1       1.594  -2.667  -1.426  0.00  0.00    +0.115 C 
ATOM     17  C   UNL     1       3.080  -2.890  -1.516  0.00  0.00    +0.030 C 
ATOM     18  C   UNL     1       3.926  -1.627  -1.578  0.00  0.00    +0.076 C 
ATOM     19  S   UNL     1       3.889  -0.773   0.026  0.00  0.00    -0.123 S 
ATOM     20  C   UNL     1       0.918  -2.851   0.923  0.00  0.00    +0.306 C 
ATOM     21  O   UNL     1       0.963  -4.059   0.819  0.00  0.00    -0.265 OA
ENDBRANCH   1  20
BRANCH   7  22
ATOM     22  C   UNL     1      -2.227  -2.446   6.168  0.00  0.00    +0.014 C 
BRANCH  22  23
ATOM     23  C   UNL     1      -2.417  -0.930   6.102  0.00  0.00    +0.096 C 
BRANCH  23  24
ATOM     24  C   UNL     1      -2.878  -0.422   7.444  0.00  0.00    +0.210 C 
ATOM     25  O   UNL     1      -3.038  -1.198   8.363  0.00  0.00    -0.276 OA
ATOM     26  N   UNL     1      -3.112   0.893   7.623  0.00  0.00    -0.329 N 
ATOM     27  H   UNL     1      -2.983   1.513   6.888  0.00  0.00    +0.145 HD
ATOM     28  H   UNL     1      -3.408   1.219   8.487  0.00  0.00    +0.145 HD
ENDBRANCH  23  24
ENDBRANCH  22  23
ENDBRANCH   7  22
TORSDOF 4
