REMARK  Name = ZINC12325294
REMARK  4 active torsions:
REMARK  status: ('A' for Active; 'I' for Inactive)
REMARK    1  A    between atoms: C_1  and  C_2
REMARK    2  A    between atoms: C_6  and  C_8
REMARK    3  A    between atoms: C_8  and  O_29
REMARK    4  A    between atoms: C_14  and  C_16
REMARK                            x       y       z     vdW  Elec       q    Type
REMARK                         _______ _______ _______ _____ _____    ______ ____
ROOT
ATOM      1  C   UNL     1       8.784  -3.231  -0.026  0.00  0.00    +0.094 C 
ATOM      2  C   UNL     1       7.885  -4.465   0.081  0.00  0.00    +0.058 C 
ATOM      3  C   UNL     1       6.867  -4.451  -1.063  0.00  0.00    +0.111 C 
ATOM      4  N   UNL     1       6.143  -3.172  -1.037  0.00  0.00    -0.297 N 
ATOM      5  C   UNL     1       6.916  -1.923  -1.050  0.00  0.00    +0.111 C 
ATOM      6  C   UNL     1       7.933  -1.965   0.100  0.00  0.00    +0.058 C 
ATOM      7  C   UNL     1       4.796  -3.147  -1.007  0.00  0.00    +0.252 C 
ATOM      8  O   UNL     1       4.170  -4.184  -0.906  0.00  0.00    -0.270 OA
ENDROOT
BRANCH   7   9
ATOM      9  C   UNL     1       4.083  -1.863  -1.096  0.00  0.00    +0.101 A 
ATOM     10  C   UNL     1       3.980  -1.191  -2.312  0.00  0.00    +0.023 A 
ATOM     11  C   UNL     1       3.293   0.025  -2.350  0.00  0.00    -0.027 A 
ATOM     12  C   UNL     1       2.741   0.535  -1.234  0.00  0.00    +0.022 A 
ATOM     13  N   UNL     1       2.837  -0.111  -0.043  0.00  0.00    -0.325 N 
ATOM     14  H   UNL     1       2.432   0.279   0.747  0.00  0.00    +0.169 HD
ATOM     15  C   UNL     1       3.486  -1.286   0.055  0.00  0.00    +0.261 A 
ATOM     16  O   UNL     1       3.562  -1.854   1.131  0.00  0.00    -0.267 OA
ATOM     17  C   UNL     1       1.995   1.853  -1.292  0.00  0.00    +0.053 C 
ATOM     18  C   UNL     1       0.679   1.636  -2.042  0.00  0.00    +0.006 C 
ATOM     19  C   UNL     1       0.881   1.770  -3.540  0.00  0.00    +0.001 C 
ATOM     20  C   UNL     1       1.727   0.670  -4.151  0.00  0.00    +0.005 C 
ATOM     21  C   UNL     1       3.176   0.765  -3.667  0.00  0.00    +0.037 C 
ENDBRANCH   7   9
BRANCH   1  27
ATOM     22  C   UNL     1      13.343  -2.080   1.688  0.00  0.00    +0.044 C 
ATOM     23  C   UNL     1      11.989  -2.708   1.899  0.00  0.00    -0.050 A 
ATOM     24  C   UNL     1      11.687  -3.310   3.107  0.00  0.00    +0.003 A 
ATOM     25  C   UNL     1      10.446  -3.885   3.300  0.00  0.00    +0.001 A 
ATOM     26  C   UNL     1       9.505  -3.856   2.288  0.00  0.00    +0.006 A 
ATOM     27  C   UNL     1       9.808  -3.259   1.079  0.00  0.00    -0.016 A 
ATOM     28  C   UNL     1      11.050  -2.683   0.885  0.00  0.00    +0.009 A 
ENDBRANCH   1  27
BRANCH   1  29
ATOM     29  O   UNL     1       9.448  -3.235  -1.291  0.00  0.00    -0.384 OA
ATOM     30  H   UNL     1      10.037  -2.480  -1.429  0.00  0.00    +0.211 HD
ENDBRANCH   1  29
TORSDOF 3
