REMARK  Name = ZINC35919472
REMARK  10 active torsions:
REMARK  status: ('A' for Active; 'I' for Inactive)
REMARK    1  A    between atoms: C_1  and  C_2
REMARK    2  A    between atoms: C_12  and  O_14
REMARK    3  A    between atoms: O_14  and  C_15
REMARK    4  A    between atoms: C_20  and  O_21
REMARK    5  A    between atoms: O_21  and  C_22
REMARK    6  A    between atoms: N_24  and  C_27
REMARK    7  A    between atoms: C_27  and  C_28
REMARK    8  A    between atoms: C_32  and  O_35
REMARK    9  A    between atoms: C_33  and  O_34
REMARK   10  A    between atoms: O_35  and  C_36
REMARK                            x       y       z     vdW  Elec       q    Type
REMARK                         _______ _______ _______ _____ _____    ______ ____
ROOT
ATOM      1  C   UNL     1      -1.281   2.613   1.685  0.00  0.00    +0.007 C 
ATOM      2  C   UNL     1      -1.001   1.141   1.373  0.00  0.00    -0.011 C 
ATOM      3  C   UNL     1      -2.326   0.391   1.222  0.00  0.00    +0.022 C 
ATOM      4  C   UNL     1      -2.042  -1.074   0.876  0.00  0.00    +0.108 C 
ATOM      5  N   UNL     1      -1.143  -1.635   1.893  0.00  0.00    -0.300 N 
ATOM      6  C   UNL     1       0.119  -0.940   2.182  0.00  0.00    +0.108 C 
ATOM      7  C   UNL     1      -0.189   0.523   2.514  0.00  0.00    +0.022 C 
ATOM      8  C   UNL     1      -1.478  -2.796   2.568  0.00  0.00    +0.221 A 
ATOM      9  N   UNL     1      -0.647  -3.278   3.479  0.00  0.00    -0.219 NA
ATOM     10  C   UNL     1      -0.934  -4.388   4.148  0.00  0.00    +0.056 A 
ATOM     11  C   UNL     1      -2.116  -5.042   3.887  0.00  0.00    +0.050 A 
ATOM     12  C   UNL     1      -2.973  -4.513   2.919  0.00  0.00    +0.230 A 
ATOM     13  N   UNL     1      -2.626  -3.396   2.291  0.00  0.00    -0.179 NA
ATOM     14  C   UNL     1      -2.513  -6.298   4.612  0.00  0.00    +0.127 C 
ATOM     15  N   UNL     1      -1.345  -6.903   5.261  0.00  0.00    -0.293 NA
ATOM     16  C   UNL     1      -0.648  -5.908   6.092  0.00  0.00    +0.091 C 
ATOM     17  C   UNL     1       0.044  -4.902   5.171  0.00  0.00    +0.071 C 
ENDROOT
BRANCH  12  18
ATOM     18  O   UNL     1      -4.145  -5.128   2.629  0.00  0.00    -0.434 OA
BRANCH  18  19
ATOM     19  C   UNL     1      -4.873  -4.655   1.582  0.00  0.00    +0.172 A 
ATOM     20  C   UNL     1      -4.260  -3.899   0.596  0.00  0.00    +0.050 A 
ATOM     21  C   UNL     1      -5.001  -3.419  -0.468  0.00  0.00    +0.004 A 
ATOM     22  C   UNL     1      -6.354  -3.691  -0.550  0.00  0.00    +0.004 A 
ATOM     23  C   UNL     1      -6.972  -4.444   0.430  0.00  0.00    +0.049 A 
ATOM     24  C   UNL     1      -6.234  -4.934   1.496  0.00  0.00    +0.162 A 
BRANCH  24  25
ATOM     25  O   UNL     1      -6.838  -5.679   2.459  0.00  0.00    -0.491 OA
ATOM     26  C   UNL     1      -8.238  -5.925   2.305  0.00  0.00    +0.277 C 
ENDBRANCH  24  25
ENDBRANCH  18  19
ENDBRANCH  12  18
BRANCH  15  27
ATOM     27  C   UNL     1      -1.734  -8.074   6.059  0.00  0.00    +0.123 C 
BRANCH  27  28
ATOM     28  C   UNL     1      -2.238  -9.160   5.143  0.00  0.00    +0.012 A 
ATOM     29  C   UNL     1      -3.598  -9.349   4.978  0.00  0.00    +0.009 A 
ATOM     30  C   UNL     1      -4.063 -10.344   4.139  0.00  0.00    +0.004 A 
ATOM     31  C   UNL     1      -3.171 -11.155   3.462  0.00  0.00    +0.049 A 
ATOM     32  C   UNL     1      -1.808 -10.971   3.623  0.00  0.00    +0.162 A 
ATOM     33  C   UNL     1      -1.339  -9.965   4.463  0.00  0.00    +0.163 A 
BRANCH  33  34
ATOM     34  O   UNL     1      -0.001  -9.776   4.620  0.00  0.00    -0.503 OA
ATOM     35  H   UNL     1       0.387 -10.291   5.340  0.00  0.00    +0.292 HD
ENDBRANCH  33  34
BRANCH  32  36
ATOM     36  O   UNL     1      -0.929 -11.768   2.957  0.00  0.00    -0.491 OA
ATOM     37  C   UNL     1      -1.482 -12.775   2.108  0.00  0.00    +0.277 C 
ENDBRANCH  32  36
ENDBRANCH  27  28
ENDBRANCH  15  27
TORSDOF 7
