REMARK  Name = ZINC03540870
REMARK  14 active torsions:
REMARK  status: ('A' for Active; 'I' for Inactive)
REMARK    1  A    between atoms: C_1  and  C_2
REMARK    2  A    between atoms: C_2  and  N_3
REMARK    3  A    between atoms: N_3  and  C_4
REMARK    4  A    between atoms: N_3  and  S_6
REMARK    5  A    between atoms: C_4  and  C_5
REMARK    6  A    between atoms: S_6  and  C_9
REMARK    7  A    between atoms: C_12  and  N_15
REMARK    8  A    between atoms: C_16  and  C_18
REMARK    9  A    between atoms: C_18  and  N_58
REMARK   10  A    between atoms: C_19  and  N_58
REMARK   11  A    between atoms: C_20  and  C_21
REMARK   12  A    between atoms: C_20  and  N_58
REMARK   13  A    between atoms: C_26  and  O_27
REMARK   14  A    between atoms: O_27  and  C_28
REMARK                            x       y       z     vdW  Elec       q    Type
REMARK                         _______ _______ _______ _____ _____    ______ ____
ROOT
ATOM      1  N   UNL     1       6.202   4.769  -3.005  0.00  0.00    -0.287 N 
ATOM      2  C   UNL     1       4.896   4.498  -2.811  0.00  0.00    +0.201 C 
ATOM      3  O   UNL     1       4.213   4.113  -3.736  0.00  0.00    -0.278 OA
ATOM      4  H   UNL     1       6.731   5.149  -2.286  0.00  0.00    +0.155 HD
ENDROOT
BRANCH   1   8
ATOM      5  C   UNL     1       7.968   3.974  -6.694  0.00  0.00    +0.106 A 
ATOM      6  C   UNL     1       8.397   5.052  -5.941  0.00  0.00    +0.030 A 
ATOM      7  C   UNL     1       7.814   5.318  -4.718  0.00  0.00    +0.025 A 
ATOM      8  C   UNL     1       6.796   4.502  -4.244  0.00  0.00    +0.033 A 
ATOM      9  C   UNL     1       6.371   3.417  -4.999  0.00  0.00    +0.025 A 
ATOM     10  C   UNL     1       6.955   3.159  -6.224  0.00  0.00    +0.030 A 
BRANCH   5  11
ATOM     11  S   UNL     1       8.715   3.638  -8.254  0.00  0.00    +0.061 S 
ATOM     12  O   UNL     1       7.765   2.898  -9.008  0.00  0.00    -0.153 OA
ATOM     13  O   UNL     1       9.264   4.866  -8.714  0.00  0.00    -0.153 OA
BRANCH  11  14
ATOM     14  N   UNL     1       9.994   2.623  -7.976  0.00  0.00    -0.177 NA
BRANCH  14  16
ATOM     15  C   UNL     1      10.143   0.635  -9.393  0.00  0.00    +0.022 C 
ATOM     16  C   UNL     1       9.796   1.171  -8.003  0.00  0.00    +0.106 C 
ENDBRANCH  14  16
BRANCH  14  17
ATOM     17  C   UNL     1      11.323   3.176  -7.703  0.00  0.00    +0.106 C 
ATOM     18  C   UNL     1      11.537   3.266  -6.191  0.00  0.00    +0.022 C 
ENDBRANCH  14  17
ENDBRANCH  11  14
ENDBRANCH   5  11
ENDBRANCH   1   8
BRANCH   2  19
ATOM     19  C   UNL     1       4.286   4.673  -1.444  0.00  0.00    +0.019 C 
BRANCH  19  21
ATOM     20  C   UNL     1       2.112   5.258  -2.336  0.00  0.00    -0.095 C 
ATOM     21  N   UNL     1       2.860   4.290  -1.507  0.00  0.00    +0.386 N 
ATOM     22  H   UNL     1       2.783   3.358  -1.931  0.00  0.00    -0.081 HD
BRANCH  21  23
ATOM     23  C   UNL     1       2.288   4.245  -0.144  0.00  0.00    -0.039 C 
BRANCH  23  24
ATOM     24  C   UNL     1       0.909   3.643  -0.215  0.00  0.00    -0.021 A 
ATOM     25  C   UNL     1      -0.205   4.460  -0.182  0.00  0.00    +0.020 A 
ATOM     26  C   UNL     1      -1.471   3.908  -0.248  0.00  0.00    +0.018 A 
ATOM     27  C   UNL     1      -1.626   2.537  -0.352  0.00  0.00    +0.019 A 
ATOM     28  C   UNL     1      -0.515   1.716  -0.380  0.00  0.00    +0.047 A 
ATOM     29  C   UNL     1       0.756   2.268  -0.315  0.00  0.00    +0.121 A 
ATOM     30 BR   UNL     1      -2.993   5.029  -0.203  0.00  0.00    -0.050 Br
BRANCH  29  31
ATOM     31  O   UNL     1       1.850   1.462  -0.348  0.00  0.00    -0.495 OA
ATOM     32  C   UNL     1       1.617   0.056  -0.452  0.00  0.00    +0.277 C 
ENDBRANCH  29  31
ENDBRANCH  23  24
ENDBRANCH  21  23
ENDBRANCH  19  21
ENDBRANCH   2  19
TORSDOF 10
