REMARK  Name = ZINC35991295
REMARK  13 active torsions:
REMARK  status: ('A' for Active; 'I' for Inactive)
REMARK    1  A    between atoms: C_1  and  C_2
REMARK    2  A    between atoms: C_2  and  O_3
REMARK    3  A    between atoms: O_3  and  C_4
REMARK    4  A    between atoms: C_4  and  C_6
REMARK    5  A    between atoms: C_7  and  C_23
REMARK    6  A    between atoms: N_8  and  C_22
REMARK    7  A    between atoms: C_12  and  C_14
REMARK    8  A    between atoms: C_16  and  C_21
REMARK    9  A    between atoms: C_19  and  C_20
REMARK   10  A    between atoms: C_23  and  N_24
REMARK   11  A    between atoms: N_24  and  C_25
REMARK   12  A    between atoms: N_24  and  C_26
REMARK   13  A    between atoms: C_26  and  C_27
REMARK                            x       y       z     vdW  Elec       q    Type
REMARK                         _______ _______ _______ _____ _____    ______ ____
ROOT
ATOM      1  C   UNL     1      -2.878  -2.128   0.108  0.00  0.00    +0.076 C 
ATOM      2  C   UNL     1      -3.039  -3.463  -0.014  0.00  0.00    +0.010 C 
ATOM      3  N   UNL     1      -4.283  -4.016  -0.123  0.00  0.00    -0.264 N 
ATOM      4  C   UNL     1      -5.416  -3.302  -0.121  0.00  0.00    +0.307 C 
ATOM      5  O   UNL     1      -6.478  -3.884  -0.224  0.00  0.00    -0.252 OA
ATOM      6  N   UNL     1      -5.417  -1.959  -0.007  0.00  0.00    -0.288 N 
ATOM      7  C   UNL     1      -4.124  -1.266   0.124  0.00  0.00    +0.144 C 
ATOM      8  C   UNL     1      -4.385  -5.472  -0.252  0.00  0.00    +0.139 C 
ATOM      9  H   UNL     1      -6.249  -1.461  -0.007  0.00  0.00    +0.151 HD
ENDROOT
BRANCH   7  10
ATOM     10  C   UNL     1      -4.135  -0.490   1.416  0.00  0.00    -0.019 A 
ATOM     11  C   UNL     1      -4.777  -1.007   2.526  0.00  0.00    +0.009 A 
ATOM     12  C   UNL     1      -4.787  -0.295   3.711  0.00  0.00    -0.050 A 
ATOM     13  C   UNL     1      -4.156   0.932   3.786  0.00  0.00    +0.003 A 
ATOM     14  C   UNL     1      -3.514   1.448   2.676  0.00  0.00    +0.004 A 
ATOM     15  C   UNL     1      -3.500   0.735   1.492  0.00  0.00    -0.045 A 
ATOM     16  C   UNL     1      -2.795   1.295   0.283  0.00  0.00    +0.044 C 
ATOM     17  C   UNL     1      -5.487  -0.858   4.922  0.00  0.00    +0.044 C 
ENDBRANCH   7  10
BRANCH   1  18
ATOM     18  C   UNL     1      -1.590  -1.555   0.222  0.00  0.00    +0.339 C 
ATOM     19  O   UNL     1      -1.179  -1.193   1.309  0.00  0.00    -0.245 OA
BRANCH  18  20
ATOM     20  O   UNL     1      -0.817  -1.408  -0.874  0.00  0.00    -0.462 OA
BRANCH  20  22
ATOM     21  C   UNL     1       1.192  -0.715  -2.025  0.00  0.00    +0.048 C 
ATOM     22  C   UNL     1       0.513  -0.928  -0.670  0.00  0.00    +0.229 C 
ENDBRANCH  20  22
ENDBRANCH  18  20
ENDBRANCH   1  18
BRANCH   2  23
ATOM     23  C   UNL     1      -1.827  -4.358  -0.029  0.00  0.00    -0.026 C 
BRANCH  23  24
ATOM     24  N   UNL     1      -1.818  -5.191   1.181  0.00  0.00    +0.384 N 
ATOM     25  C   UNL     1      -1.654  -4.335   2.364  0.00  0.00    -0.095 C 
ATOM     26  H   UNL     1      -2.689  -5.695   1.250  0.00  0.00    -0.081 HD
BRANCH  24  27
ATOM     27  C   UNL     1      -0.704  -6.146   1.110  0.00  0.00    -0.043 C 
BRANCH  27  28
ATOM     28  C   UNL     1      -0.767  -7.080   2.291  0.00  0.00    -0.064 A 
ATOM     29  C   UNL     1      -0.116  -6.754   3.466  0.00  0.00    +0.002 A 
ATOM     30  C   UNL     1      -0.174  -7.611   4.549  0.00  0.00    +0.000 A 
ATOM     31  C   UNL     1      -0.883  -8.794   4.458  0.00  0.00    +0.000 A 
ATOM     32  C   UNL     1      -1.535  -9.120   3.283  0.00  0.00    +0.000 A 
ATOM     33  C   UNL     1      -1.481  -8.261   2.201  0.00  0.00    +0.002 A 
ENDBRANCH  27  28
ENDBRANCH  24  27
ENDBRANCH  23  24
ENDBRANCH   2  23
TORSDOF 8
