REMARK  Name = ZINC39464904
REMARK  7 active torsions:
REMARK  status: ('A' for Active; 'I' for Inactive)
REMARK    1  A    between atoms: C_1  and  S_2
REMARK    2  A    between atoms: S_2  and  P_3
REMARK    3  A    between atoms: C_11  and  C_29
REMARK    4  A    between atoms: C_12  and  S_19
REMARK    5  A    between atoms: S_19  and  O_22
REMARK    6  A    between atoms: O_22  and  C_23
REMARK    7  A    between atoms: C_34  and  O_35
REMARK                            x       y       z     vdW  Elec       q    Type
REMARK                         _______ _______ _______ _____ _____    ______ ____
ROOT
ATOM      1  P   UNL     1       1.069   0.099  -1.242  0.00  0.00    +0.341 P 
ATOM      2  O   UNL     1       0.280   0.681  -2.351  0.00  0.00    -0.259 OA
ATOM      3  N   UNL     1       1.135  -1.547  -1.386  0.00  0.00    -0.170 NA
ATOM      4  N   UNL     1       2.168  -2.182  -0.732  0.00  0.00    -0.225 NA
ATOM      5  C   UNL     1       2.095  -3.630  -0.975  0.00  0.00    +0.108 C 
ATOM      6  C   UNL     1       3.024  -4.341   0.010  0.00  0.00    +0.052 C 
ATOM      7  C   UNL     1       4.397  -3.721  -0.051  0.00  0.00    -0.041 A 
ATOM      8  C   UNL     1       5.468  -4.441   0.450  0.00  0.00    +0.014 A 
ATOM      9  C   UNL     1       6.752  -3.905   0.412  0.00  0.00    +0.014 A 
ATOM     10  C   UNL     1       6.950  -2.637  -0.132  0.00  0.00    +0.136 A 
ATOM     11  C   UNL     1       5.877  -1.929  -0.627  0.00  0.00    +0.036 A 
ATOM     12  C   UNL     1       4.597  -2.467  -0.589  0.00  0.00    -0.022 A 
ATOM     13  C   UNL     1       3.464  -1.646  -1.147  0.00  0.00    +0.129 C 
ATOM     14  C   UNL     1       3.630  -0.193  -0.692  0.00  0.00    +0.195 C 
ATOM     15  O   UNL     1       2.612   0.608  -1.325  0.00  0.00    -0.307 OA
ATOM     16  H   UNL     1       0.480  -2.040  -1.904  0.00  0.00    +0.152 HD
ENDROOT
BRANCH   9  17
ATOM     17  C   UNL     1       7.899  -4.676   0.949  0.00  0.00    +0.025 A 
ATOM     18  C   UNL     1       8.289  -5.866   0.339  0.00  0.00    +0.012 A 
ATOM     19  C   UNL     1       9.358  -6.580   0.841  0.00  0.00    +0.001 A 
ATOM     20  C   UNL     1      10.045  -6.117   1.950  0.00  0.00    +0.004 A 
ATOM     21  C   UNL     1       9.666  -4.939   2.563  0.00  0.00    +0.046 A 
ATOM     22  C   UNL     1       8.598  -4.209   2.066  0.00  0.00    +0.125 A 
BRANCH  22  23
ATOM     23  O   UNL     1       8.229  -3.047   2.665  0.00  0.00    -0.506 OA
ATOM     24  H   UNL     1       7.574  -3.158   3.368  0.00  0.00    +0.292 HD
ENDBRANCH  22  23
ENDBRANCH   9  17
BRANCH  10  25
ATOM     25  S   UNL     1       8.569  -1.943  -0.187  0.00  0.00    +0.152 S 
ATOM     26  O   UNL     1       8.696  -1.119   0.964  0.00  0.00    -0.131 OA
ATOM     27  O   UNL     1       9.461  -3.014  -0.460  0.00  0.00    -0.131 OA
BRANCH  25  28
ATOM     28  O   UNL     1       8.620  -1.016  -1.393  0.00  0.00    -0.342 OA
BRANCH  28  29
ATOM     29  C   UNL     1       8.722  -1.663  -2.584  0.00  0.00    +0.157 A 
ATOM     30  C   UNL     1       9.965  -2.059  -3.055  0.00  0.00    +0.048 A 
ATOM     31  C   UNL     1      10.066  -2.718  -4.266  0.00  0.00    +0.004 A 
ATOM     32  C   UNL     1       8.928  -2.982  -5.007  0.00  0.00    +0.000 A 
ATOM     33  C   UNL     1       7.689  -2.588  -4.539  0.00  0.00    +0.004 A 
ATOM     34  C   UNL     1       7.582  -1.935  -3.327  0.00  0.00    +0.048 A 
ENDBRANCH  28  29
ENDBRANCH  25  28
ENDBRANCH  10  25
BRANCH   1  36
ATOM     35  C   UNL     1       0.335   2.448   0.652  0.00  0.00    +0.096 C 
ATOM     36  S   UNL     1       0.219   0.638   0.623  0.00  0.00    -0.056 S 
ENDBRANCH   1  36
TORSDOF 6
