REMARK  Name = ZINC66200250
REMARK  13 active torsions:
REMARK  status: ('A' for Active; 'I' for Inactive)
REMARK    1  A    between atoms: C_1  and  C_2
REMARK    2  A    between atoms: C_5  and  C_31
REMARK    3  A    between atoms: C_6  and  O_8
REMARK    4  A    between atoms: O_8  and  C_9
REMARK    5  A    between atoms: C_9  and  C_10
REMARK    6  A    between atoms: N_12  and  C_13
REMARK    7  A    between atoms: C_16  and  S_19
REMARK    8  A    between atoms: S_19  and  N_22
REMARK    9  A    between atoms: N_22  and  C_23
REMARK   10  A    between atoms: C_24  and  O_29
REMARK   11  A    between atoms: O_29  and  C_30
REMARK   12  A    between atoms: C_31  and  C_32
REMARK   13  A    between atoms: C_31  and  C_33
REMARK                            x       y       z     vdW  Elec       q    Type
REMARK                         _______ _______ _______ _____ _____    ______ ____
ROOT
ATOM      1  C   UNL     1      -0.027  -3.282   7.103  0.00  0.00    +0.034 A 
ATOM      2  C   UNL     1      -0.729  -2.889   8.235  0.00  0.00    +0.025 A 
ATOM      3  C   UNL     1      -0.815  -3.737   9.321  0.00  0.00    +0.031 A 
ATOM      4  C   UNL     1      -0.204  -4.977   9.283  0.00  0.00    +0.111 A 
ATOM      5  C   UNL     1       0.496  -5.372   8.157  0.00  0.00    +0.031 A 
ATOM      6  C   UNL     1       0.580  -4.530   7.065  0.00  0.00    +0.025 A 
ENDROOT
BRANCH   1   9
ATOM      7  C   UNL     1       0.061  -2.932   4.751  0.00  0.00    +0.255 C 
ATOM      8  O   UNL     1       0.068  -4.133   4.584  0.00  0.00    -0.272 OA
ATOM      9  N   UNL     1       0.062  -2.425   6.000  0.00  0.00    -0.283 N 
ATOM     10  H   UNL     1       0.124  -1.467   6.135  0.00  0.00    +0.155 HD
BRANCH   7  11
ATOM     11  C   UNL     1       0.052  -2.005   3.562  0.00  0.00    +0.324 C 
BRANCH  11  12
ATOM     12  O   UNL     1       0.053  -2.775   2.358  0.00  0.00    -0.482 OA
BRANCH  12  18
ATOM     13  C   UNL     1       0.019   1.504   0.011  0.00  0.00    +0.044 C 
ATOM     14  C   UNL     1       0.029  -0.003   0.002  0.00  0.00    -0.047 A 
ATOM     15  C   UNL     1       0.029  -0.687  -1.200  0.00  0.00    +0.004 A 
ATOM     16  C   UNL     1       0.038  -2.070  -1.211  0.00  0.00    +0.008 A 
ATOM     17  C   UNL     1       0.046  -2.771  -0.020  0.00  0.00    -0.003 A 
ATOM     18  C   UNL     1       0.045  -2.087   1.186  0.00  0.00    +0.125 A 
ATOM     19  C   UNL     1       0.043  -0.700   1.195  0.00  0.00    +0.049 A 
BRANCH  17  20
ATOM     20  C   UNL     1       0.054  -4.278  -0.033  0.00  0.00    +0.016 C 
ATOM     21  C   UNL     1      -1.194  -4.789  -0.755  0.00  0.00    +0.012 C 
ATOM     22  C   UNL     1       1.304  -4.775  -0.763  0.00  0.00    +0.012 C 
ENDBRANCH  17  20
ENDBRANCH  12  18
ENDBRANCH  11  12
ENDBRANCH   7  11
ENDBRANCH   1   9
BRANCH   4  23
ATOM     23  S   UNL     1      -0.316  -6.056  10.671  0.00  0.00    +0.093 S 
ATOM     24  O   UNL     1       0.799  -6.934  10.594  0.00  0.00    -0.148 OA
ATOM     25  O   UNL     1      -0.563  -5.236  11.804  0.00  0.00    -0.148 OA
BRANCH  23  26
ATOM     26  N   UNL     1      -1.668  -6.989  10.458  0.00  0.00    -0.072 NA
BRANCH  26  27
ATOM     27  C   UNL     1      -2.012  -7.943  11.411  0.00  0.00    +0.225 A 
ATOM     28  C   UNL     1      -3.151  -8.737  11.231  0.00  0.00    +0.259 A 
ATOM     29  N   UNL     1      -3.471  -9.641  12.141  0.00  0.00    -0.217 NA
ATOM     30  C   UNL     1      -2.716  -9.794  13.217  0.00  0.00    +0.134 A 
ATOM     31  C   UNL     1      -1.593  -9.013  13.396  0.00  0.00    +0.133 A 
ATOM     32  N   UNL     1      -1.260  -8.108  12.488  0.00  0.00    -0.231 NA
BRANCH  28  33
ATOM     33  O   UNL     1      -3.925  -8.578  10.127  0.00  0.00    -0.477 OA
ATOM     34  C   UNL     1      -5.072  -9.422  10.011  0.00  0.00    +0.279 C 
ENDBRANCH  28  33
ENDBRANCH  26  27
ENDBRANCH  23  26
ENDBRANCH   4  23
TORSDOF 9
