REMARK  Name = ZINC08951265
REMARK  10 active torsions:
REMARK  status: ('A' for Active; 'I' for Inactive)
REMARK    1  A    between atoms: C_1  and  C_2
REMARK    2  A    between atoms: C_2  and  C_33
REMARK    3  A    between atoms: C_3  and  N_20
REMARK    4  A    between atoms: N_5  and  N_9
REMARK    5  A    between atoms: C_10  and  C_11
REMARK    6  A    between atoms: C_14  and  N_17
REMARK    7  A    between atoms: N_17  and  C_18
REMARK    8  A    between atoms: N_17  and  C_19
REMARK    9  A    between atoms: N_20  and  O_32
REMARK   10  A    between atoms: N_23  and  C_24
REMARK                            x       y       z     vdW  Elec       q    Type
REMARK                         _______ _______ _______ _____ _____    ______ ____
ROOT
ATOM      1  C   UNL     1       2.399   1.056   0.445  0.00  0.00    +0.026 C 
ATOM      2  C   UNL     1       1.386   2.182   0.228  0.00  0.00    +0.056 C 
ATOM      3  C   UNL     1      -0.045   1.624   0.090  0.00  0.00    +0.232 C 
ATOM      4  N   UNL     1      -0.646   1.904  -1.193  0.00  0.00    -0.187 N 
ATOM      5  C   UNL     1       0.025   2.585  -2.133  0.00  0.00    +0.132 C 
ATOM      6  S   UNL     1      -0.526   3.003  -3.699  0.00  0.00    -0.026 S 
ATOM      7  S   UNL     1       1.610   2.966  -1.414  0.00  0.00    -0.091 S 
ATOM      8  C   UNL     1       1.469   3.218   1.351  0.00  0.00    +0.026 C 
ENDROOT
BRANCH   3   9
ATOM      9  N   UNL     1      -0.005   0.173   0.285  0.00  0.00    -0.143 N 
ATOM     10  C   UNL     1      -0.888  -0.420   1.113  0.00  0.00    +0.331 C 
ATOM     11  O   UNL     1      -1.776   0.234   1.625  0.00  0.00    -0.250 OA
ATOM     12  N   UNL     1      -0.787  -1.739   1.373  0.00  0.00    -0.268 N 
ATOM     13  H   UNL     1      -0.124  -2.275   0.910  0.00  0.00    +0.156 HD
BRANCH  12  14
ATOM     14  C   UNL     1      -1.639  -2.335   2.311  0.00  0.00    +0.036 A 
ATOM     15  C   UNL     1      -1.956  -3.683   2.204  0.00  0.00    +0.025 A 
ATOM     16  C   UNL     1      -2.796  -4.269   3.131  0.00  0.00    +0.023 A 
ATOM     17  C   UNL     1      -3.322  -3.515   4.165  0.00  0.00    +0.059 A 
ATOM     18  C   UNL     1      -3.007  -2.171   4.274  0.00  0.00    +0.061 A 
ATOM     19  C   UNL     1      -2.163  -1.581   3.352  0.00  0.00    +0.044 A 
ATOM     20 CL   UNL     1      -3.669  -1.227   5.572  0.00  0.00    -0.082 Cl
ATOM     21 CL   UNL     1      -4.378  -4.255   5.327  0.00  0.00    -0.082 Cl
ENDBRANCH  12  14
BRANCH   9  22
ATOM     22  O   UNL     1       0.961  -0.606  -0.396  0.00  0.00    -0.289 OA
ATOM     23  H   UNL     1       0.860  -1.559  -0.266  0.00  0.00    +0.242 HD
ENDBRANCH   9  22
ENDBRANCH   3   9
BRANCH   4  24
ATOM     24  N   UNL     1      -1.946   1.456  -1.461  0.00  0.00    -0.184 NA
ATOM     25  C   UNL     1      -2.143   0.524  -2.343  0.00  0.00    +0.138 C 
BRANCH  25  26
ATOM     26  C   UNL     1      -3.517   0.131  -2.704  0.00  0.00    -0.005 A 
ATOM     27  C   UNL     1      -4.608   0.755  -2.094  0.00  0.00    +0.011 A 
ATOM     28  C   UNL     1      -5.891   0.388  -2.438  0.00  0.00    +0.024 A 
ATOM     29  C   UNL     1      -6.100  -0.610  -3.385  0.00  0.00    +0.029 A 
ATOM     30  C   UNL     1      -5.016  -1.238  -3.990  0.00  0.00    +0.024 A 
ATOM     31  C   UNL     1      -3.731  -0.872  -3.654  0.00  0.00    +0.011 A 
BRANCH  29  32
ATOM     32  N   UNL     1      -7.400  -0.983  -3.727  0.00  0.00    -0.336 N 
ATOM     33  C   UNL     1      -7.624  -2.114  -4.631  0.00  0.00    +0.129 C 
ATOM     34  C   UNL     1      -8.541  -0.243  -3.182  0.00  0.00    +0.129 C 
ENDBRANCH  29  32
ENDBRANCH  25  26
ENDBRANCH   4  24
TORSDOF 6
