REMARK  Name = ZINC02294055
REMARK  8 active torsions:
REMARK  status: ('A' for Active; 'I' for Inactive)
REMARK    1  A    between atoms: C_4  and  C_7
REMARK    2  A    between atoms: N_18  and  C_26
REMARK    3  A    between atoms: C_19  and  C_20
REMARK    4  A    between atoms: C_26  and  C_27
REMARK    5  A    between atoms: C_27  and  C_29
REMARK    6  A    between atoms: C_27  and  O_37
REMARK    7  A    between atoms: C_29  and  N_30
REMARK    8  A    between atoms: N_30  and  C_31
REMARK                            x       y       z     vdW  Elec       q    Type
REMARK                         _______ _______ _______ _____ _____    ______ ____
ROOT
ATOM      1  C   UNL     1      -3.249  -0.662   0.187  0.00  0.00    +0.015 A 
ATOM      2  C   UNL     1      -2.033   0.144   0.365  0.00  0.00    +0.009 A 
ATOM      3  C   UNL     1      -1.815   1.506   0.641  0.00  0.00    +0.011 A 
ATOM      4  C   UNL     1      -0.558   1.997   0.762  0.00  0.00    +0.009 A 
ATOM      5  C   UNL     1       0.556   1.147   0.600  0.00  0.00    -0.016 A 
ATOM      6  C   UNL     1       1.864   1.643   0.718  0.00  0.00    +0.008 A 
ATOM      7  C   UNL     1       2.924   0.801   0.562  0.00  0.00    +0.001 A 
ATOM      8  C   UNL     1       2.730  -0.550   0.289  0.00  0.00    +0.001 A 
ATOM      9  C   UNL     1       1.474  -1.066   0.168  0.00  0.00    +0.010 A 
ATOM     10  C   UNL     1       0.360  -0.227   0.322  0.00  0.00    +0.006 A 
ATOM     11  C   UNL     1      -0.955  -0.731   0.203  0.00  0.00    +0.058 A 
ATOM     12  N   UNL     1      -1.456  -1.983  -0.055  0.00  0.00    -0.336 N 
ATOM     13  C   UNL     1      -2.827  -1.952  -0.067  0.00  0.00    +0.058 A 
ENDROOT
BRANCH   1  17
ATOM     14  C   UNL     1      -7.266   0.703   0.410  0.00  0.00    +0.000 A 
ATOM     15  C   UNL     1      -6.446   1.141  -0.614  0.00  0.00    +0.001 A 
ATOM     16  C   UNL     1      -5.140   0.702  -0.692  0.00  0.00    +0.008 A 
ATOM     17  C   UNL     1      -4.648  -0.186   0.265  0.00  0.00    -0.015 A 
ATOM     18  C   UNL     1      -5.482  -0.628   1.292  0.00  0.00    +0.008 A 
ATOM     19  C   UNL     1      -6.784  -0.177   1.363  0.00  0.00    +0.001 A 
ENDBRANCH   1  17
BRANCH  13  20
ATOM     20  C   UNL     1      -3.709  -3.111  -0.312  0.00  0.00    -0.001 A 
ATOM     21  C   UNL     1      -4.649  -3.071  -1.344  0.00  0.00    +0.010 A 
ATOM     22  C   UNL     1      -5.466  -4.159  -1.571  0.00  0.00    +0.001 A 
ATOM     23  C   UNL     1      -5.364  -5.284  -0.771  0.00  0.00    +0.000 A 
ATOM     24  C   UNL     1      -4.438  -5.328   0.257  0.00  0.00    +0.001 A 
ATOM     25  C   UNL     1      -3.611  -4.249   0.491  0.00  0.00    +0.010 A 
ENDBRANCH  13  20
BRANCH  12  26
ATOM     26  C   UNL     1      -0.642  -3.179  -0.285  0.00  0.00    +0.151 C 
BRANCH  26  27
ATOM     27  C   UNL     1      -0.350  -3.862   1.053  0.00  0.00    +0.117 C 
BRANCH  27  28
ATOM     28  O   UNL     1       0.436  -2.993   1.870  0.00  0.00    -0.392 OA
ATOM     29  H   UNL     1       0.746  -3.314   2.875  0.00  0.00    +0.210 HD
ENDBRANCH  27  28
BRANCH  27  30
ATOM     30  C   UNL     1       0.418  -5.162   0.805  0.00  0.00    -0.049 C 
BRANCH  30  31
ATOM     31  N   UNL     1       0.594  -5.877   2.076  0.00  0.00    +0.383 N 
ATOM     32  H   UNL     1       1.159  -5.245   2.777  0.00  0.00    -0.085 HD
ATOM     33  H   UNL     1      -0.392  -6.110   2.505  0.00  0.00    -0.085 HD
BRANCH  31  34
ATOM     34  C   UNL     1       1.329  -7.133   1.876  0.00  0.00    -0.072 C 
ATOM     35  C   UNL     1       0.352  -8.237   1.466  0.00  0.00    -0.016 C 
ATOM     36  C   UNL     1       1.118  -9.545   1.258  0.00  0.00    -0.002 C 
ATOM     37  C   UNL     1       1.816  -9.940   2.561  0.00  0.00    -0.000 C 
ATOM     38  C   UNL     1       2.793  -8.836   2.971  0.00  0.00    -0.002 C 
ATOM     39  C   UNL     1       2.027  -7.528   3.179  0.00  0.00    -0.016 C 
ENDBRANCH  31  34
ENDBRANCH  30  31
ENDBRANCH  27  30
ENDBRANCH  26  27
ENDBRANCH  12  26
TORSDOF 8
