REMARK  Name = ZINC09702632
REMARK  7 active torsions:
REMARK  status: ('A' for Active; 'I' for Inactive)
REMARK    1  A    between atoms: C_1  and  C_2
REMARK    2  A    between atoms: C_2  and  C_4
REMARK    3  A    between atoms: C_2  and  O_16
REMARK    4  A    between atoms: N_6  and  C_7
REMARK    5  A    between atoms: O_16  and  C_17
REMARK    6  A    between atoms: C_17  and  C_19
REMARK    7  A    between atoms: N_27  and  C_30
REMARK                            x       y       z     vdW  Elec       q    Type
REMARK                         _______ _______ _______ _____ _____    ______ ____
ROOT
ATOM      1  C   UNL     1       2.485   1.088   0.017  0.00  0.00    +0.340 C 
ATOM      2  O   UNL     1       2.502  -0.126   0.016  0.00  0.00    -0.245 OA
ENDROOT
BRANCH   1   3
ATOM      3  C   UNL     1       1.194   1.810   0.040  0.00  0.00    +0.060 A 
ATOM      4  C   UNL     1       1.177   3.205   0.042  0.00  0.00    +0.016 A 
ATOM      5  C   UNL     1      -0.027   3.888   0.062  0.00  0.00    +0.014 A 
ATOM      6  C   UNL     1      -1.221   3.184   0.081  0.00  0.00    +0.049 A 
ATOM      7  C   UNL     1      -1.210   1.774   0.073  0.00  0.00    +0.050 A 
ATOM      8  C   UNL     1      -0.006   1.092   0.059  0.00  0.00    +0.028 A 
ATOM      9  C   UNL     1      -2.629   1.358   0.089  0.00  0.00    +0.254 C 
ATOM     10  O   UNL     1      -3.031   0.213   0.093  0.00  0.00    -0.270 OA
ATOM     11  N   UNL     1      -3.399   2.461   0.099  0.00  0.00    -0.231 N 
ATOM     12  C   UNL     1      -2.648   3.577   0.105  0.00  0.00    +0.254 C 
ATOM     13  O   UNL     1      -3.071   4.715   0.113  0.00  0.00    -0.270 OA
BRANCH  11  14
ATOM     14  C   UNL     1      -4.864   2.448   0.117  0.00  0.00    +0.085 C 
ATOM     15  C   UNL     1      -5.396   3.165  -1.126  0.00  0.00    +0.023 C 
ATOM     16  C   UNL     1      -6.925   3.151  -1.108  0.00  0.00    +0.002 C 
ATOM     17  C   UNL     1      -7.427   3.867   0.148  0.00  0.00    +0.000 C 
ATOM     18  C   UNL     1      -6.896   3.149   1.391  0.00  0.00    +0.002 C 
ATOM     19  C   UNL     1      -5.366   3.163   1.373  0.00  0.00    +0.023 C 
ENDBRANCH  11  14
ENDBRANCH   1   3
BRANCH   1  20
ATOM     20  O   UNL     1       3.642   1.778  -0.001  0.00  0.00    -0.449 OA
BRANCH  20  22
ATOM     21  C   UNL     1       5.326   0.731   1.413  0.00  0.00    +0.062 C 
ATOM     22  C   UNL     1       4.870   1.004  -0.022  0.00  0.00    +0.259 C 
BRANCH  22  23
ATOM     23  C   UNL     1       5.939   1.778  -0.750  0.00  0.00    +0.258 C 
ATOM     24  O   UNL     1       5.718   2.910  -1.126  0.00  0.00    -0.271 OA
ATOM     25  N   UNL     1       7.141   1.213  -0.982  0.00  0.00    -0.280 N 
ATOM     26  H   UNL     1       7.340   0.334  -0.626  0.00  0.00    +0.155 HD
BRANCH  25  27
ATOM     27  C   UNL     1       8.102   1.897  -1.739  0.00  0.00    +0.072 A 
ATOM     28  C   UNL     1       8.197   3.279  -1.656  0.00  0.00    +0.029 A 
ATOM     29  C   UNL     1       9.146   3.952  -2.402  0.00  0.00    +0.043 A 
ATOM     30  C   UNL     1      10.002   3.251  -3.233  0.00  0.00    +0.161 A 
ATOM     31  C   UNL     1       9.910   1.870  -3.320  0.00  0.00    +0.195 A 
ATOM     32  C   UNL     1       8.964   1.191  -2.570  0.00  0.00    +0.182 A 
ATOM     33  F   UNL     1       8.877  -0.155  -2.648  0.00  0.00    -0.200 F 
ATOM     34  F   UNL     1      10.745   1.187  -4.132  0.00  0.00    -0.199 F 
ATOM     35  F   UNL     1      10.929   3.912  -3.960  0.00  0.00    -0.202 F 
ENDBRANCH  25  27
ENDBRANCH  22  23
ENDBRANCH  20  22
ENDBRANCH   1  20
TORSDOF 6
