REMARK  Name = ZINC56159748
REMARK  11 active torsions:
REMARK  status: ('A' for Active; 'I' for Inactive)
REMARK    1  A    between atoms: C_1  and  C_2
REMARK    2  A    between atoms: C_5  and  N_9
REMARK    3  A    between atoms: C_6  and  C_8
REMARK    4  A    between atoms: C_10  and  C_12
REMARK    5  A    between atoms: C_12  and  C_14
REMARK    6  A    between atoms: C_12  and  N_15
REMARK    7  A    between atoms: N_15  and  C_16
REMARK    8  A    between atoms: C_16  and  C_18
REMARK    9  A    between atoms: C_16  and  C_19
REMARK   10  A    between atoms: C_22  and  N_25
REMARK   11  A    between atoms: N_28  and  C_29
REMARK                            x       y       z     vdW  Elec       q    Type
REMARK                         _______ _______ _______ _____ _____    ______ ____
ROOT
ATOM      1  N   UNL     1      -0.281  -6.823  -2.572  0.00  0.00    +0.391 N 
ATOM      2  H   UNL     1      -1.058  -6.378  -3.036  0.00  0.00    -0.084 HD
ATOM      3  H   UNL     1       0.574  -6.603  -3.061  0.00  0.00    -0.084 HD
ENDROOT
BRANCH   1   4
ATOM      4  C   UNL     1      -0.192  -6.337  -1.188  0.00  0.00    +0.014 C 
ATOM      5  C   UNL     1       1.058  -6.916  -0.524  0.00  0.00    -0.004 C 
BRANCH   4   7
ATOM      6  N   UNL     1      -0.021  -4.162  -0.023  0.00  0.00    -0.287 N 
ATOM      7  C   UNL     1      -0.110  -4.832  -1.189  0.00  0.00    +0.203 C 
ATOM      8  O   UNL     1      -0.124  -4.225  -2.238  0.00  0.00    -0.277 OA
ATOM      9  H   UNL     1       0.057  -4.650   0.812  0.00  0.00    +0.155 HD
BRANCH   6  14
ATOM     10  C   UNL     1      -0.102   1.510   0.000  0.00  0.00    +0.044 C 
ATOM     11  C   UNL     1      -0.081   0.003  -0.006  0.00  0.00    -0.050 A 
ATOM     12  C   UNL     1       0.527  -0.674  -1.047  0.00  0.00    +0.005 A 
ATOM     13  C   UNL     1       0.549  -2.054  -1.056  0.00  0.00    +0.024 A 
ATOM     14  C   UNL     1      -0.041  -2.763  -0.017  0.00  0.00    +0.036 A 
ATOM     15  C   UNL     1      -0.650  -2.080   1.027  0.00  0.00    -0.029 A 
ATOM     16  C   UNL     1      -0.664  -0.699   1.032  0.00  0.00    +0.008 A 
ATOM     17  C   UNL     1      -1.291  -2.845   2.156  0.00  0.00    +0.045 C 
ENDBRANCH   6  14
ENDBRANCH   4   7
ENDBRANCH   1   4
BRANCH   1  18
ATOM     18  C   UNL     1      -0.481  -8.278  -2.568  0.00  0.00    -0.043 C 
ATOM     19  C   UNL     1      -1.836  -8.605  -1.937  0.00  0.00    -0.009 C 
BRANCH  18  20
ATOM     20  C   UNL     1      -0.449  -8.794  -3.984  0.00  0.00    -0.062 A 
ATOM     21  C   UNL     1      -1.051  -8.068  -4.996  0.00  0.00    +0.004 A 
ATOM     22  C   UNL     1      -1.024  -8.538  -6.294  0.00  0.00    +0.023 A 
ATOM     23  C   UNL     1      -0.391  -9.740  -6.583  0.00  0.00    +0.035 A 
ATOM     24  C   UNL     1       0.213 -10.466  -5.565  0.00  0.00    +0.023 A 
ATOM     25  C   UNL     1       0.187  -9.988  -4.269  0.00  0.00    +0.004 A 
BRANCH  23  26
ATOM     26  N   UNL     1      -0.361 -10.218  -7.898  0.00  0.00    -0.269 N 
ATOM     27  C   UNL     1      -0.264  -9.354  -8.928  0.00  0.00    +0.304 C 
ATOM     28  O   UNL     1      -0.284  -8.156  -8.720  0.00  0.00    -0.253 OA
ATOM     29  N   UNL     1      -0.143  -9.818 -10.188  0.00  0.00    -0.296 N 
ATOM     30  H   UNL     1      -0.412 -11.172  -8.068  0.00  0.00    +0.156 HD
ATOM     31  H   UNL     1      -0.126 -10.774 -10.353  0.00  0.00    +0.151 HD
BRANCH  29  32
ATOM     32  C   UNL     1      -0.036  -8.879 -11.307  0.00  0.00    +0.075 C 
ATOM     33  C   UNL     1      -0.857  -9.181 -12.563  0.00  0.00    +0.024 C 
ATOM     34  C   UNL     1       0.661  -9.370 -12.577  0.00  0.00    +0.024 C 
ENDBRANCH  29  32
ENDBRANCH  23  26
ENDBRANCH  18  20
ENDBRANCH   1  18
TORSDOF 7
