REMARK  Name = ZINC13255180
REMARK  14 active torsions:
REMARK  status: ('A' for Active; 'I' for Inactive)
REMARK    1  A    between atoms: C_1  and  C_2
REMARK    2  A    between atoms: C_2  and  N_3
REMARK    3  A    between atoms: N_3  and  C_4
REMARK    4  A    between atoms: N_3  and  S_6
REMARK    5  A    between atoms: C_4  and  C_5
REMARK    6  A    between atoms: S_6  and  C_9
REMARK    7  A    between atoms: C_12  and  O_28
REMARK    8  A    between atoms: C_13  and  N_15
REMARK    9  A    between atoms: C_16  and  C_18
REMARK   10  A    between atoms: C_18  and  C_19
REMARK   11  A    between atoms: C_19  and  C_26
REMARK   12  A    between atoms: O_28  and  C_29
REMARK   13  A    between atoms: C_29  and  C_30
REMARK   14  A    between atoms: C_29  and  C_31
REMARK                            x       y       z     vdW  Elec       q    Type
REMARK                         _______ _______ _______ _____ _____    ______ ____
ROOT
ATOM      1  C   UNL     1      -1.361   4.719  -1.257  0.00  0.00    +0.107 A 
ATOM      2  C   UNL     1      -1.684   3.453  -1.710  0.00  0.00    +0.032 A 
ATOM      3  C   UNL     1      -0.696   2.498  -1.865  0.00  0.00    +0.049 A 
ATOM      4  C   UNL     1       0.622   2.811  -1.576  0.00  0.00    +0.142 A 
ATOM      5  C   UNL     1       0.948   4.088  -1.125  0.00  0.00    +0.077 A 
ATOM      6  C   UNL     1      -0.049   5.039  -0.967  0.00  0.00    +0.055 A 
ENDROOT
BRANCH   5   7
ATOM      7  N   UNL     1       2.280   4.411  -0.832  0.00  0.00    -0.283 N 
ATOM      8  C   UNL     1       2.559   5.299   0.143  0.00  0.00    +0.218 C 
ATOM      9  O   UNL     1       1.659   5.891   0.700  0.00  0.00    -0.275 OA
ATOM     10  H   UNL     1       3.001   3.995  -1.330  0.00  0.00    +0.155 HD
BRANCH   8  11
ATOM     11  C   UNL     1       3.990   5.556   0.541  0.00  0.00    +0.114 C 
BRANCH  11  12
ATOM     12  C   UNL     1       4.064   6.832   1.381  0.00  0.00    +0.080 C 
ATOM     13  C   UNL     1       5.390   7.508   1.157  0.00  0.00    +0.019 C 
ATOM     14  C   UNL     1       6.488   6.521   0.718  0.00  0.00    +0.001 C 
ATOM     15  C   UNL     1       6.445   5.193   1.497  0.00  0.00    +0.000 C 
ATOM     16  C   UNL     1       6.186   5.396   2.966  0.00  0.00    +0.000 C 
ATOM     17  C   UNL     1       4.671   5.263   3.219  0.00  0.00    +0.001 C 
ATOM     18  C   UNL     1       3.943   6.476   2.877  0.00  0.00    +0.019 C 
BRANCH  12  19
ATOM     19  C   UNL     1       2.945   7.762   0.990  0.00  0.00    +0.362 C 
ATOM     20  O   UNL     1       2.135   8.113   1.815  0.00  0.00    -0.246 OA
ATOM     21  O   UNL     1       2.847   8.199  -0.276  0.00  0.00    -0.246 OA
ENDBRANCH  12  19
ENDBRANCH  11  12
ENDBRANCH   8  11
ENDBRANCH   5   7
BRANCH   1  22
ATOM     22  S   UNL     1      -2.627   5.929  -1.056  0.00  0.00    +0.061 S 
ATOM     23  O   UNL     1      -3.843   5.218  -0.873  0.00  0.00    -0.153 OA
ATOM     24  O   UNL     1      -2.143   6.868  -0.106  0.00  0.00    -0.153 OA
BRANCH  22  25
ATOM     25  N   UNL     1      -2.763   6.738  -2.494  0.00  0.00    -0.177 NA
BRANCH  25  27
ATOM     26  C   UNL     1      -5.022   6.997  -3.396  0.00  0.00    +0.022 C 
ATOM     27  C   UNL     1      -3.690   6.255  -3.521  0.00  0.00    +0.106 C 
ENDBRANCH  25  27
BRANCH  25  28
ATOM     28  C   UNL     1      -1.957   7.936  -2.740  0.00  0.00    +0.106 C 
ATOM     29  C   UNL     1      -0.685   7.550  -3.497  0.00  0.00    +0.022 C 
ENDBRANCH  25  28
ENDBRANCH  22  25
ENDBRANCH   1  22
BRANCH   4  30
ATOM     30  O   UNL     1       1.595   1.875  -1.733  0.00  0.00    -0.488 OA
BRANCH  30  31
ATOM     31  C   UNL     1       1.182   0.573  -2.154  0.00  0.00    +0.167 C 
ATOM     32  C   UNL     1       2.363  -0.154  -2.798  0.00  0.00    +0.051 C 
ATOM     33  C   UNL     1       0.692  -0.223  -0.942  0.00  0.00    +0.051 C 
ENDBRANCH  30  31
ENDBRANCH   4  30
TORSDOF 10
