REMARK  Name = ZINC39260361
REMARK  7 active torsions:
REMARK  status: ('A' for Active; 'I' for Inactive)
REMARK    1  A    between atoms: C_7  and  C_19
REMARK    2  A    between atoms: N_9  and  C_10
REMARK    3  A    between atoms: C_10  and  C_11
REMARK    4  A    between atoms: C_11  and  N_12
REMARK    5  A    between atoms: C_19  and  C_20
REMARK    6  A    between atoms: C_20  and  N_21
REMARK    7  A    between atoms: C_22  and  C_24
REMARK                            x       y       z     vdW  Elec       q    Type
REMARK                         _______ _______ _______ _____ _____    ______ ____
ROOT
ATOM      1  C   UNL     1      -0.042   1.415   0.186  0.00  0.00    +0.001 A 
ATOM      2  C   UNL     1       1.139   2.143   0.215  0.00  0.00    +0.002 A 
ATOM      3  C   UNL     1       2.359   1.508   0.142  0.00  0.00    +0.026 A 
ATOM      4  C   UNL     1       2.410   0.121   0.038  0.00  0.00    +0.049 A 
ATOM      5  C   UNL     1       1.211  -0.613   0.008  0.00  0.00    +0.003 A 
ATOM      6  C   UNL     1      -0.015   0.053   0.083  0.00  0.00    +0.010 A 
ATOM      7  C   UNL     1       1.600  -2.020  -0.105  0.00  0.00    -0.021 A 
ATOM      8  C   UNL     1       2.941  -2.055  -0.136  0.00  0.00    +0.090 A 
ATOM      9  N   UNL     1       3.443  -0.785  -0.052  0.00  0.00    -0.348 N 
ENDROOT
BRANCH   9  10
ATOM     10  C   UNL     1       4.867  -0.441  -0.056  0.00  0.00    +0.103 C 
BRANCH  10  11
ATOM     11  C   UNL     1       5.363  -0.307   1.386  0.00  0.00    -0.057 C 
BRANCH  11  12
ATOM     12  N   UNL     1       6.816  -0.090   1.385  0.00  0.00    +0.381 N 
ATOM     13  C   UNL     1       7.312  -0.202   2.771  0.00  0.00    -0.079 C 
ATOM     14  C   UNL     1       8.770  -0.584   2.722  0.00  0.00    -0.019 C 
ATOM     15  C   UNL     1       9.681   0.653   2.835  0.00  0.00    -0.002 C 
ATOM     16  C   UNL     1       9.137   1.841   2.016  0.00  0.00    -0.002 C 
ATOM     17  C   UNL     1       8.598   1.414   0.674  0.00  0.00    -0.019 C 
ATOM     18  C   UNL     1       7.084   1.149   0.800  0.00  0.00    -0.079 C 
ATOM     19  H   UNL     1       7.250  -0.811   0.828  0.00  0.00    -0.082 HD
ENDBRANCH  11  12
ENDBRANCH  10  11
ENDBRANCH   9  10
BRANCH   7  20
ATOM     20  C   UNL     1       0.670  -3.204  -0.173  0.00  0.00    +0.056 C 
BRANCH  20  21
ATOM     21  C   UNL     1       0.226  -3.421  -1.621  0.00  0.00    +0.109 C 
BRANCH  21  22
ATOM     22  N   UNL     1      -0.678  -4.572  -1.688  0.00  0.00    -0.311 N 
ATOM     23  C   UNL     1      -1.198  -4.953  -2.871  0.00  0.00    +0.244 C 
ATOM     24  O   UNL     1      -0.918  -4.341  -3.884  0.00  0.00    -0.270 OA
ATOM     25  H   UNL     1      -0.901  -5.061  -0.880  0.00  0.00    +0.149 HD
BRANCH  23  26
ATOM     26  C   UNL     1      -2.109  -6.113  -2.938  0.00  0.00    +0.037 A 
ATOM     27  C   UNL     1      -2.439  -6.817  -1.777  0.00  0.00    +0.016 A 
ATOM     28  C   UNL     1      -3.291  -7.894  -1.840  0.00  0.00    +0.046 A 
ATOM     29  C   UNL     1      -3.832  -8.296  -3.062  0.00  0.00    +0.124 A 
ATOM     30  C   UNL     1      -3.493  -7.596  -4.216  0.00  0.00    -0.002 A 
ATOM     31  C   UNL     1      -2.652  -6.513  -4.163  0.00  0.00    +0.020 A 
ATOM     32  C   UNL     1      -4.206  -8.274  -5.371  0.00  0.00    +0.080 C 
ATOM     33  C   UNL     1      -4.624  -9.623  -4.742  0.00  0.00    +0.234 C 
ATOM     34  O   UNL     1      -4.692  -9.313  -3.340  0.00  0.00    -0.491 OA
ENDBRANCH  23  26
ENDBRANCH  21  22
ENDBRANCH  20  21
ENDBRANCH   7  20
TORSDOF 7
