REMARK  Name = ZINC12713118
REMARK  13 active torsions:
REMARK  status: ('A' for Active; 'I' for Inactive)
REMARK    1  A    between atoms: C_1  and  C_2
REMARK    2  A    between atoms: C_6  and  N_9
REMARK    3  A    between atoms: C_7  and  C_8
REMARK    4  A    between atoms: N_9  and  C_10
REMARK    5  A    between atoms: C_10  and  C_12
REMARK    6  A    between atoms: C_10  and  C_19
REMARK    7  A    between atoms: N_21  and  C_22
REMARK    8  A    between atoms: C_22  and  C_23
REMARK    9  A    between atoms: C_23  and  C_24
REMARK   10  A    between atoms: C_24  and  C_25
REMARK   11  A    between atoms: C_24  and  C_26
REMARK   12  A    between atoms: C_27  and  C_29
REMARK   13  A    between atoms: C_29  and  N_30
REMARK                            x       y       z     vdW  Elec       q    Type
REMARK                         _______ _______ _______ _____ _____    ______ ____
ROOT
ATOM      1  N   UNL     1      -5.293   2.222  -1.829  0.00  0.00    -0.254 N 
ATOM      2  C   UNL     1      -3.962   2.316  -2.016  0.00  0.00    +0.242 C 
ATOM      3  O   UNL     1      -3.517   3.106  -2.821  0.00  0.00    -0.273 OA
ENDROOT
BRANCH   1   9
ATOM      4  C   UNL     1      -7.091  -2.245  -0.835  0.00  0.00    +0.044 C 
ATOM      5  C   UNL     1      -6.686  -0.863  -0.392  0.00  0.00    -0.046 A 
ATOM      6  C   UNL     1      -6.823  -0.495   0.934  0.00  0.00    +0.004 A 
ATOM      7  C   UNL     1      -6.453   0.773   1.345  0.00  0.00    +0.002 A 
ATOM      8  C   UNL     1      -5.940   1.674   0.432  0.00  0.00    +0.024 A 
ATOM      9  C   UNL     1      -5.807   1.310  -0.901  0.00  0.00    +0.041 A 
ATOM     10  C   UNL     1      -6.180   0.035  -1.310  0.00  0.00    -0.026 A 
ATOM     11  C   UNL     1      -6.032  -0.366  -2.755  0.00  0.00    +0.046 C 
ENDBRANCH   1   9
BRANCH   1  12
ATOM     12  C   UNL     1      -6.203   3.075  -2.598  0.00  0.00    +0.197 C 
BRANCH  12  13
ATOM     13  C   UNL     1      -6.050   4.505  -2.148  0.00  0.00    -0.018 A 
ATOM     14  C   UNL     1      -6.079   4.813  -0.801  0.00  0.00    +0.009 A 
ATOM     15  C   UNL     1      -5.934   6.123  -0.387  0.00  0.00    +0.038 A 
ATOM     16  C   UNL     1      -5.771   7.130  -1.324  0.00  0.00    +0.123 A 
ATOM     17  C   UNL     1      -5.747   6.822  -2.673  0.00  0.00    +0.038 A 
ATOM     18  C   UNL     1      -5.886   5.510  -3.084  0.00  0.00    +0.009 A 
ATOM     19  F   UNL     1      -5.633   8.412  -0.921  0.00  0.00    -0.205 F 
ENDBRANCH  12  13
BRANCH  12  20
ATOM     20  C   UNL     1      -7.624   2.627  -2.372  0.00  0.00    +0.238 C 
ATOM     21  O   UNL     1      -8.001   2.349  -1.254  0.00  0.00    -0.273 OA
ATOM     22  N   UNL     1      -8.475   2.534  -3.413  0.00  0.00    -0.313 N 
ATOM     23  H   UNL     1      -8.173   2.757  -4.308  0.00  0.00    +0.149 HD
BRANCH  22  24
ATOM     24  C   UNL     1      -9.856   2.099  -3.193  0.00  0.00    +0.104 C 
BRANCH  24  25
ATOM     25  C   UNL     1     -10.604   2.081  -4.528  0.00  0.00    +0.022 C 
BRANCH  25  26
ATOM     26  C   UNL     1     -12.046   1.625  -4.299  0.00  0.00    -0.016 C 
ATOM     27  C   UNL     1     -12.828   1.726  -5.610  0.00  0.00    +0.007 C 
ATOM     28  C   UNL     1     -12.052   0.175  -3.812  0.00  0.00    +0.007 C 
ENDBRANCH  25  26
ENDBRANCH  24  25
ENDBRANCH  22  24
ENDBRANCH  12  20
ENDBRANCH   1  12
BRANCH   2  29
ATOM     29  C   UNL     1      -3.026   1.438  -1.226  0.00  0.00    +0.242 C 
BRANCH  29  30
ATOM     30  N   UNL     1      -1.643   1.729  -1.609  0.00  0.00    -0.235 N 
ATOM     31  C   UNL     1      -0.922   1.124  -2.611  0.00  0.00    +0.090 A 
ATOM     32  C   UNL     1      -1.205   0.125  -3.537  0.00  0.00    +0.029 A 
ATOM     33  C   UNL     1      -0.245  -0.268  -4.427  0.00  0.00    +0.002 A 
ATOM     34  C   UNL     1       1.010   0.328  -4.422  0.00  0.00    +0.002 A 
ATOM     35  C   UNL     1       1.310   1.313  -3.527  0.00  0.00    +0.032 A 
ATOM     36  C   UNL     1       0.345   1.731  -2.601  0.00  0.00    +0.113 A 
ATOM     37  N   UNL     1       0.348   2.656  -1.621  0.00  0.00    -0.129 NA
ATOM     38  N   UNL     1      -0.792   2.680  -1.026  0.00  0.00    -0.064 NA
ENDBRANCH  29  30
ENDBRANCH   2  29
TORSDOF 9
