REMARK  Name = ZINC08917983
REMARK  12 active torsions:
REMARK  status: ('A' for Active; 'I' for Inactive)
REMARK    1  A    between atoms: C_1  and  C_2
REMARK    2  A    between atoms: N_6  and  O_7
REMARK    3  A    between atoms: O_7  and  C_8
REMARK    4  A    between atoms: C_8  and  C_9
REMARK    5  A    between atoms: N_11  and  C_12
REMARK    6  A    between atoms: C_12  and  C_13
REMARK    7  A    between atoms: C_27  and  O_42
REMARK    8  A    between atoms: C_30  and  C_41
REMARK    9  A    between atoms: C_35  and  C_36
REMARK   10  A    between atoms: C_35  and  O_40
REMARK   11  A    between atoms: C_36  and  C_38
REMARK   12  A    between atoms: C_38  and  O_39
REMARK                            x       y       z     vdW  Elec       q    Type
REMARK                         _______ _______ _______ _____ _____    ______ ____
ROOT
ATOM      1  C   UNL     1       1.442   4.045   1.108  0.00  0.00    +0.016 C 
ATOM      2  C   UNL     1       1.087   3.479  -0.272  0.00  0.00    -0.005 C 
ATOM      3  C   UNL     1      -0.184   4.177  -0.729  0.00  0.00    +0.017 C 
ATOM      4  C   UNL     1      -1.426   3.610  -0.043  0.00  0.00    +0.059 C 
ATOM      5  C   UNL     1      -1.483   2.126  -0.342  0.00  0.00    +0.080 C 
ATOM      6  N   UNL     1      -2.590   1.550  -0.699  0.00  0.00    -0.089 NA
ATOM      7  C   UNL     1      -0.230   1.366  -0.213  0.00  0.00    +0.026 C 
ATOM      8  C   UNL     1       0.938   1.996  -0.141  0.00  0.00    -0.061 C 
ATOM      9  C   UNL     1       2.174   1.153   0.103  0.00  0.00    +0.031 C 
ATOM     10  C   UNL     1       3.249   1.527  -0.920  0.00  0.00    +0.008 C 
ATOM     11  C   UNL     1       3.489   3.030  -0.900  0.00  0.00    -0.001 C 
ATOM     12  C   UNL     1       2.233   3.819  -1.229  0.00  0.00    +0.031 C 
ATOM     13  C   UNL     1       1.812   3.587  -2.675  0.00  0.00    +0.119 C 
ATOM     14  C   UNL     1       2.928   3.966  -3.632  0.00  0.00    +0.041 C 
ATOM     15  C   UNL     1       4.293   3.425  -3.299  0.00  0.00    +0.009 C 
ATOM     16  C   UNL     1       4.648   3.421  -1.812  0.00  0.00    +0.002 C 
ATOM     17  C   UNL     1       5.742   2.332  -1.690  0.00  0.00    +0.008 C 
ATOM     18  C   UNL     1       5.427   1.303  -2.787  0.00  0.00    +0.043 C 
ATOM     19  C   UNL     1       4.574   2.024  -3.851  0.00  0.00    +0.131 C 
ATOM     20  C   UNL     1       5.306   4.378  -3.991  0.00  0.00    +0.015 C 
ENDROOT
BRANCH  19  21
ATOM     21  C   UNL     1       5.369   2.135  -5.139  0.00  0.00    +0.190 C 
ATOM     22  O   UNL     1       6.575   2.093  -5.110  0.00  0.00    -0.292 OA
BRANCH  21  23
ATOM     23  C   UNL     1       4.652   2.298  -6.455  0.00  0.00    +0.233 C 
BRANCH  23  24
ATOM     24  O   UNL     1       5.610   2.379  -7.512  0.00  0.00    -0.387 OA
ATOM     25  H   UNL     1       5.219   2.485  -8.390  0.00  0.00    +0.210 HD
ENDBRANCH  23  24
ENDBRANCH  21  23
ENDBRANCH  19  21
BRANCH  19  26
ATOM     26  O   UNL     1       3.370   1.300  -4.113  0.00  0.00    -0.380 OA
ATOM     27  H   UNL     1       3.515   0.410  -4.463  0.00  0.00    +0.211 HD
ENDBRANCH  19  26
BRANCH  13  28
ATOM     28  O   UNL     1       1.352   2.260  -2.892  0.00  0.00    -0.391 OA
ATOM     29  H   UNL     1       1.077   2.083  -3.802  0.00  0.00    +0.210 HD
ENDBRANCH  13  28
BRANCH   6  30
ATOM     30  O   UNL     1      -2.609   0.161  -0.975  0.00  0.00    -0.384 OA
BRANCH  30  31
ATOM     31  C   UNL     1      -3.892  -0.338  -1.357  0.00  0.00    +0.358 C 
BRANCH  31  32
ATOM     32  C   UNL     1      -3.796  -1.818  -1.624  0.00  0.00    +0.254 C 
ATOM     33  O   UNL     1      -2.733  -2.389  -1.501  0.00  0.00    -0.272 OA
ATOM     34  N   UNL     1      -4.891  -2.508  -2.001  0.00  0.00    -0.308 N 
ATOM     35  H   UNL     1      -5.741  -2.051  -2.100  0.00  0.00    +0.149 HD
BRANCH  34  36
ATOM     36  C   UNL     1      -4.797  -3.946  -2.262  0.00  0.00    +0.139 C 
BRANCH  36  37
ATOM     37  C   UNL     1      -6.150  -4.473  -2.664  0.00  0.00    -0.027 A 
ATOM     38  C   UNL     1      -7.038  -4.950  -1.712  0.00  0.00    +0.025 A 
ATOM     39  C   UNL     1      -8.272  -5.421  -2.118  0.00  0.00    +0.111 A 
ATOM     40  N   UNL     1      -8.604  -5.430  -3.394  0.00  0.00    -0.263 NA
ATOM     41  C   UNL     1      -7.784  -4.989  -4.327  0.00  0.00    +0.111 A 
ATOM     42  C   UNL     1      -6.535  -4.498  -3.996  0.00  0.00    +0.025 A 
ENDBRANCH  36  37
ENDBRANCH  34  36
ENDBRANCH  31  32
ENDBRANCH  30  31
ENDBRANCH   6  30
TORSDOF 10
