REMARK  Name = ZINC29396375
REMARK  11 active torsions:
REMARK  status: ('A' for Active; 'I' for Inactive)
REMARK    1  A    between atoms: C_1  and  C_2
REMARK    2  A    between atoms: C_2  and  C_3
REMARK    3  A    between atoms: C_2  and  C_4
REMARK    4  A    between atoms: C_2  and  O_5
REMARK    5  A    between atoms: O_5  and  C_6
REMARK    6  A    between atoms: N_8  and  C_9
REMARK    7  A    between atoms: N_12  and  C_15
REMARK    8  A    between atoms: C_15  and  C_16
REMARK    9  A    between atoms: N_18  and  C_19
REMARK   10  A    between atoms: C_29  and  C_31
REMARK   11  A    between atoms: C_31  and  C_32
REMARK                            x       y       z     vdW  Elec       q    Type
REMARK                         _______ _______ _______ _____ _____    ______ ____
ROOT
ATOM      1  C   UNL     1       0.472  -1.649  -1.101  0.00  0.00    +0.197 C 
ATOM      2  O   UNL     1      -0.259  -2.315  -0.398  0.00  0.00    -0.278 OA
ATOM      3  N   UNL     1       0.681  -0.349  -0.815  0.00  0.00    -0.313 N 
ATOM      4  H   UNL     1       1.344   0.255  -1.452  0.00  0.00    +0.149 HD
ENDROOT
BRANCH   3   5
ATOM      5  C   UNL     1       0.027   0.260   0.346  0.00  0.00    +0.081 C 
ATOM      6  C   UNL     1       0.877   0.026   1.600  0.00  0.00    +0.027 C 
ATOM      7  C   UNL     1       2.316   0.434   1.290  0.00  0.00    +0.037 C 
ATOM      8  C   UNL     1       2.357   1.818   0.696  0.00  0.00    -0.041 A 
ATOM      9  C   UNL     1       3.575   2.486   0.698  0.00  0.00    +0.042 A 
ATOM     10  C   UNL     1       3.680   3.755   0.163  0.00  0.00    +0.124 A 
ATOM     11  C   UNL     1       2.562   4.366  -0.380  0.00  0.00    +0.038 A 
ATOM     12  C   UNL     1       1.353   3.704  -0.381  0.00  0.00    +0.007 A 
ATOM     13  C   UNL     1       1.246   2.428   0.159  0.00  0.00    -0.039 A 
ATOM     14  C   UNL     1      -0.107   1.766   0.130  0.00  0.00    +0.044 C 
ATOM     15  F   UNL     1       4.869   4.398   0.169  0.00  0.00    -0.205 F 
BRANCH  14  16
ATOM     16  C   UNL     1      -0.766   2.024  -1.227  0.00  0.00    +0.046 C 
BRANCH  16  17
ATOM     17  C   UNL     1      -2.178   1.500  -1.208  0.00  0.00    -0.029 A 
ATOM     18  C   UNL     1      -3.206   2.271  -0.686  0.00  0.00    +0.006 A 
ATOM     19  C   UNL     1      -4.490   1.748  -0.689  0.00  0.00    +0.020 A 
ATOM     20  C   UNL     1      -4.701   0.484  -1.208  0.00  0.00    +0.111 A 
ATOM     21  N   UNL     1      -3.700  -0.221  -1.696  0.00  0.00    -0.263 NA
ATOM     22  C   UNL     1      -2.467   0.247  -1.715  0.00  0.00    +0.114 A 
ENDBRANCH  16  17
ENDBRANCH  14  16
ENDBRANCH   3   5
BRANCH   1  23
ATOM     23  C   UNL     1       1.145  -2.275  -2.295  0.00  0.00    +0.019 C 
BRANCH  23  27
ATOM     24  C   UNL     1       1.166  -6.539  -2.618  0.00  0.00    +0.073 C 
ATOM     25  C   UNL     1       0.655  -5.697  -3.790  0.00  0.00    +0.004 C 
ATOM     26  C   UNL     1       1.199  -4.272  -3.663  0.00  0.00    -0.076 C 
ATOM     27  N   UNL     1       0.758  -3.689  -2.390  0.00  0.00    +0.385 N 
ATOM     28  C   UNL     1       1.276  -4.454  -1.248  0.00  0.00    -0.076 C 
ATOM     29  C   UNL     1       0.735  -5.885  -1.303  0.00  0.00    +0.004 C 
ATOM     30  H   UNL     1      -0.340  -3.744  -2.358  0.00  0.00    -0.081 HD
BRANCH  24  33
ATOM     31  C   UNL     1       1.247  -8.925  -2.132  0.00  0.00    +0.401 C 
ATOM     32  O   UNL     1       2.297  -8.741  -1.548  0.00  0.00    -0.226 OA
ATOM     33  N   UNL     1       0.602  -7.888  -2.702  0.00  0.00    -0.278 N 
ATOM     34  H   UNL     1      -0.348  -8.055  -3.230  0.00  0.00    +0.152 HD
BRANCH  31  35
ATOM     35  O   UNL     1       0.728 -10.165  -2.209  0.00  0.00    -0.445 OA
BRANCH  35  37
ATOM     36  C   UNL     1       1.616 -10.938  -0.077  0.00  0.00    +0.055 C 
ATOM     37  C   UNL     1       1.477 -11.234  -1.572  0.00  0.00    +0.107 C 
ATOM     38  C   UNL     1       0.737 -12.559  -1.764  0.00  0.00    +0.055 C 
ATOM     39  C   UNL     1       2.867 -11.329  -2.204  0.00  0.00    +0.055 C 
ENDBRANCH  35  37
ENDBRANCH  31  35
ENDBRANCH  24  33
ENDBRANCH  23  27
ENDBRANCH   1  23
TORSDOF 8
