REMARK  Name = ZINC09812714
REMARK  11 active torsions:
REMARK  status: ('A' for Active; 'I' for Inactive)
REMARK    1  A    between atoms: C_1  and  C_2
REMARK    2  A    between atoms: C_2  and  C_3
REMARK    3  A    between atoms: C_3  and  C_4
REMARK    4  A    between atoms: C_4  and  N_5
REMARK    5  A    between atoms: N_5  and  C_6
REMARK    6  A    between atoms: N_5  and  S_8
REMARK    7  A    between atoms: C_6  and  C_7
REMARK    8  A    between atoms: S_8  and  C_11
REMARK    9  A    between atoms: C_14  and  C_17
REMARK   10  A    between atoms: C_23  and  C_25
REMARK   11  A    between atoms: C_25  and  C_26
REMARK                            x       y       z     vdW  Elec       q    Type
REMARK                         _______ _______ _______ _____ _____    ______ ____
ROOT
ATOM      1  C   UNL     1       4.966  -2.349  -5.665  0.00  0.00    +0.252 C 
ATOM      2  O   UNL     1       5.585  -1.305  -5.740  0.00  0.00    -0.270 OA
ATOM      3  N   UNL     1       4.336  -2.678  -4.520  0.00  0.00    -0.234 N 
ATOM      4  C   UNL     1       4.394  -1.826  -3.428  0.00  0.00    +0.314 A 
ATOM      5  N   UNL     1       5.021  -0.677  -3.371  0.00  0.00    -0.092 NA
ATOM      6  N   UNL     1       4.860  -0.162  -2.203  0.00  0.00    -0.111 NA
ATOM      7  C   UNL     1       4.129  -0.955  -1.475  0.00  0.00    +0.223 A 
ATOM      8  O   UNL     1       3.821  -2.028  -2.227  0.00  0.00    -0.409 OA
ATOM      9  H   UNL     1       3.843  -3.511  -4.460  0.00  0.00    +0.160 HD
ENDROOT
BRANCH   1  13
ATOM     10  C   UNL     1       4.790  -4.959  -9.011  0.00  0.00    +0.106 A 
ATOM     11  C   UNL     1       5.495  -3.772  -9.100  0.00  0.00    +0.029 A 
ATOM     12  C   UNL     1       5.556  -2.919  -8.017  0.00  0.00    +0.015 A 
ATOM     13  C   UNL     1       4.904  -3.257  -6.829  0.00  0.00    +0.037 A 
ATOM     14  C   UNL     1       4.200  -4.459  -6.744  0.00  0.00    +0.015 A 
ATOM     15  C   UNL     1       4.142  -5.300  -7.837  0.00  0.00    +0.029 A 
BRANCH  10  16
ATOM     16  S   UNL     1       4.717  -6.042 -10.399  0.00  0.00    +0.061 S 
ATOM     17  O   UNL     1       3.544  -6.828 -10.239  0.00  0.00    -0.153 OA
ATOM     18  O   UNL     1       4.947  -5.242 -11.550  0.00  0.00    -0.153 OA
BRANCH  16  19
ATOM     19  N   UNL     1       6.002  -7.080 -10.278  0.00  0.00    -0.177 NA
BRANCH  19  20
ATOM     20  C   UNL     1       5.856  -8.346  -9.557  0.00  0.00    +0.106 C 
ATOM     21  C   UNL     1       5.517  -9.461 -10.549  0.00  0.00    +0.022 C 
ENDBRANCH  19  20
BRANCH  19  22
ATOM     22  C   UNL     1       7.285  -6.731 -10.893  0.00  0.00    +0.109 C 
BRANCH  22  23
ATOM     23  C   UNL     1       8.188  -6.072  -9.848  0.00  0.00    +0.017 C 
BRANCH  23  25
ATOM     24  C   UNL     1      10.432  -5.048  -9.446  0.00  0.00    +0.004 C 
ATOM     25  C   UNL     1       9.529  -5.707 -10.490  0.00  0.00    -0.002 C 
ENDBRANCH  23  25
ENDBRANCH  22  23
ENDBRANCH  19  22
ENDBRANCH  16  19
ENDBRANCH  10  16
ENDBRANCH   1  13
BRANCH   7  26
ATOM     26  C   UNL     1       3.709  -0.717  -0.047  0.00  0.00    +0.133 C 
BRANCH  26  27
ATOM     27  C   UNL     1       2.397   0.024  -0.026  0.00  0.00    -0.035 A 
ATOM     28  C   UNL     1       1.207  -0.680  -0.016  0.00  0.00    +0.008 A 
ATOM     29  C   UNL     1       0.002  -0.004   0.002  0.00  0.00    +0.050 A 
ATOM     30  C   UNL     1      -0.017   1.383   0.010  0.00  0.00    +0.162 A 
ATOM     31  C   UNL     1       1.179   2.090   0.002  0.00  0.00    +0.162 A 
ATOM     32  C   UNL     1       2.386   1.406  -0.017  0.00  0.00    +0.053 A 
ATOM     33  O   UNL     1       1.184   3.451   0.018  0.00  0.00    -0.485 OA
ATOM     34  C   UNL     1      -0.040   4.103  -0.340  0.00  0.00    +0.270 C 
ATOM     35  C   UNL     1      -1.189   3.413   0.408  0.00  0.00    +0.270 C 
ATOM     36  O   UNL     1      -1.212   2.035   0.019  0.00  0.00    -0.485 OA
ENDBRANCH  26  27
ENDBRANCH   7  26
TORSDOF 9
