REMARK  Name = ZINC03243049
REMARK  6 active torsions:
REMARK  status: ('A' for Active; 'I' for Inactive)
REMARK    1  A    between atoms: C_11  and  C_13
REMARK    2  A    between atoms: C_13  and  O_14
REMARK    3  A    between atoms: O_14  and  C_15
REMARK    4  A    between atoms: C_15  and  C_17
REMARK    5  A    between atoms: C_17  and  O_18
REMARK    6  A    between atoms: O_18  and  C_19
REMARK                            x       y       z     vdW  Elec       q    Type
REMARK                         _______ _______ _______ _____ _____    ______ ____
ROOT
ATOM      1  C   UNL     1       4.700   1.482  -0.737  0.00  0.00    +0.328 C 
ENDROOT
BRANCH   1  12
ATOM      2  C   UNL     1       3.776  -4.736   0.701  0.00  0.00    +0.000 A 
ATOM      3  C   UNL     1       4.866  -4.093   0.143  0.00  0.00    +0.002 A 
ATOM      4  C   UNL     1       4.812  -2.737  -0.105  0.00  0.00    +0.024 A 
ATOM      5  C   UNL     1       3.663  -2.018   0.205  0.00  0.00    +0.040 A 
ATOM      6  C   UNL     1       2.570  -2.663   0.761  0.00  0.00    -0.026 A 
ATOM      7  C   UNL     1       2.633  -4.024   1.009  0.00  0.00    +0.005 A 
ATOM      8  C   UNL     1       1.306  -1.919   1.100  0.00  0.00    +0.038 C 
ATOM      9  C   UNL     1       1.585  -0.422   1.239  0.00  0.00    +0.024 C 
ATOM     10  C   UNL     1       2.338   0.059  -0.008  0.00  0.00    +0.114 C 
ATOM     11  N   UNL     1       3.630  -0.640  -0.050  0.00  0.00    -0.268 N 
ATOM     12  C   UNL     1       4.764   0.033  -0.330  0.00  0.00    +0.258 C 
ATOM     13  O   UNL     1       5.837  -0.529  -0.254  0.00  0.00    -0.272 OA
ENDBRANCH   1  12
BRANCH   1  14
ATOM     14  O   UNL     1       6.007   1.935  -1.095  0.00  0.00    -0.453 OA
BRANCH  14  15
ATOM     15  C   UNL     1       6.124   3.214  -1.484  0.00  0.00    +0.346 C 
ATOM     16  O   UNL     1       5.149   3.926  -1.520  0.00  0.00    -0.247 OA
BRANCH  15  17
ATOM     17  C   UNL     1       7.472   3.762  -1.877  0.00  0.00    +0.349 C 
BRANCH  17  18
ATOM     18  O   UNL     1       7.337   5.135  -2.250  0.00  0.00    -0.479 OA
BRANCH  18  19
ATOM     19  C   UNL     1       8.469   5.784  -2.634  0.00  0.00    +0.140 A 
ATOM     20  C   UNL     1       9.681   5.111  -2.657  0.00  0.00    +0.048 A 
ATOM     21  C   UNL     1      10.830   5.772  -3.048  0.00  0.00    +0.023 A 
ATOM     22  C   UNL     1      10.771   7.105  -3.416  0.00  0.00    +0.043 A 
ATOM     23  C   UNL     1       9.563   7.778  -3.394  0.00  0.00    +0.043 A 
ATOM     24  C   UNL     1       8.411   7.119  -3.009  0.00  0.00    +0.084 A 
ATOM     25 CL   UNL     1       6.893   7.962  -2.988  0.00  0.00    -0.080 Cl
ATOM     26 CL   UNL     1      12.216   7.933  -3.906  0.00  0.00    -0.083 Cl
ENDBRANCH  18  19
ENDBRANCH  17  18
ENDBRANCH  15  17
ENDBRANCH  14  15
ENDBRANCH   1  14
TORSDOF 6
