REMARK  Name = ZINC16613079
REMARK  7 active torsions:
REMARK  status: ('A' for Active; 'I' for Inactive)
REMARK    1  A    between atoms: C_1  and  C_2
REMARK    2  A    between atoms: C_6  and  N_9
REMARK    3  A    between atoms: C_7  and  C_8
REMARK    4  A    between atoms: N_20  and  C_29
REMARK    5  A    between atoms: N_22  and  C_23
REMARK    6  A    between atoms: C_29  and  C_30
REMARK    7  A    between atoms: N_32  and  C_33
REMARK                            x       y       z     vdW  Elec       q    Type
REMARK                         _______ _______ _______ _____ _____    ______ ____
ROOT
ATOM      1  N   UNL     1      -1.344   8.717  -1.038  0.00  0.00    -0.269 N 
ATOM      2  C   UNL     1      -0.419   7.988  -1.693  0.00  0.00    +0.306 C 
ATOM      3  O   UNL     1      -0.455   7.908  -2.906  0.00  0.00    -0.252 OA
ATOM      4  N   UNL     1       0.547   7.348  -1.004  0.00  0.00    -0.285 N 
ATOM      5  C   UNL     1       1.617   6.628  -1.709  0.00  0.00    +0.112 C 
ATOM      6  C   UNL     1       1.664   5.187  -1.191  0.00  0.00    +0.054 C 
ATOM      7  C   UNL     1       1.794   5.198   0.329  0.00  0.00    +0.115 C 
ATOM      8  C   UNL     1       0.604   5.910   0.966  0.00  0.00    +0.054 C 
ATOM      9  C   UNL     1       0.549   7.357   0.465  0.00  0.00    +0.112 C 
ATOM     10  C   UNL     1       3.086   5.860   0.742  0.00  0.00    +0.241 C 
ATOM     11  O   UNL     1       3.530   6.894   0.290  0.00  0.00    -0.273 OA
ATOM     12  N   UNL     1       3.663   5.104   1.700  0.00  0.00    -0.275 N 
ATOM     13  C   UNL     1       2.815   3.941   1.987  0.00  0.00    +0.217 C 
ATOM     14  N   UNL     1       1.887   3.813   0.839  0.00  0.00    -0.300 N 
ATOM     15  H   UNL     1      -1.300   8.802  -0.073  0.00  0.00    +0.156 HD
ENDROOT
BRANCH   1  21
ATOM     16  C   UNL     1      -5.878  10.615  -1.143  0.00  0.00    +0.044 C 
ATOM     17  C   UNL     1      -4.576  10.283  -1.826  0.00  0.00    -0.046 A 
ATOM     18  C   UNL     1      -4.393  10.604  -3.159  0.00  0.00    +0.004 A 
ATOM     19  C   UNL     1      -3.200  10.301  -3.788  0.00  0.00    +0.002 A 
ATOM     20  C   UNL     1      -2.187   9.676  -3.088  0.00  0.00    +0.023 A 
ATOM     21  C   UNL     1      -2.368   9.351  -1.750  0.00  0.00    +0.038 A 
ATOM     22  C   UNL     1      -3.570   9.652  -1.122  0.00  0.00    -0.026 A 
ATOM     23  C   UNL     1      -3.772   9.296   0.328  0.00  0.00    +0.046 C 
ENDBRANCH   1  21
BRANCH  14  24
ATOM     24  C   UNL     1       0.637   3.348   1.255  0.00  0.00    +0.032 A 
ATOM     25  C   UNL     1      -0.413   3.271   0.350  0.00  0.00    +0.023 A 
ATOM     26  C   UNL     1      -1.648   2.811   0.764  0.00  0.00    +0.002 A 
ATOM     27  C   UNL     1      -1.840   2.433   2.080  0.00  0.00    +0.000 A 
ATOM     28  C   UNL     1      -0.795   2.504   2.983  0.00  0.00    +0.002 A 
ATOM     29  C   UNL     1       0.442   2.963   2.575  0.00  0.00    +0.023 A 
ENDBRANCH  14  24
BRANCH  12  30
ATOM     30  C   UNL     1       4.941   5.399   2.353  0.00  0.00    +0.205 C 
BRANCH  30  31
ATOM     31  C   UNL     1       4.697   6.246   3.575  0.00  0.00    +0.230 C 
ATOM     32  O   UNL     1       3.567   6.571   3.872  0.00  0.00    -0.274 OA
ATOM     33  N   UNL     1       5.734   6.642   4.339  0.00  0.00    -0.317 N 
ATOM     34  C   UNL     1       5.497   7.465   5.528  0.00  0.00    +0.128 C 
ATOM     35  H   UNL     1       6.638   6.382   4.102  0.00  0.00    +0.148 HD
ENDBRANCH  30  31
ENDBRANCH  12  30
TORSDOF 4
