REMARK  Name = ZINC65301217
REMARK  10 active torsions:
REMARK  status: ('A' for Active; 'I' for Inactive)
REMARK    1  A    between atoms: C_1  and  C_2
REMARK    2  A    between atoms: C_2  and  O_3
REMARK    3  A    between atoms: O_3  and  C_4
REMARK    4  A    between atoms: C_9  and  C_10
REMARK    5  A    between atoms: C_10  and  N_11
REMARK    6  A    between atoms: C_12  and  C_14
REMARK    7  A    between atoms: N_17  and  C_20
REMARK    8  A    between atoms: C_21  and  C_30
REMARK    9  A    between atoms: C_26  and  C_29
REMARK   10  A    between atoms: C_35  and  C_38
REMARK                            x       y       z     vdW  Elec       q    Type
REMARK                         _______ _______ _______ _____ _____    ______ ____
ROOT
ATOM      1  C   UNL     1       5.506   0.528  -3.479  0.00  0.00    +0.078 C 
ATOM      2  C   UNL     1       5.158   1.332  -2.224  0.00  0.00    +0.031 C 
ATOM      3  C   UNL     1       6.450   1.803  -1.550  0.00  0.00    +0.106 C 
ATOM      4  N   UNL     1       7.256   2.538  -2.533  0.00  0.00    -0.329 N 
ATOM      5  C   UNL     1       7.573   1.890  -3.814  0.00  0.00    +0.106 C 
ATOM      6  C   UNL     1       6.268   1.419  -4.463  0.00  0.00    +0.031 C 
ENDROOT
BRANCH   4   7
ATOM      7  C   UNL     1       7.708   3.813  -2.260  0.00  0.00    +0.055 A 
ATOM      8  C   UNL     1       6.914   4.933  -2.549  0.00  0.00    +0.074 A 
ATOM      9  C   UNL     1       7.390   6.219  -2.264  0.00  0.00    +0.098 A 
ATOM     10  N   UNL     1       8.580   6.387  -1.727  0.00  0.00    -0.353 N 
ATOM     11  C   UNL     1       9.359   5.366  -1.439  0.00  0.00    +0.107 A 
ATOM     12  C   UNL     1       8.984   4.022  -1.675  0.00  0.00    +0.050 A 
ATOM     13  C   UNL     1       9.971   3.102  -1.282  0.00  0.00    +0.058 A 
ATOM     14  N   UNL     1      11.086   3.509  -0.758  0.00  0.00    -0.213 NA
ATOM     15  S   UNL     1      10.977   5.182  -0.732  0.00  0.00    +0.030 S 
ATOM     16  C   UNL     1       9.731   1.627  -1.471  0.00  0.00    +0.067 C 
ATOM     17  H   UNL     1       8.890   7.286  -1.538  0.00  0.00    +0.166 HD
BRANCH   8  18
ATOM     18  C   UNL     1       5.583   4.756  -3.151  0.00  0.00    +0.250 C 
ATOM     19  O   UNL     1       4.721   4.141  -2.553  0.00  0.00    -0.270 OA
ATOM     20  N   UNL     1       5.319   5.277  -4.366  0.00  0.00    -0.297 N 
ATOM     21  C   UNL     1       6.315   6.106  -5.058  0.00  0.00    +0.108 C 
ATOM     22  C   UNL     1       6.550   5.529  -6.457  0.00  0.00    +0.022 C 
ATOM     23  C   UNL     1       5.211   5.413  -7.189  0.00  0.00    -0.011 C 
ATOM     24  C   UNL     1       4.289   4.462  -6.423  0.00  0.00    +0.022 C 
ATOM     25  C   UNL     1       4.031   5.022  -5.026  0.00  0.00    +0.108 C 
ATOM     26  C   UNL     1       5.446   4.869  -8.600  0.00  0.00    +0.007 C 
ENDBRANCH   8  18
ENDBRANCH   4   7
BRANCH   1  28
ATOM     27  N   UNL     1       3.402  -0.772  -3.443  0.00  0.00    -0.311 N 
ATOM     28  C   UNL     1       4.238   0.034  -4.127  0.00  0.00    +0.216 C 
ATOM     29  O   UNL     1       3.970   0.362  -5.263  0.00  0.00    -0.276 OA
ATOM     30  H   UNL     1       3.616  -1.035  -2.534  0.00  0.00    +0.149 HD
BRANCH  27  31
ATOM     31  C   UNL     1       2.169  -1.252  -4.073  0.00  0.00    +0.143 C 
BRANCH  31  37
ATOM     32  C   UNL     1       0.645  -1.557  -2.106  0.00  0.00    +0.125 A 
ATOM     33  C   UNL     1      -0.049  -2.368  -1.219  0.00  0.00    +0.046 A 
ATOM     34  C   UNL     1       0.037  -3.742  -1.329  0.00  0.00    +0.004 A 
ATOM     35  C   UNL     1       0.814  -4.310  -2.322  0.00  0.00    +0.001 A 
ATOM     36  C   UNL     1       1.506  -3.505  -3.207  0.00  0.00    +0.009 A 
ATOM     37  C   UNL     1       1.419  -2.130  -3.104  0.00  0.00    +0.011 A 
BRANCH  32  38
ATOM     38  O   UNL     1       0.561  -0.205  -2.000  0.00  0.00    -0.492 OA
BRANCH  38  40
ATOM     39  C   UNL     1      -0.225   1.844  -0.987  0.00  0.00    +0.048 C 
ATOM     40  C   UNL     1      -0.254   0.314  -0.948  0.00  0.00    +0.225 C 
ENDBRANCH  38  40
ENDBRANCH  32  38
ENDBRANCH  31  37
ENDBRANCH  27  31
ENDBRANCH   1  28
TORSDOF 7
