REMARK  Name = ZINC39672099
REMARK  6 active torsions:
REMARK  status: ('A' for Active; 'I' for Inactive)
REMARK    1  A    between atoms: C_1  and  C_2
REMARK    2  A    between atoms: C_7  and  C_8
REMARK    3  A    between atoms: C_8  and  C_9
REMARK    4  A    between atoms: C_13  and  C_22
REMARK    5  A    between atoms: N_24  and  C_25
REMARK    6  A    between atoms: C_25  and  C_26
REMARK                            x       y       z     vdW  Elec       q    Type
REMARK                         _______ _______ _______ _____ _____    ______ ____
ROOT
ATOM      1  C   UNL     1      -1.108   0.284   2.987  0.00  0.00    +0.220 C 
ATOM      2  O   UNL     1      -1.964  -0.119   2.229  0.00  0.00    -0.275 OA
ATOM      3  N   UNL     1      -1.455   0.984   4.085  0.00  0.00    -0.300 N 
ATOM      4  C   UNL     1      -0.560   1.559   5.117  0.00  0.00    +0.121 C 
ATOM      5  C   UNL     1      -1.190   2.928   5.460  0.00  0.00    +0.100 C 
ATOM      6  C   UNL     1      -2.672   2.785   5.077  0.00  0.00    -0.004 C 
ATOM      7  C   UNL     1      -2.819   1.358   4.531  0.00  0.00    +0.115 C 
ATOM      8  C   UNL     1      -3.039   3.798   3.997  0.00  0.00    -0.010 C 
ATOM      9  C   UNL     1      -4.530   3.675   3.674  0.00  0.00    -0.082 C 
ATOM     10  N   UNL     1      -5.318   3.919   4.888  0.00  0.00    +0.379 N 
ATOM     11  C   UNL     1      -5.027   2.886   5.889  0.00  0.00    -0.082 C 
ATOM     12  C   UNL     1      -3.556   2.975   6.306  0.00  0.00    -0.010 C 
ATOM     13  H   UNL     1      -5.082   4.825   5.264  0.00  0.00    -0.086 HD
ATOM     14  H   UNL     1      -6.300   3.898   4.660  0.00  0.00    -0.086 HD
ENDROOT
BRANCH   5  15
ATOM     15  C   UNL     1      -0.540   4.022   4.653  0.00  0.00    +0.219 C 
ATOM     16  O   UNL     1      -0.094   3.779   3.551  0.00  0.00    -0.275 OA
ATOM     17  N   UNL     1      -0.454   5.270   5.155  0.00  0.00    -0.309 N 
ATOM     18  H   UNL     1      -0.810   5.463   6.036  0.00  0.00    +0.149 HD
BRANCH  17  19
ATOM     19  C   UNL     1       0.178   6.333   4.370  0.00  0.00    +0.161 C 
BRANCH  19  20
ATOM     20  C   UNL     1       0.146   7.621   5.152  0.00  0.00    +0.077 A 
ATOM     21  C   UNL     1       1.143   8.096   5.930  0.00  0.00    +0.117 A 
ATOM     22  N   UNL     1       0.714   9.284   6.456  0.00  0.00    -0.306 N 
ATOM     23  C   UNL     1       1.299  10.186   7.297  0.00  0.00    +0.092 A 
ATOM     24  C   UNL     1       0.642  11.305   7.669  0.00  0.00    +0.018 A 
ATOM     25  C   UNL     1      -0.656  11.556   7.194  0.00  0.00    +0.005 A 
ATOM     26  C   UNL     1      -1.250  10.665   6.356  0.00  0.00    +0.047 A 
ATOM     27  C   UNL     1      -0.551   9.502   5.976  0.00  0.00    +0.138 A 
ATOM     28  N   UNL     1      -0.871   8.486   5.186  0.00  0.00    -0.231 NA
ENDBRANCH  19  20
ENDBRANCH  17  19
ENDBRANCH   5  15
BRANCH   1  29
ATOM     29  C   UNL     1       0.345   0.001   2.703  0.00  0.00    +0.131 C 
BRANCH  29  36
ATOM     30  C   UNL     1       0.396   1.364   0.155  0.00  0.00    +0.044 C 
ATOM     31  C   UNL     1       0.486  -0.140   0.208  0.00  0.00    -0.047 A 
ATOM     32  C   UNL     1       0.599  -0.867  -0.963  0.00  0.00    +0.003 A 
ATOM     33  C   UNL     1       0.681  -2.246  -0.915  0.00  0.00    +0.000 A 
ATOM     34  C   UNL     1       0.652  -2.898   0.304  0.00  0.00    +0.000 A 
ATOM     35  C   UNL     1       0.540  -2.171   1.474  0.00  0.00    +0.004 A 
ATOM     36  C   UNL     1       0.462  -0.791   1.426  0.00  0.00    -0.036 A 
ENDBRANCH  29  36
ENDBRANCH   1  29
TORSDOF 5
