REMARK  Name = ZINC09542797
REMARK  7 active torsions:
REMARK  status: ('A' for Active; 'I' for Inactive)
REMARK    1  A    between atoms: C_1  and  O_2
REMARK    2  A    between atoms: O_2  and  C_3
REMARK    3  A    between atoms: C_3  and  C_5
REMARK    4  A    between atoms: C_8  and  C_11
REMARK    5  A    between atoms: C_13  and  C_25
REMARK    6  A    between atoms: C_16  and  C_18
REMARK    7  A    between atoms: C_30  and  O_31
REMARK                            x       y       z     vdW  Elec       q    Type
REMARK                         _______ _______ _______ _____ _____    ______ ____
ROOT
ATOM      1  C   UNL     1       2.452   3.933  -0.001  0.00  0.00    +0.081 C 
ATOM      2  C   UNL     1       2.027   4.995  -2.124  0.00  0.00    -0.028 C 
ATOM      3  C   UNL     1       3.327   4.462  -2.735  0.00  0.00    +0.044 C 
ATOM      4  C   UNL     1       3.868   3.353  -1.876  0.00  0.00    +0.040 C 
ATOM      5  N   UNL     1       3.473   3.142  -0.677  0.00  0.00    -0.299 NA
ATOM      6  N   UNL     1       2.252   5.220  -0.683  0.00  0.00    +0.401 N 
ATOM      7  H   UNL     1       3.086   5.806  -0.556  0.00  0.00    -0.081 HD
ATOM      8  H   UNL     1       1.436   5.696  -0.281  0.00  0.00    -0.081 HD
ENDROOT
BRANCH   4   9
ATOM      9  C   UNL     1       4.903   2.466  -2.442  0.00  0.00    -0.003 A 
ATOM     10  C   UNL     1       5.356   2.661  -3.748  0.00  0.00    +0.010 A 
ATOM     11  C   UNL     1       6.327   1.832  -4.269  0.00  0.00    +0.002 A 
ATOM     12  C   UNL     1       6.845   0.802  -3.505  0.00  0.00    +0.015 A 
ATOM     13  C   UNL     1       6.397   0.599  -2.211  0.00  0.00    +0.018 A 
ATOM     14  C   UNL     1       5.429   1.425  -1.675  0.00  0.00    +0.025 A 
ATOM     15 BR   UNL     1       7.112  -0.813  -1.175  0.00  0.00    -0.050 Br
ENDBRANCH   4   9
BRANCH   2  16
ATOM     16  C   UNL     1       1.650   6.295  -2.786  0.00  0.00    -0.018 A 
ATOM     17  C   UNL     1       2.039   7.495  -2.222  0.00  0.00    +0.025 A 
ATOM     18  C   UNL     1       1.696   8.689  -2.832  0.00  0.00    +0.041 A 
ATOM     19  C   UNL     1       0.956   8.684  -4.001  0.00  0.00    +0.023 A 
ATOM     20  C   UNL     1       0.561   7.487  -4.564  0.00  0.00    +0.047 A 
ATOM     21  C   UNL     1       0.907   6.288  -3.957  0.00  0.00    +0.119 A 
ATOM     22 CL   UNL     1       2.190  10.196  -2.125  0.00  0.00    -0.084 Cl
BRANCH  21  23
ATOM     23  O   UNL     1       0.519   5.108  -4.510  0.00  0.00    -0.507 OA
ATOM     24  H   UNL     1      -0.339   4.791  -4.197  0.00  0.00    +0.292 HD
ENDBRANCH  21  23
ENDBRANCH   2  16
BRANCH   1  28
ATOM     25  C   UNL     1      -1.230   1.759   0.017  0.00  0.00    +0.059 A 
ATOM     26  C   UNL     1      -0.013   1.076   0.008  0.00  0.00    +0.015 A 
ATOM     27  C   UNL     1       1.172   1.783   0.000  0.00  0.00    +0.004 A 
ATOM     28  C   UNL     1       1.155   3.167   0.008  0.00  0.00    -0.040 A 
ATOM     29  C   UNL     1      -0.048   3.850   0.023  0.00  0.00    +0.004 A 
ATOM     30  C   UNL     1      -1.240   3.155   0.030  0.00  0.00    +0.015 A 
BRANCH  25  31
ATOM     31  C   UNL     1      -2.502   1.008   0.020  0.00  0.00    +0.339 C 
ATOM     32  O   UNL     1      -2.491  -0.206   0.013  0.00  0.00    -0.245 OA
BRANCH  31  34
ATOM     33  C   UNL     1      -4.886   0.868   0.031  0.00  0.00    +0.280 C 
ATOM     34  O   UNL     1      -3.675   1.670   0.029  0.00  0.00    -0.464 OA
ENDBRANCH  31  34
ENDBRANCH  25  31
ENDBRANCH   1  28
TORSDOF 6
