REMARK  Name = ZINC10151609
REMARK  12 active torsions:
REMARK  status: ('A' for Active; 'I' for Inactive)
REMARK    1  A    between atoms: C_1  and  C_2
REMARK    2  A    between atoms: C_2  and  C_3
REMARK    3  A    between atoms: C_3  and  C_4
REMARK    4  A    between atoms: C_4  and  C_6
REMARK    5  A    between atoms: C_4  and  N_71
REMARK    6  A    between atoms: C_16  and  C_17
REMARK    7  A    between atoms: C_17  and  O_18
REMARK    8  A    between atoms: O_18  and  C_19
REMARK    9  A    between atoms: C_25  and  C_26
REMARK   10  A    between atoms: C_25  and  N_71
REMARK   11  A    between atoms: C_32  and  C_33
REMARK   12  A    between atoms: C_32  and  N_71
REMARK                            x       y       z     vdW  Elec       q    Type
REMARK                         _______ _______ _______ _____ _____    ______ ____
ROOT
ATOM      1  C   UNL     1       5.117  -0.109   2.313  0.00  0.00    +0.023 C 
ENDROOT
BRANCH   1   2
ATOM      2  C   UNL     1       6.435  -0.839   2.350  0.00  0.00    +0.220 C 
ATOM      3  O   UNL     1       7.035  -0.950   3.393  0.00  0.00    -0.274 OA
ATOM      4  N   UNL     1       6.945  -1.367   1.220  0.00  0.00    -0.265 N 
ATOM      5  C   UNL     1       6.774  -2.666   0.768  0.00  0.00    +0.076 A 
ATOM      6  C   UNL     1       6.096  -3.774   1.252  0.00  0.00    +0.028 A 
ATOM      7  C   UNL     1       6.126  -4.960   0.549  0.00  0.00    +0.002 A 
ATOM      8  C   UNL     1       6.832  -5.052  -0.642  0.00  0.00    +0.002 A 
ATOM      9  C   UNL     1       7.511  -3.962  -1.138  0.00  0.00    +0.030 A 
ATOM     10  C   UNL     1       7.490  -2.754  -0.437  0.00  0.00    +0.090 A 
ATOM     11  N   UNL     1       8.046  -1.533  -0.661  0.00  0.00    -0.228 NA
ATOM     12  C   UNL     1       7.727  -0.721   0.301  0.00  0.00    +0.155 A 
BRANCH  12  13
ATOM     13  C   UNL     1       8.161   0.720   0.395  0.00  0.00    +0.303 C 
BRANCH  13  14
ATOM     14  O   UNL     1       7.327   1.524  -0.441  0.00  0.00    -0.484 OA
BRANCH  14  15
ATOM     15  C   UNL     1       7.657   2.836  -0.563  0.00  0.00    +0.121 A 
ATOM     16  C   UNL     1       6.961   3.649  -1.446  0.00  0.00    +0.045 A 
ATOM     17  C   UNL     1       7.300   4.982  -1.569  0.00  0.00    +0.004 A 
ATOM     18  C   UNL     1       8.332   5.508  -0.813  0.00  0.00    +0.000 A 
ATOM     19  C   UNL     1       9.027   4.700   0.068  0.00  0.00    +0.004 A 
ATOM     20  C   UNL     1       8.692   3.365   0.194  0.00  0.00    +0.045 A 
ENDBRANCH  14  15
ENDBRANCH  13  14
ENDBRANCH  12  13
ENDBRANCH   1   2
BRANCH   1  21
ATOM     21  N   UNL     1       4.949   0.635   3.579  0.00  0.00    +0.393 N 
ATOM     22  H   UNL     1       5.801   1.179   3.761  0.00  0.00    -0.080 HD
BRANCH  21  23
ATOM     23  C   UNL     1       3.802   1.562   3.471  0.00  0.00    -0.041 C 
BRANCH  23  24
ATOM     24  C   UNL     1       4.150   2.655   2.494  0.00  0.00    -0.064 A 
ATOM     25  C   UNL     1       4.871   3.756   2.917  0.00  0.00    +0.002 A 
ATOM     26  C   UNL     1       5.194   4.756   2.019  0.00  0.00    +0.000 A 
ATOM     27  C   UNL     1       4.788   4.660   0.701  0.00  0.00    +0.000 A 
ATOM     28  C   UNL     1       4.062   3.562   0.280  0.00  0.00    +0.000 A 
ATOM     29  C   UNL     1       3.743   2.559   1.176  0.00  0.00    +0.002 A 
ENDBRANCH  23  24
ENDBRANCH  21  23
BRANCH  21  30
ATOM     30  C   UNL     1       4.733  -0.309   4.695  0.00  0.00    -0.041 C 
BRANCH  30  31
ATOM     31  C   UNL     1       4.697   0.465   5.988  0.00  0.00    -0.064 A 
ATOM     32  C   UNL     1       5.877   0.802   6.625  0.00  0.00    +0.002 A 
ATOM     33  C   UNL     1       5.844   1.516   7.808  0.00  0.00    +0.000 A 
ATOM     34  C   UNL     1       4.631   1.884   8.360  0.00  0.00    +0.000 A 
ATOM     35  C   UNL     1       3.451   1.542   7.725  0.00  0.00    +0.000 A 
ATOM     36  C   UNL     1       3.484   0.833   6.539  0.00  0.00    +0.002 A 
ENDBRANCH  30  31
ENDBRANCH  21  30
ENDBRANCH   1  21
BRANCH   1  37
ATOM     37  C   UNL     1       3.981  -1.117   2.129  0.00  0.00    -0.006 C 
BRANCH  37  39
ATOM     38  C   UNL     1       2.901  -2.695   0.521  0.00  0.00    +0.004 C 
ATOM     39  C   UNL     1       3.961  -1.603   0.678  0.00  0.00    -0.004 C 
ENDBRANCH  37  39
ENDBRANCH   1  37
TORSDOF 11
