REMARK  Name = ZINC28964290
REMARK  6 active torsions:
REMARK  status: ('A' for Active; 'I' for Inactive)
REMARK    1  A    between atoms: C_1  and  N_2
REMARK    2  A    between atoms: N_2  and  C_3
REMARK    3  A    between atoms: N_2  and  C_9
REMARK    4  A    between atoms: C_12  and  C_16
REMARK    5  A    between atoms: N_23  and  C_29
REMARK    6  A    between atoms: C_25  and  C_26
REMARK                            x       y       z     vdW  Elec       q    Type
REMARK                         _______ _______ _______ _____ _____    ______ ____
ROOT
ATOM      1  C   UNL     1      -6.745   3.544   1.347  0.00  0.00    +0.022 A 
ATOM      2  C   UNL     1      -6.350   4.833   1.725  0.00  0.00    +0.012 A 
ATOM      3  C   UNL     1      -5.047   5.094   2.034  0.00  0.00    +0.013 A 
ATOM      4  C   UNL     1      -4.103   4.071   1.977  0.00  0.00    +0.035 A 
ATOM      5  C   UNL     1      -4.484   2.770   1.592  0.00  0.00    +0.111 A 
ATOM      6  C   UNL     1      -5.814   2.513   1.280  0.00  0.00    +0.157 A 
ATOM      7  F   UNL     1      -6.199   1.272   0.913  0.00  0.00    -0.203 F 
ATOM      8  N   UNL     1      -3.339   2.011   1.631  0.00  0.00    -0.229 N 
ATOM      9  N   UNL     1      -2.327   2.716   1.990  0.00  0.00    -0.160 NA
ATOM     10  C   UNL     1      -2.658   3.970   2.222  0.00  0.00    +0.155 A 
ENDROOT
BRANCH   8  11
ATOM     11  C   UNL     1      -3.282   0.647   1.320  0.00  0.00    +0.067 A 
ATOM     12  C   UNL     1      -4.350  -0.186   1.650  0.00  0.00    +0.031 A 
ATOM     13  C   UNL     1      -4.310  -1.528   1.346  0.00  0.00    +0.052 A 
ATOM     14  C   UNL     1      -3.194  -2.065   0.714  0.00  0.00    +0.169 A 
ATOM     15  C   UNL     1      -2.114  -1.231   0.385  0.00  0.00    +0.065 A 
ATOM     16  C   UNL     1      -2.164   0.128   0.692  0.00  0.00    +0.043 A 
ATOM     17  C   UNL     1      -1.109  -2.089  -0.263  0.00  0.00    +0.167 A 
ATOM     18  N   UNL     1      -1.594  -3.299  -0.290  0.00  0.00    -0.062 NA
ATOM     19  O   UNL     1      -2.876  -3.311   0.305  0.00  0.00    -0.353 OA
ATOM     20  N   UNL     1       0.124  -1.684  -0.754  0.00  0.00    -0.340 N 
ATOM     21  H   UNL     1       0.797  -2.418  -1.221  0.00  0.00    +0.144 HD
ATOM     22  H   UNL     1       0.428  -0.630  -0.676  0.00  0.00    +0.144 HD
ENDBRANCH   8  11
BRANCH   1  26
ATOM     23  C   UNL     1     -10.820   2.777   0.393  0.00  0.00    +0.036 A 
ATOM     24  C   UNL     1     -10.070   3.637  -0.402  0.00  0.00    +0.024 A 
ATOM     25  C   UNL     1      -8.751   3.891  -0.092  0.00  0.00    +0.013 A 
ATOM     26  C   UNL     1      -8.165   3.277   1.015  0.00  0.00    +0.020 A 
ATOM     27  C   UNL     1      -8.920   2.414   1.812  0.00  0.00    +0.133 A 
ATOM     28  C   UNL     1     -10.242   2.168   1.500  0.00  0.00    +0.062 A 
ATOM     29  F   UNL     1      -8.357   1.822   2.888  0.00  0.00    -0.205 F 
BRANCH  23  31
ATOM     30  C   UNL     1     -12.915   1.530   0.841  0.00  0.00    +0.135 C 
ATOM     31  N   UNL     1     -12.158   2.526   0.079  0.00  0.00    -0.303 N 
BRANCH  31  32
ATOM     32  C   UNL     1     -12.771   3.223  -0.959  0.00  0.00    +0.036 A 
ATOM     33  C   UNL     1     -13.414   4.438  -0.724  0.00  0.00    +0.041 A 
ATOM     34  C   UNL     1     -14.005   5.099  -1.780  0.00  0.00    +0.084 A 
ATOM     35  N   UNL     1     -13.977   4.590  -2.997  0.00  0.00    -0.367 N 
ATOM     36  C   UNL     1     -13.384   3.440  -3.260  0.00  0.00    +0.084 A 
ATOM     37  C   UNL     1     -12.765   2.720  -2.260  0.00  0.00    +0.041 A 
ATOM     38  H   UNL     1     -14.458   5.126  -3.829  0.00  0.00    +0.165 HD
ENDBRANCH  31  32
ENDBRANCH  23  31
ENDBRANCH   1  26
BRANCH  10  39
ATOM     39  C   UNL     1      -1.758   5.055   2.650  0.00  0.00    +0.262 C 
ATOM     40  O   UNL     1      -2.197   6.174   2.831  0.00  0.00    -0.269 OA
ATOM     41  N   UNL     1      -0.447   4.807   2.841  0.00  0.00    -0.324 N 
ATOM     42  H   UNL     1       0.226   5.617   3.160  0.00  0.00    +0.145 HD
ATOM     43  H   UNL     1      -0.049   3.794   2.677  0.00  0.00    +0.145 HD
ENDBRANCH  10  39
TORSDOF 5
