REMARK  Name = ZINC36598923
REMARK  16 active torsions:
REMARK  status: ('A' for Active; 'I' for Inactive)
REMARK    1  A    between atoms: C_1  and  C_2
REMARK    2  A    between atoms: C_5  and  C_7
REMARK    3  A    between atoms: C_7  and  N_8
REMARK    4  A    between atoms: N_8  and  C_9
REMARK    5  A    between atoms: C_9  and  C_11
REMARK    6  A    between atoms: C_9  and  C_16
REMARK    7  A    between atoms: N_18  and  C_19
REMARK    8  A    between atoms: C_19  and  C_20
REMARK    9  A    between atoms: C_19  and  C_21
REMARK   10  A    between atoms: C_19  and  C_22
REMARK   11  A    between atoms: C_22  and  C_23
REMARK   12  A    between atoms: C_23  and  C_24
REMARK   13  A    between atoms: C_23  and  C_25
REMARK   14  A    between atoms: C_23  and  C_26
REMARK   15  A    between atoms: C_27  and  C_29
REMARK   16  A    between atoms: C_29  and  C_30
REMARK                            x       y       z     vdW  Elec       q    Type
REMARK                         _______ _______ _______ _____ _____    ______ ____
ROOT
ATOM      1  N   UNL     1       2.798  -2.360  -0.709  0.00  0.00    -0.276 N 
ATOM      2  C   UNL     1       2.488  -3.671  -0.732  0.00  0.00    +0.221 C 
ATOM      3  O   UNL     1       3.245  -4.465  -1.250  0.00  0.00    -0.275 OA
ENDROOT
BRANCH   1   4
ATOM      4  C   UNL     1       1.834  -1.388  -0.188  0.00  0.00    +0.183 C 
BRANCH   4   9
ATOM      5  C   UNL     1      -0.386  -3.216   3.956  0.00  0.00    +0.086 C 
ATOM      6  C   UNL     1       0.583  -2.485   3.062  0.00  0.00    +0.102 A 
ATOM      7  C   UNL     1       1.653  -1.780   3.472  0.00  0.00    +0.045 A 
ATOM      8  C   UNL     1       2.276  -1.268   2.310  0.00  0.00    +0.046 A 
ATOM      9  C   UNL     1       1.549  -1.691   1.260  0.00  0.00    +0.122 A 
ATOM     10  O   UNL     1       0.528  -2.432   1.721  0.00  0.00    -0.463 OA
ENDBRANCH   4   9
ENDBRANCH   1   4
BRANCH   1  11
ATOM     11  C   UNL     1       4.100  -1.907  -1.206  0.00  0.00    +0.229 C 
BRANCH  11  12
ATOM     12  C   UNL     1       4.879  -1.283  -0.076  0.00  0.00    +0.134 A 
ATOM     13  C   UNL     1       6.198  -1.427   0.143  0.00  0.00    +0.047 A 
ATOM     14  C   UNL     1       6.505  -0.675   1.301  0.00  0.00    +0.041 A 
ATOM     15  C   UNL     1       5.355  -0.117   1.720  0.00  0.00    +0.195 A 
ATOM     16  O   UNL     1       4.374  -0.484   0.878  0.00  0.00    -0.465 OA
ENDBRANCH  11  12
BRANCH  11  17
ATOM     17  C   UNL     1       3.895  -0.888  -2.297  0.00  0.00    +0.242 C 
ATOM     18  O   UNL     1       2.779  -0.486  -2.549  0.00  0.00    -0.273 OA
ATOM     19  N   UNL     1       4.951  -0.425  -2.994  0.00  0.00    -0.308 N 
ATOM     20  H   UNL     1       5.844  -0.747  -2.793  0.00  0.00    +0.149 HD
BRANCH  19  21
ATOM     21  C   UNL     1       4.752   0.565  -4.055  0.00  0.00    +0.030 C 
ATOM     22  C   UNL     1       4.093  -0.106  -5.262  0.00  0.00    +0.031 C 
ATOM     23  C   UNL     1       3.849   1.688  -3.541  0.00  0.00    +0.031 C 
BRANCH  21  24
ATOM     24  C   UNL     1       6.104   1.147  -4.471  0.00  0.00    +0.031 C 
BRANCH  24  25
ATOM     25  C   UNL     1       7.050   1.147  -3.268  0.00  0.00    -0.036 C 
ATOM     26  C   UNL     1       7.699  -0.232  -3.131  0.00  0.00    +0.010 C 
ATOM     27  C   UNL     1       8.137   2.203  -3.474  0.00  0.00    +0.010 C 
ATOM     28  C   UNL     1       6.261   1.468  -1.998  0.00  0.00    +0.010 C 
ENDBRANCH  24  25
ENDBRANCH  21  24
ENDBRANCH  19  21
ENDBRANCH  11  17
ENDBRANCH   1  11
BRANCH   2  29
ATOM     29  C   UNL     1       1.200  -4.152  -0.114  0.00  0.00    +0.131 C 
BRANCH  29  30
ATOM     30  C   UNL     1       1.073  -5.640  -0.311  0.00  0.00    -0.035 A 
ATOM     31  C   UNL     1       0.452  -6.136  -1.443  0.00  0.00    +0.008 A 
ATOM     32  C   UNL     1       0.333  -7.500  -1.628  0.00  0.00    +0.050 A 
ATOM     33  C   UNL     1       0.836  -8.376  -0.679  0.00  0.00    +0.166 A 
ATOM     34  C   UNL     1       1.462  -7.877   0.461  0.00  0.00    +0.166 A 
ATOM     35  C   UNL     1       1.582  -6.508   0.637  0.00  0.00    +0.053 A 
ATOM     36  O   UNL     1       1.866  -8.928   1.232  0.00  0.00    -0.453 OA
ATOM     37  C   UNL     1       1.122 -10.064   0.754  0.00  0.00    +0.466 C 
ATOM     38  O   UNL     1       0.849  -9.739  -0.622  0.00  0.00    -0.453 OA
ENDBRANCH  29  30
ENDBRANCH   2  29
TORSDOF 10
