REMARK  Name = ZINC40109886
REMARK  13 active torsions:
REMARK  status: ('A' for Active; 'I' for Inactive)
REMARK    1  A    between atoms: C_1  and  C_2
REMARK    2  A    between atoms: C_5  and  C_8
REMARK    3  A    between atoms: C_8  and  O_9
REMARK    4  A    between atoms: O_9  and  C_10
REMARK    5  A    between atoms: C_13  and  C_16
REMARK    6  A    between atoms: C_16  and  C_18
REMARK    7  A    between atoms: N_22  and  C_32
REMARK    8  A    between atoms: C_23  and  C_25
REMARK    9  A    between atoms: C_32  and  C_33
REMARK   10  A    between atoms: C_33  and  O_34
REMARK   11  A    between atoms: O_34  and  C_35
REMARK   12  A    between atoms: C_35  and  C_36
REMARK   13  A    between atoms: C_36  and  O_37
REMARK                            x       y       z     vdW  Elec       q    Type
REMARK                         _______ _______ _______ _____ _____    ______ ____
ROOT
ATOM      1  C   UNL     1       3.676 -11.119  -0.016  0.00  0.00    +0.076 C 
ATOM      2  C   UNL     1       4.135 -12.383  -0.166  0.00  0.00    +0.249 C 
ATOM      3  C   UNL     1       5.601 -12.350  -0.347  0.00  0.00    +0.288 C 
ATOM      4  O   UNL     1       6.306 -13.326  -0.507  0.00  0.00    -0.266 OA
ATOM      5  N   UNL     1       6.040 -11.079  -0.307  0.00  0.00    -0.281 N 
ATOM      6  C   UNL     1       4.877 -10.206  -0.104  0.00  0.00    +0.147 C 
ATOM      7  O   UNL     1       3.372 -13.500  -0.154  0.00  0.00    -0.282 OA
ENDROOT
BRANCH   6   8
ATOM      8  C   UNL     1       5.034  -9.429   1.177  0.00  0.00    +0.013 A 
ATOM      9  C   UNL     1       5.846  -9.914   2.185  0.00  0.00    +0.008 A 
ATOM     10  C   UNL     1       5.990  -9.202   3.361  0.00  0.00    +0.001 A 
ATOM     11  C   UNL     1       5.321  -8.004   3.530  0.00  0.00    +0.003 A 
ATOM     12  C   UNL     1       4.509  -7.517   2.525  0.00  0.00    +0.039 A 
ATOM     13  C   UNL     1       4.368  -8.227   1.344  0.00  0.00    +0.129 A 
ATOM     14  F   UNL     1       3.578  -7.749   0.358  0.00  0.00    -0.205 F 
ENDBRANCH   6   8
BRANCH   1  15
ATOM     15  C   UNL     1       2.282 -10.712   0.188  0.00  0.00    +0.195 C 
ATOM     16  O   UNL     1       1.704 -11.016   1.215  0.00  0.00    -0.287 OA
BRANCH  15  20
ATOM     17  C   UNL     1       0.263  -8.475  -2.804  0.00  0.00    +0.121 A 
ATOM     18  C   UNL     1      -0.419  -8.880  -1.662  0.00  0.00    +0.046 A 
ATOM     19  C   UNL     1       0.231  -9.605  -0.690  0.00  0.00    +0.015 A 
ATOM     20  C   UNL     1       1.581  -9.935  -0.852  0.00  0.00    +0.022 A 
ATOM     21  C   UNL     1       2.263  -9.526  -2.002  0.00  0.00    +0.015 A 
ATOM     22  C   UNL     1       1.603  -8.805  -2.971  0.00  0.00    +0.046 A 
BRANCH  17  23
ATOM     23  O   UNL     1      -0.382  -7.760  -3.760  0.00  0.00    -0.487 OA
BRANCH  23  24
ATOM     24  C   UNL     1      -1.758  -7.455  -3.524  0.00  0.00    +0.264 C 
BRANCH  24  29
ATOM     25  C   UNL     1      -3.850  -4.414  -7.971  0.00  0.00    +0.044 C 
ATOM     26  C   UNL     1      -3.304  -5.207  -6.811  0.00  0.00    -0.050 A 
ATOM     27  C   UNL     1      -3.372  -6.588  -6.825  0.00  0.00    +0.004 A 
ATOM     28  C   UNL     1      -2.872  -7.315  -5.761  0.00  0.00    +0.007 A 
ATOM     29  C   UNL     1      -2.303  -6.662  -4.684  0.00  0.00    -0.010 A 
ATOM     30  C   UNL     1      -2.234  -5.281  -4.671  0.00  0.00    +0.007 A 
ATOM     31  C   UNL     1      -2.730  -4.554  -5.736  0.00  0.00    +0.004 A 
ENDBRANCH  24  29
ENDBRANCH  23  24
ENDBRANCH  17  23
ENDBRANCH  15  20
ENDBRANCH   1  15
BRANCH   5  32
ATOM     32  C   UNL     1       7.431 -10.642  -0.449  0.00  0.00    +0.137 C 
BRANCH  32  33
ATOM     33  C   UNL     1       7.737 -10.384  -1.925  0.00  0.00    +0.179 C 
BRANCH  33  34
ATOM     34  O   UNL     1       6.948  -9.287  -2.391  0.00  0.00    -0.376 OA
BRANCH  34  35
ATOM     35  C   UNL     1       7.159  -8.962  -3.766  0.00  0.00    +0.187 C 
BRANCH  35  36
ATOM     36  C   UNL     1       6.267  -7.780  -4.153  0.00  0.00    +0.184 C 
BRANCH  36  37
ATOM     37  O   UNL     1       6.671  -6.620  -3.424  0.00  0.00    -0.393 OA
ATOM     38  H   UNL     1       6.147  -5.830  -3.619  0.00  0.00    +0.209 HD
ENDBRANCH  36  37
ENDBRANCH  35  36
ENDBRANCH  34  35
ENDBRANCH  33  34
ENDBRANCH  32  33
ENDBRANCH   5  32
TORSDOF 12
