REMARK  Name = ZINC06190482
REMARK  12 active torsions:
REMARK  status: ('A' for Active; 'I' for Inactive)
REMARK    1  A    between atoms: C_1  and  C_2
REMARK    2  A    between atoms: C_2  and  C_3
REMARK    3  A    between atoms: C_2  and  C_4
REMARK    4  A    between atoms: C_4  and  C_5
REMARK    5  A    between atoms: C_5  and  C_7
REMARK    6  A    between atoms: C_5  and  N_17
REMARK    7  A    between atoms: N_9  and  C_10
REMARK    8  A    between atoms: C_10  and  C_11
REMARK    9  A    between atoms: N_17  and  C_18
REMARK   10  A    between atoms: C_25  and  C_27
REMARK   11  A    between atoms: C_27  and  N_28
REMARK   12  A    between atoms: C_30  and  C_33
REMARK                            x       y       z     vdW  Elec       q    Type
REMARK                         _______ _______ _______ _____ _____    ______ ____
ROOT
ATOM      1  N   UNL     1      -1.486  -0.796  -2.418  0.00  0.00    -0.255 N 
ATOM      2  C   UNL     1      -0.931  -0.061  -3.403  0.00  0.00    +0.244 C 
ATOM      3  O   UNL     1      -0.971   1.150  -3.352  0.00  0.00    -0.273 OA
ENDROOT
BRANCH   1   4
ATOM      4  C   UNL     1      -1.440  -2.194  -2.477  0.00  0.00    +0.072 A 
ATOM      5  C   UNL     1      -2.459  -2.897  -3.106  0.00  0.00    +0.026 A 
ATOM      6  C   UNL     1      -2.411  -4.277  -3.163  0.00  0.00    +0.002 A 
ATOM      7  C   UNL     1      -1.351  -4.958  -2.595  0.00  0.00    +0.003 A 
ATOM      8  C   UNL     1      -0.334  -4.263  -1.968  0.00  0.00    +0.040 A 
ATOM      9  C   UNL     1      -0.372  -2.881  -1.912  0.00  0.00    +0.145 A 
ATOM     10  F   UNL     1       0.625  -2.201  -1.304  0.00  0.00    -0.204 F 
ENDBRANCH   1   4
BRANCH   1  11
ATOM     11  C   UNL     1      -2.135  -0.131  -1.286  0.00  0.00    +0.167 C 
BRANCH  11  12
ATOM     12  C   UNL     1      -3.583  -0.545  -1.223  0.00  0.00    +0.234 C 
ATOM     13  O   UNL     1      -4.028  -1.319  -2.044  0.00  0.00    -0.274 OA
ATOM     14  N   UNL     1      -4.383  -0.056  -0.256  0.00  0.00    -0.311 N 
ATOM     15  H   UNL     1      -4.027   0.564   0.401  0.00  0.00    +0.149 HD
BRANCH  14  16
ATOM     16  C   UNL     1      -5.790  -0.458  -0.195  0.00  0.00    +0.135 C 
BRANCH  16  17
ATOM     17  C   UNL     1      -6.469   0.236   0.988  0.00  0.00    +0.135 C 
ATOM     18  C   UNL     1      -7.919  -0.274   1.133  0.00  0.00    +0.035 C 
ATOM     19  C   UNL     1      -8.688   1.022   1.508  0.00  0.00    +0.031 C 
ATOM     20  C   UNL     1      -7.897   2.079   0.697  0.00  0.00    +0.160 C 
ATOM     21  O   UNL     1      -6.526   1.648   0.755  0.00  0.00    -0.375 OA
ENDBRANCH  16  17
ENDBRANCH  14  16
ENDBRANCH  11  12
BRANCH  11  22
ATOM     22  C   UNL     1      -1.433  -0.534   0.013  0.00  0.00    +0.035 C 
BRANCH  22  24
ATOM     23  C   UNL     1      -0.019   1.526   0.010  0.00  0.00    +0.007 C 
ATOM     24  C   UNL     1       0.002  -0.004   0.002  0.00  0.00    -0.015 C 
ATOM     25  C   UNL     1       0.742  -0.511   1.242  0.00  0.00    +0.007 C 
ENDBRANCH  22  24
ENDBRANCH  11  22
ENDBRANCH   1  11
BRANCH   2  26
ATOM     26  C   UNL     1      -0.263  -0.745  -4.568  0.00  0.00    +0.264 C 
BRANCH  26  27
ATOM     27  N   UNL     1       0.256   0.265  -5.494  0.00  0.00    -0.154 N 
ATOM     28  N   UNL     1      -0.396   0.774  -6.482  0.00  0.00    -0.130 NA
ATOM     29  C   UNL     1       0.395   1.642  -7.082  0.00  0.00    +0.205 A 
ATOM     30  N   UNL     1       1.555   1.633  -6.411  0.00  0.00    -0.108 NA
ATOM     31  N   UNL     1       1.432   0.786  -5.446  0.00  0.00    -0.045 NA
BRANCH  29  32
ATOM     32  C   UNL     1       0.065   2.468  -8.271  0.00  0.00    +0.023 A 
ATOM     33  C   UNL     1      -1.193   2.371  -8.861  0.00  0.00    +0.014 A 
ATOM     34  C   UNL     1      -1.496   3.141  -9.966  0.00  0.00    +0.039 A 
ATOM     35  C   UNL     1      -0.551   4.009 -10.488  0.00  0.00    +0.123 A 
ATOM     36  C   UNL     1       0.702   4.108  -9.904  0.00  0.00    +0.039 A 
ATOM     37  C   UNL     1       1.010   3.346  -8.795  0.00  0.00    +0.014 A 
ATOM     38  F   UNL     1      -0.851   4.760 -11.570  0.00  0.00    -0.205 F 
ENDBRANCH  29  32
ENDBRANCH  26  27
ENDBRANCH   2  26
TORSDOF 10
