REMARK  Name = ZINC09597470
REMARK  12 active torsions:
REMARK  status: ('A' for Active; 'I' for Inactive)
REMARK    1  A    between atoms: C_1  and  C_2
REMARK    2  A    between atoms: C_2  and  C_3
REMARK    3  A    between atoms: C_6  and  C_9
REMARK    4  A    between atoms: C_14  and  C_26
REMARK    5  A    between atoms: C_20  and  C_24
REMARK    6  A    between atoms: C_20  and  C_25
REMARK    7  A    between atoms: C_28  and  O_36
REMARK    8  A    between atoms: C_29  and  O_34
REMARK    9  A    between atoms: C_31  and  O_32
REMARK   10  A    between atoms: O_32  and  C_33
REMARK   11  A    between atoms: O_34  and  C_35
REMARK   12  A    between atoms: O_36  and  C_37
REMARK                            x       y       z     vdW  Elec       q    Type
REMARK                         _______ _______ _______ _____ _____    ______ ____
ROOT
ATOM      1  C   UNL     1       2.788  -2.093   4.844  0.00  0.00    +0.072 A 
ATOM      2  N   UNL     1       3.646  -3.143   5.004  0.00  0.00    -0.275 N 
ATOM      3  N   UNL     1       4.073  -3.155   6.338  0.00  0.00    -0.153 NA
ATOM      4  C   UNL     1       3.497  -2.148   6.974  0.00  0.00    +0.179 A 
ATOM      5  C   UNL     1       2.688  -1.465   6.043  0.00  0.00    +0.036 A 
ATOM      6  C   UNL     1       1.918  -0.256   6.525  0.00  0.00    +0.093 C 
ATOM      7  C   UNL     1       2.103   0.107   7.987  0.00  0.00    +0.028 C 
ATOM      8  C   UNL     1       2.962  -0.697   8.769  0.00  0.00    +0.052 C 
ATOM      9  N   UNL     1       3.579  -1.728   8.267  0.00  0.00    -0.231 NA
ATOM     10  C   UNL     1       3.169  -0.365  10.229  0.00  0.00    +0.062 C 
ATOM     11  C   UNL     1       3.004   1.144  10.429  0.00  0.00    -0.023 C 
ATOM     12  C   UNL     1       1.614   1.559   9.938  0.00  0.00    +0.086 C 
ATOM     13  C   UNL     1       1.459   1.164   8.494  0.00  0.00    +0.162 C 
ATOM     14  O   UNL     1       0.652   1.894   7.693  0.00  0.00    -0.292 OA
ATOM     15  C   UNL     1       3.145   1.483  11.915  0.00  0.00    +0.011 C 
ATOM     16  C   UNL     1       4.074   1.887   9.627  0.00  0.00    +0.011 C 
ATOM     17  H   UNL     1       3.913  -3.771   4.315  0.00  0.00    +0.189 HD
ENDROOT
BRANCH   1  21
ATOM     18  C   UNL     1       0.808  -0.985   1.252  0.00  0.00    -0.048 A 
ATOM     19  C   UNL     1       0.797  -2.305   1.665  0.00  0.00    +0.004 A 
ATOM     20  C   UNL     1       1.438  -2.671   2.831  0.00  0.00    +0.010 A 
ATOM     21  C   UNL     1       2.099  -1.707   3.593  0.00  0.00    +0.000 A 
ATOM     22  C   UNL     1       2.107  -0.378   3.170  0.00  0.00    +0.010 A 
ATOM     23  C   UNL     1       1.466  -0.025   2.000  0.00  0.00    +0.004 A 
BRANCH  18  25
ATOM     24  C   UNL     1       1.078  -0.708  -1.198  0.00  0.00    +0.009 C 
ATOM     25  C   UNL     1       0.106  -0.592  -0.022  0.00  0.00    +0.032 C 
ENDBRANCH  18  25
ENDBRANCH   1  21
BRANCH   6  26
ATOM     26  C   UNL     1       0.451  -0.507   6.288  0.00  0.00    +0.010 A 
ATOM     27  C   UNL     1      -0.170  -1.589   6.886  0.00  0.00    +0.057 A 
ATOM     28  C   UNL     1      -1.518  -1.822   6.670  0.00  0.00    +0.162 A 
ATOM     29  C   UNL     1      -2.249  -0.966   5.851  0.00  0.00    +0.165 A 
ATOM     30  C   UNL     1      -1.626   0.117   5.254  0.00  0.00    +0.095 A 
ATOM     31  C   UNL     1      -0.277   0.350   5.477  0.00  0.00    +0.128 A 
BRANCH  31  32
ATOM     32  O   UNL     1       0.334   1.416   4.895  0.00  0.00    -0.495 OA
ATOM     33  C   UNL     1      -0.475   2.258   4.071  0.00  0.00    +0.277 C 
ENDBRANCH  31  32
BRANCH  29  34
ATOM     34  O   UNL     1      -3.572  -1.193   5.638  0.00  0.00    -0.491 OA
ATOM     35  C   UNL     1      -4.259  -0.273   4.787  0.00  0.00    +0.277 C 
ENDBRANCH  29  34
BRANCH  28  36
ATOM     36  O   UNL     1      -2.127  -2.887   7.258  0.00  0.00    -0.491 OA
ATOM     37  C   UNL     1      -1.316  -3.724   8.085  0.00  0.00    +0.277 C 
ENDBRANCH  28  36
ENDBRANCH   6  26
TORSDOF 6
