REMARK  Name = ZINC35523160
REMARK  6 active torsions:
REMARK  status: ('A' for Active; 'I' for Inactive)
REMARK    1  A    between atoms: C_4  and  C_7
REMARK    2  A    between atoms: C_7  and  N_8
REMARK    3  A    between atoms: C_11  and  N_14
REMARK    4  A    between atoms: C_15  and  C_17
REMARK    5  A    between atoms: C_17  and  N_18
REMARK    6  A    between atoms: C_26  and  C_28
REMARK                            x       y       z     vdW  Elec       q    Type
REMARK                         _______ _______ _______ _____ _____    ______ ____
ROOT
ATOM      1  N   UNL     1       5.449  -2.776   4.914  0.00  0.00    -0.312 N 
ATOM      2  C   UNL     1       6.370  -3.698   5.258  0.00  0.00    +0.227 C 
ATOM      3  O   UNL     1       6.842  -4.429   4.414  0.00  0.00    -0.274 OA
ATOM      4  H   UNL     1       5.071  -2.192   5.589  0.00  0.00    +0.149 HD
ENDROOT
BRANCH   1   8
ATOM      5  N   UNL     1       4.153  -0.953   1.342  0.00  0.00    +0.382 N 
ATOM      6  C   UNL     1       3.203  -1.854   2.005  0.00  0.00    -0.077 C 
ATOM      7  C   UNL     1       3.614  -2.050   3.466  0.00  0.00    +0.003 C 
ATOM      8  C   UNL     1       5.019  -2.657   3.518  0.00  0.00    +0.069 C 
ATOM      9  C   UNL     1       5.987  -1.746   2.760  0.00  0.00    +0.003 C 
ATOM     10  C   UNL     1       5.489  -1.562   1.325  0.00  0.00    -0.077 C 
ATOM     11  H   UNL     1       4.190  -0.078   1.843  0.00  0.00    -0.081 HD
BRANCH   5  12
ATOM     12  C   UNL     1       3.711  -0.707  -0.038  0.00  0.00    -0.043 C 
BRANCH  12  16
ATOM     13  C   UNL     1      -0.017   1.378   0.010  0.00  0.00    +0.000 A 
ATOM     14  C   UNL     1       1.171   2.086   0.002  0.00  0.00    +0.000 A 
ATOM     15  C   UNL     1       2.377   1.411  -0.013  0.00  0.00    +0.002 A 
ATOM     16  C   UNL     1       2.396   0.029  -0.020  0.00  0.00    -0.064 A 
ATOM     17  C   UNL     1       1.208  -0.679  -0.012  0.00  0.00    +0.002 A 
ATOM     18  C   UNL     1       0.002  -0.004   0.002  0.00  0.00    +0.000 A 
ENDBRANCH  12  16
ENDBRANCH   5  12
ENDBRANCH   1   8
BRANCH   2  19
ATOM     19  C   UNL     1       6.813  -3.821   6.694  0.00  0.00    +0.181 C 
BRANCH  19  20
ATOM     20  N   UNL     1       7.814  -4.889   6.808  0.00  0.00    -0.280 NA
ATOM     21  C   UNL     1       9.045  -4.537   6.087  0.00  0.00    +0.107 C 
ATOM     22  C   UNL     1       9.910  -5.788   5.893  0.00  0.00    +0.137 C 
ATOM     23  N   UNL     1      10.046  -6.457   7.192  0.00  0.00    -0.348 N 
ATOM     24  C   UNL     1      10.951  -7.401   7.557  0.00  0.00    +0.086 A 
ATOM     25  C   UNL     1      10.716  -7.736   8.844  0.00  0.00    +0.019 A 
ATOM     26  C   UNL     1       9.619  -6.967   9.288  0.00  0.00    +0.024 A 
ATOM     27  C   UNL     1       9.229  -6.197   8.261  0.00  0.00    +0.041 A 
ATOM     28  C   UNL     1       8.096  -5.201   8.220  0.00  0.00    +0.135 C 
BRANCH  28  29
ATOM     29  C   UNL     1       6.870  -5.795   8.865  0.00  0.00    -0.023 A 
ATOM     30  C   UNL     1       6.093  -6.701   8.167  0.00  0.00    +0.007 A 
ATOM     31  C   UNL     1       4.969  -7.247   8.757  0.00  0.00    +0.022 A 
ATOM     32  C   UNL     1       4.621  -6.888  10.046  0.00  0.00    +0.059 A 
ATOM     33  C   UNL     1       5.399  -5.981  10.746  0.00  0.00    +0.060 A 
ATOM     34  C   UNL     1       6.527  -5.440  10.155  0.00  0.00    +0.027 A 
ATOM     35 CL   UNL     1       4.964  -5.529  12.364  0.00  0.00    -0.082 Cl
ATOM     36 CL   UNL     1       3.208  -7.572  10.788  0.00  0.00    -0.082 Cl
ENDBRANCH  28  29
ENDBRANCH  19  20
ENDBRANCH   2  19
TORSDOF 6
