REMARK  Name = ZINC36057166
REMARK  9 active torsions:
REMARK  status: ('A' for Active; 'I' for Inactive)
REMARK    1  A    between atoms: C_1  and  C_2
REMARK    2  A    between atoms: C_5  and  C_8
REMARK    3  A    between atoms: C_8  and  N_9
REMARK    4  A    between atoms: N_9  and  C_10
REMARK    5  A    between atoms: C_10  and  C_12
REMARK    6  A    between atoms: C_10  and  C_13
REMARK    7  A    between atoms: N_15  and  C_16
REMARK    8  A    between atoms: C_25  and  C_27
REMARK    9  A    between atoms: C_27  and  N_28
REMARK                            x       y       z     vdW  Elec       q    Type
REMARK                         _______ _______ _______ _____ _____    ______ ____
ROOT
ATOM      1  N   UNL     1       1.665  -4.882  -0.233  0.00  0.00    -0.284 N 
ATOM      2  C   UNL     1       2.436  -5.142  -1.308  0.00  0.00    +0.238 C 
ATOM      3  O   UNL     1       3.582  -5.508  -1.157  0.00  0.00    -0.274 OA
ENDROOT
BRANCH   1   4
ATOM      4  C   UNL     1       2.171  -5.155   1.115  0.00  0.00    +0.159 C 
ATOM      5  C   UNL     1       2.077  -3.884   1.962  0.00  0.00    +0.038 C 
BRANCH   4   6
ATOM      6  C   UNL     1       1.347  -6.245   1.750  0.00  0.00    +0.237 C 
ATOM      7  O   UNL     1       0.427  -6.744   1.137  0.00  0.00    -0.273 OA
ATOM      8  N   UNL     1       1.631  -6.664   2.998  0.00  0.00    -0.284 N 
ATOM      9  H   UNL     1       2.319  -6.216   3.516  0.00  0.00    +0.155 HD
BRANCH   8  10
ATOM     10  C   UNL     1       0.934  -7.747   3.550  0.00  0.00    +0.037 A 
ATOM     11  C   UNL     1       0.666  -7.780   4.912  0.00  0.00    +0.027 A 
ATOM     12  C   UNL     1      -0.022  -8.847   5.457  0.00  0.00    +0.051 A 
ATOM     13  C   UNL     1      -0.446  -9.888   4.646  0.00  0.00    +0.166 A 
ATOM     14  C   UNL     1      -0.179  -9.858   3.279  0.00  0.00    +0.168 A 
ATOM     15  C   UNL     1       0.506  -8.785   2.733  0.00  0.00    +0.072 A 
ATOM     16  O   UNL     1      -0.695 -10.986   2.709  0.00  0.00    -0.453 OA
ATOM     17  C   UNL     1      -0.920 -11.899   3.799  0.00  0.00    +0.466 C 
ATOM     18  O   UNL     1      -1.129 -11.035   4.931  0.00  0.00    -0.453 OA
ENDBRANCH   8  10
ENDBRANCH   4   6
ENDBRANCH   1   4
BRANCH   1  19
ATOM     19  C   UNL     1       0.322  -4.326  -0.412  0.00  0.00    +0.143 C 
BRANCH  19  24
ATOM     20  C   UNL     1       0.562   1.440  -0.110  0.00  0.00    +0.044 C 
ATOM     21  C   UNL     1       0.499  -0.064  -0.189  0.00  0.00    -0.050 A 
ATOM     22  C   UNL     1       0.821  -0.708  -1.369  0.00  0.00    +0.003 A 
ATOM     23  C   UNL     1       0.763  -2.088  -1.441  0.00  0.00    +0.005 A 
ATOM     24  C   UNL     1       0.385  -2.823  -0.333  0.00  0.00    -0.030 A 
ATOM     25  C   UNL     1       0.065  -2.178   0.847  0.00  0.00    +0.005 A 
ATOM     26  C   UNL     1       0.126  -0.799   0.921  0.00  0.00    +0.003 A 
ENDBRANCH  19  24
ENDBRANCH   1  19
BRANCH   2  27
ATOM     27  C   UNL     1       1.873  -4.977  -2.696  0.00  0.00    +0.241 C 
BRANCH  27  28
ATOM     28  N   UNL     1       2.835  -5.486  -3.676  0.00  0.00    -0.235 N 
ATOM     29  C   UNL     1       3.839  -4.776  -4.290  0.00  0.00    +0.090 A 
ATOM     30  C   UNL     1       4.270  -3.455  -4.221  0.00  0.00    +0.029 A 
ATOM     31  C   UNL     1       5.329  -3.045  -4.982  0.00  0.00    +0.002 A 
ATOM     32  C   UNL     1       5.979  -3.936  -5.825  0.00  0.00    +0.002 A 
ATOM     33  C   UNL     1       5.576  -5.236  -5.912  0.00  0.00    +0.032 A 
ATOM     34  C   UNL     1       4.493  -5.682  -5.142  0.00  0.00    +0.113 A 
ATOM     35  N   UNL     1       3.881  -6.876  -5.017  0.00  0.00    -0.129 NA
ATOM     36  N   UNL     1       2.917  -6.797  -4.168  0.00  0.00    -0.064 NA
ENDBRANCH  27  28
ENDBRANCH   2  27
TORSDOF 7
