REMARK  Name = ZINC64165288
REMARK  9 active torsions:
REMARK  status: ('A' for Active; 'I' for Inactive)
REMARK    1  A    between atoms: C_1  and  C_2
REMARK    2  A    between atoms: C_2  and  N_3
REMARK    3  A    between atoms: C_16  and  C_18
REMARK    4  A    between atoms: C_20  and  O_37
REMARK    5  A    between atoms: C_22  and  O_36
REMARK    6  A    between atoms: N_24  and  C_27
REMARK    7  A    between atoms: C_28  and  C_35
REMARK    8  A    between atoms: C_30  and  C_34
REMARK    9  A    between atoms: C_32  and  C_33
REMARK                            x       y       z     vdW  Elec       q    Type
REMARK                         _______ _______ _______ _____ _____    ______ ____
ROOT
ATOM      1  C   UNL     1      -1.585  -1.825  -1.549  0.00  0.00    +0.180 C 
ATOM      2  C   UNL     1      -2.501  -1.011  -2.416  0.00  0.00    +0.200 C 
ATOM      3  N   UNL     1      -3.180  -0.025  -1.973  0.00  0.00    -0.204 NA
ATOM      4  C   UNL     1      -3.153   0.432  -0.594  0.00  0.00    +0.338 C 
ATOM      5  N   UNL     1      -2.665  -0.595   0.315  0.00  0.00    -0.225 N 
ATOM      6  C   UNL     1      -1.936  -1.634  -0.101  0.00  0.00    +0.237 C 
ATOM      7  O   UNL     1      -1.547  -2.443   0.715  0.00  0.00    -0.274 OA
ENDROOT
BRANCH   1  20
ATOM      8  N   UNL     1       0.755  -2.096  -0.858  0.00  0.00    -0.296 NA
ATOM      9  C   UNL     1       2.175  -1.841  -1.111  0.00  0.00    +0.089 C 
ATOM     10  C   UNL     1       2.506  -0.361  -0.849  0.00  0.00    +0.049 C 
ATOM     11  C   UNL     1       1.478   0.440  -1.609  0.00  0.00    -0.036 C 
ATOM     12  C   UNL     1       1.584   1.459  -2.450  0.00  0.00    -0.001 A 
ATOM     13  C   UNL     1       2.734   2.282  -2.856  0.00  0.00    +0.010 A 
ATOM     14  C   UNL     1       2.484   3.248  -3.780  0.00  0.00    +0.001 A 
ATOM     15  C   UNL     1       1.221   3.474  -4.334  0.00  0.00    +0.002 A 
ATOM     16  C   UNL     1       0.105   2.773  -4.011  0.00  0.00    +0.026 A 
ATOM     17  C   UNL     1       0.239   1.736  -3.042  0.00  0.00    +0.043 A 
ATOM     18  N   UNL     1      -0.656   0.940  -2.533  0.00  0.00    -0.376 N 
ATOM     19  C   UNL     1      -0.010   0.119  -1.511  0.00  0.00    +0.125 C 
ATOM     20  C   UNL     1      -0.140  -1.381  -1.783  0.00  0.00    +0.104 C 
ATOM     21  H   UNL     1      -1.591   0.899  -2.788  0.00  0.00    +0.160 HD
BRANCH   8  23
ATOM     22  C   UNL     1       1.179  -4.197   0.326  0.00  0.00    +0.020 C 
ATOM     23  C   UNL     1       0.470  -3.537  -0.858  0.00  0.00    +0.081 C 
ENDBRANCH   8  23
ENDBRANCH   1  20
BRANCH   5  24
ATOM     24  C   UNL     1      -2.972  -0.488   1.676  0.00  0.00    +0.046 A 
ATOM     25  C   UNL     1      -2.176   0.287   2.510  0.00  0.00    -0.028 A 
ATOM     26  C   UNL     1      -2.482   0.390   3.853  0.00  0.00    +0.008 A 
ATOM     27  C   UNL     1      -3.578  -0.277   4.367  0.00  0.00    -0.050 A 
ATOM     28  C   UNL     1      -4.371  -1.050   3.540  0.00  0.00    +0.008 A 
ATOM     29  C   UNL     1      -4.075  -1.153   2.195  0.00  0.00    -0.028 A 
ATOM     30  C   UNL     1      -4.945  -1.990   1.293  0.00  0.00    +0.046 C 
ATOM     31  C   UNL     1      -3.908  -0.163   5.833  0.00  0.00    +0.044 C 
ATOM     32  C   UNL     1      -0.981   1.014   1.950  0.00  0.00    +0.046 C 
ENDBRANCH   5  24
BRANCH   4  33
ATOM     33  O   UNL     1      -2.299   1.575  -0.501  0.00  0.00    -0.356 OA
ATOM     34  H   UNL     1      -2.546   2.299  -1.092  0.00  0.00    +0.214 HD
ENDBRANCH   4  33
BRANCH   2  35
ATOM     35  O   UNL     1      -2.610  -1.336  -3.721  0.00  0.00    -0.495 OA
ATOM     36  H   UNL     1      -3.217  -0.770  -4.217  0.00  0.00    +0.293 HD
ENDBRANCH   2  35
TORSDOF 5
