REMARK  Name = ZINC03591103
REMARK  5 active torsions:
REMARK  status: ('A' for Active; 'I' for Inactive)
REMARK    1  A    between atoms: C_2  and  O_14
REMARK    2  A    between atoms: C_4  and  O_13
REMARK    3  A    between atoms: C_6  and  C_9
REMARK    4  A    between atoms: C_9  and  O_10
REMARK    5  A    between atoms: O_10  and  P_11
REMARK                            x       y       z     vdW  Elec       q    Type
REMARK                         _______ _______ _______ _____ _____    ______ ____
ROOT
ATOM      1  C   UNL     1       1.183   7.324  -1.348  0.00  0.00    +0.194 C 
ATOM      2  C   UNL     1       2.622   7.728  -0.961  0.00  0.00    +0.171 C 
ATOM      3  C   UNL     1       3.122   6.551  -0.091  0.00  0.00    +0.176 C 
ATOM      4  C   UNL     1       1.925   5.575  -0.060  0.00  0.00    +0.175 C 
ATOM      5  O   UNL     1       1.164   5.883  -1.248  0.00  0.00    -0.369 OA
ENDROOT
BRANCH   3   6
ATOM      6  O   UNL     1       3.437   6.999   1.229  0.00  0.00    -0.387 OA
ATOM      7  H   UNL     1       4.182   7.615   1.268  0.00  0.00    +0.210 HD
ENDBRANCH   3   6
BRANCH   2   8
ATOM      8  O   UNL     1       2.616   8.941  -0.207  0.00  0.00    -0.387 OA
ATOM      9  H   UNL     1       2.255   9.700  -0.686  0.00  0.00    +0.210 HD
ENDBRANCH   2   8
BRANCH   4  10
ATOM     10  C   UNL     1       2.418   4.127  -0.103  0.00  0.00    +0.206 C 
BRANCH  10  11
ATOM     11  O   UNL     1       1.302   3.241   0.007  0.00  0.00    -0.281 OA
BRANCH  11  12
ATOM     12  P   UNL     1       1.451   1.638  -0.003  0.00  0.00    +0.532 P 
ATOM     13  O   UNL     1       2.179   1.217  -1.221  0.00  0.00    -0.222 OA
ATOM     14  O   UNL     1      -0.011   0.963   0.007  0.00  0.00    -0.115 OA
ATOM     15  O   UNL     1       2.268   1.166   1.301  0.00  0.00    -0.115 OA
ENDBRANCH  11  12
ENDBRANCH  10  11
ENDBRANCH   4  10
TORSDOF 5
