REMARK  Name = ZINC24966173
REMARK  4 active torsions:
REMARK  status: ('A' for Active; 'I' for Inactive)
REMARK    1  A    between atoms: C_3  and  C_6
REMARK    2  A    between atoms: C_9  and  S_12
REMARK    3  A    between atoms: S_12  and  C_13
REMARK    4  A    between atoms: C_13  and  C_14
REMARK                            x       y       z     vdW  Elec       q    Type
REMARK                         _______ _______ _______ _____ _____    ______ ____
ROOT
ATOM      1  C   UNL     1       3.795   3.006  -0.193  0.00  0.00    +0.143 A 
ATOM      2  N   UNL     1       4.377   1.819  -0.200  0.00  0.00    -0.216 NA
ATOM      3  C   UNL     1       3.694   0.699  -0.031  0.00  0.00    +0.128 A 
ATOM      4  C   UNL     1       2.287   0.769   0.165  0.00  0.00    +0.051 A 
ATOM      5  C   UNL     1       1.337  -0.330   0.373  0.00  0.00    -0.025 A 
ATOM      6  C   UNL     1       0.042   0.011   0.531  0.00  0.00    -0.004 A 
ATOM      7  S   UNL     1       0.009   1.782   0.422  0.00  0.00    -0.073 S 
ATOM      8  C   UNL     1       1.739   2.066   0.159  0.00  0.00    +0.114 A 
ATOM      9  N   UNL     1       2.494   3.134  -0.017  0.00  0.00    -0.224 NA
ATOM     10  C   UNL     1      -1.127  -0.901   0.738  0.00  0.00    +0.043 C 
ATOM     11  C   UNL     1      -0.797  -1.906   1.850  0.00  0.00    +0.005 C 
ATOM     12  C   UNL     1      -0.148  -3.130   1.212  0.00  0.00    +0.001 C 
ATOM     13  C   UNL     1       0.675  -2.711  -0.004  0.00  0.00    +0.005 C 
ATOM     14  C   UNL     1       1.808  -1.781   0.413  0.00  0.00    +0.037 C 
ATOM     15  N   UNL     1       4.340  -0.525  -0.045  0.00  0.00    -0.343 N 
ATOM     16  H   UNL     1       3.764  -1.452   0.096  0.00  0.00    +0.144 HD
ATOM     17  H   UNL     1       5.428  -0.571  -0.198  0.00  0.00    +0.144 HD
ENDROOT
BRANCH   1  18
ATOM     18  C   UNL     1       4.636   4.240  -0.392  0.00  0.00    +0.153 C 
BRANCH  18  19
ATOM     19  S   UNL     1       4.734   4.627  -2.157  0.00  0.00    -0.079 S 
BRANCH  19  23
ATOM     20  C   UNL     1       6.920   7.830  -2.642  0.00  0.00    +0.189 A 
ATOM     21  N   UNL     1       6.163   6.809  -3.170  0.00  0.00    -0.200 NA
ATOM     22  H   UNL     1       6.135   6.341   0.036  0.00  0.00    +0.191 HD
ATOM     23  C   UNL     1       5.745   6.069  -2.099  0.00  0.00    +0.185 A 
ATOM     24  N   UNL     1       6.237   6.632  -1.020  0.00  0.00    -0.253 N 
ATOM     25  N   UNL     1       6.925   7.670  -1.337  0.00  0.00    -0.151 NA
BRANCH  20  28
ATOM     26  C   UNL     1       8.902  10.822  -3.831  0.00  0.00    +0.008 A 
ATOM     27  C   UNL     1       8.363   9.936  -2.925  0.00  0.00    +0.019 A 
ATOM     28  C   UNL     1       7.596   8.899  -3.394  0.00  0.00    +0.058 A 
ATOM     29  S   UNL     1       7.624   9.190  -5.156  0.00  0.00    -0.093 S 
ATOM     30  C   UNL     1       8.650  10.651  -5.154  0.00  0.00    +0.046 A 
ENDBRANCH  20  28
ENDBRANCH  19  23
ENDBRANCH  18  19
ENDBRANCH   1  18
TORSDOF 4
