REMARK  Name = ZINC04426271
REMARK  8 active torsions:
REMARK  status: ('A' for Active; 'I' for Inactive)
REMARK    1  A    between atoms: C_1  and  C_2
REMARK    2  A    between atoms: C_5  and  C_7
REMARK    3  A    between atoms: C_20  and  C_23
REMARK    4  A    between atoms: C_23  and  C_24
REMARK    5  A    between atoms: C_24  and  C_25
REMARK    6  A    between atoms: C_25  and  C_26
REMARK    7  A    between atoms: C_26  and  C_27
REMARK    8  A    between atoms: C_27  and  N_49
REMARK                            x       y       z     vdW  Elec       q    Type
REMARK                         _______ _______ _______ _____ _____    ______ ____
ROOT
ATOM      1  C   UNL     1      -1.056   2.374  13.562  0.00  0.00    +0.089 A 
ATOM      2  C   UNL     1      -0.439   1.181  13.355  0.00  0.00    +0.210 A 
ATOM      3  O   UNL     1      -0.139   0.705  12.150  0.00  0.00    -0.462 OA
ATOM      4  C   UNL     1      -0.427   1.380  11.023  0.00  0.00    +0.142 A 
ATOM      5  C   UNL     1      -0.094   0.844   9.784  0.00  0.00    +0.093 A 
ATOM      6  C   UNL     1      -0.391   1.539   8.623  0.00  0.00    +0.133 A 
ATOM      7  C   UNL     1      -1.027   2.777   8.684  0.00  0.00    +0.021 A 
ATOM      8  C   UNL     1      -1.361   3.320   9.893  0.00  0.00    +0.025 A 
ATOM      9  C   UNL     1      -1.066   2.631  11.070  0.00  0.00    +0.065 A 
ATOM     10  C   UNL     1      -1.415   3.192  12.388  0.00  0.00    +0.202 A 
ATOM     11  O   UNL     1      -1.968   4.272  12.502  0.00  0.00    -0.286 OA
ATOM     12  C   UNL     1      -1.353   3.531   7.419  0.00  0.00    +0.203 C 
ATOM     13  O   UNL     1      -0.601   2.981   6.334  0.00  0.00    -0.337 OA
ATOM     14  C   UNL     1      -0.681   1.552   6.263  0.00  0.00    +0.308 C 
ATOM     15  O   UNL     1      -0.050   1.001   7.422  0.00  0.00    -0.463 OA
ENDROOT
BRANCH   1  20
ATOM     16  C   UNL     1      -1.169   2.127  18.535  0.00  0.00    +0.066 C 
ATOM     17  C   UNL     1      -1.459   2.820  17.228  0.00  0.00    +0.046 A 
ATOM     18  C   UNL     1      -2.075   4.030  17.222  0.00  0.00    +0.070 A 
ATOM     19  S   UNL     1      -2.154   4.351  15.464  0.00  0.00    -0.075 S 
ATOM     20  C   UNL     1      -1.359   2.841  14.930  0.00  0.00    +0.115 A 
ATOM     21  N   UNL     1      -1.121   2.250  16.093  0.00  0.00    -0.244 NA
ENDBRANCH   1  20
BRANCH  14  22
ATOM     22  C   UNL     1       0.035   1.059   5.005  0.00  0.00    +0.075 C 
BRANCH  22  23
ATOM     23  C   UNL     1      -0.705   1.566   3.765  0.00  0.00    +0.006 C 
BRANCH  23  24
ATOM     24  C   UNL     1       0.011   1.072   2.506  0.00  0.00    -0.002 C 
BRANCH  24  25
ATOM     25  C   UNL     1      -0.729   1.579   1.267  0.00  0.00    -0.020 C 
BRANCH  25  26
ATOM     26  C   UNL     1      -0.013   1.086   0.008  0.00  0.00    -0.086 C 
BRANCH  26  29
ATOM     27  H   UNL     1      -0.269   1.260  -2.027  0.00  0.00    -0.090 HD
ATOM     28  H   UNL     1      -1.692   1.290  -1.166  0.00  0.00    -0.090 HD
ATOM     29  N   UNL     1      -0.721   1.597  -1.179  0.00  0.00    +0.378 N 
ATOM     30  H   UNL     1      -0.694   2.624  -1.171  0.00  0.00    -0.090 HD
ENDBRANCH  26  29
ENDBRANCH  25  26
ENDBRANCH  24  25
ENDBRANCH  23  24
ENDBRANCH  22  23
ENDBRANCH  14  22
TORSDOF 7
