REMARK  Name = ZINC04869996
REMARK  6 active torsions:
REMARK  status: ('A' for Active; 'I' for Inactive)
REMARK    1  A    between atoms: C_1  and  C_2
REMARK    2  A    between atoms: C_2  and  C_3
REMARK    3  A    between atoms: C_2  and  C_4
REMARK    4  A    between atoms: C_9  and  N_10
REMARK    5  A    between atoms: C_11  and  C_13
REMARK    6  A    between atoms: C_13  and  N_14
REMARK                            x       y       z     vdW  Elec       q    Type
REMARK                         _______ _______ _______ _____ _____    ______ ____
ROOT
ATOM      1  N   UNL     1      -2.780  -1.703  -1.728  0.00  0.00    -0.284 N 
ATOM      2  C   UNL     1      -1.650  -1.020  -1.457  0.00  0.00    +0.235 C 
ATOM      3  O   UNL     1      -0.962  -0.602  -2.364  0.00  0.00    -0.274 OA
ATOM      4  H   UNL     1      -3.295  -2.095  -1.005  0.00  0.00    +0.155 HD
ENDROOT
BRANCH   1  10
ATOM      5  C   UNL     1      -4.566  -1.854  -3.346  0.00  0.00    -0.024 A 
ATOM      6  C   UNL     1      -4.986  -1.998  -4.654  0.00  0.00    +0.006 A 
ATOM      7  C   UNL     1      -4.058  -2.135  -5.670  0.00  0.00    +0.000 A 
ATOM      8  C   UNL     1      -2.705  -2.129  -5.379  0.00  0.00    +0.002 A 
ATOM      9  C   UNL     1      -2.279  -1.981  -4.074  0.00  0.00    +0.023 A 
ATOM     10  C   UNL     1      -3.209  -1.848  -3.052  0.00  0.00    +0.037 A 
BRANCH   5  12
ATOM     11  C   UNL     1      -6.509  -0.531  -2.557  0.00  0.00    +0.012 C 
ATOM     12  C   UNL     1      -5.579  -1.704  -2.241  0.00  0.00    +0.015 C 
ATOM     13  C   UNL     1      -6.400  -2.989  -2.123  0.00  0.00    +0.012 C 
ENDBRANCH   5  12
ENDBRANCH   1  10
BRANCH   2  14
ATOM     14  C   UNL     1      -1.242  -0.776  -0.027  0.00  0.00    +0.209 C 
BRANCH  14  15
ATOM     15  N   UNL     1       0.011  -0.017   0.001  0.00  0.00    -0.256 N 
ATOM     16  C   UNL     1       1.246  -0.682   0.013  0.00  0.00    +0.080 A 
ATOM     17  C   UNL     1       1.330  -2.024  -0.320  0.00  0.00    +0.047 A 
ATOM     18  C   UNL     1       2.558  -2.661  -0.301  0.00  0.00    +0.043 A 
ATOM     19  C   UNL     1       3.700  -1.961   0.047  0.00  0.00    +0.024 A 
ATOM     20  C   UNL     1       3.621  -0.621   0.380  0.00  0.00    +0.049 A 
ATOM     21  C   UNL     1       2.396   0.023   0.364  0.00  0.00    +0.143 A 
ATOM     22  O   UNL     1       2.301   1.341   0.685  0.00  0.00    -0.481 OA
ATOM     23  C   UNL     1       1.295   2.097   0.007  0.00  0.00    +0.325 C 
ATOM     24  C   UNL     1      -0.005   1.333   0.016  0.00  0.00    +0.258 C 
ATOM     25  O   UNL     1      -1.061   1.930   0.031  0.00  0.00    -0.271 OA
ATOM     26 CL   UNL     1       2.667  -4.343  -0.718  0.00  0.00    -0.083 Cl
ENDBRANCH  14  15
ENDBRANCH   2  14
TORSDOF 4
