REMARK  Name = ZINC39683738
REMARK  5 active torsions:
REMARK  status: ('A' for Active; 'I' for Inactive)
REMARK    1  A    between atoms: C_5  and  C_7
REMARK    2  A    between atoms: C_7  and  C_8
REMARK    3  A    between atoms: C_8  and  N_9
REMARK    4  A    between atoms: C_10  and  C_12
REMARK    5  A    between atoms: C_23  and  C_25
REMARK                            x       y       z     vdW  Elec       q    Type
REMARK                         _______ _______ _______ _____ _____    ______ ____
ROOT
ATOM      1  C   UNL     1       1.537  -6.353   2.551  0.00  0.00    +0.100 C 
ATOM      2  C   UNL     1       2.692  -6.870   1.664  0.00  0.00    +0.121 C 
ATOM      3  N   UNL     1       3.810  -7.109   2.607  0.00  0.00    -0.297 N 
ATOM      4  C   UNL     1       3.162  -7.685   3.810  0.00  0.00    +0.115 C 
ATOM      5  C   UNL     1       1.847  -6.893   3.958  0.00  0.00    -0.004 C 
ATOM      6  C   UNL     1       0.726  -7.814   4.429  0.00  0.00    -0.010 C 
ATOM      7  C   UNL     1       1.028  -8.291   5.853  0.00  0.00    -0.082 C 
ATOM      8  N   UNL     1       1.144  -7.131   6.745  0.00  0.00    +0.379 N 
ATOM      9  C   UNL     1       2.284  -6.300   6.340  0.00  0.00    -0.082 C 
ATOM     10  C   UNL     1       2.035  -5.738   4.937  0.00  0.00    -0.010 C 
ATOM     11  C   UNL     1       5.121  -6.860   2.415  0.00  0.00    +0.260 C 
ATOM     12  O   UNL     1       5.921  -7.113   3.290  0.00  0.00    -0.271 OA
ATOM     13  H   UNL     1       0.297  -6.585   6.697  0.00  0.00    -0.086 HD
ATOM     14  H   UNL     1       1.283  -7.450   7.692  0.00  0.00    -0.086 HD
ENDROOT
BRANCH  11  15
ATOM     15  C   UNL     1       5.591  -6.267   1.112  0.00  0.00    +0.296 C 
ATOM     16  C   UNL     1       5.348  -7.264  -0.029  0.00  0.00    +0.283 C 
ATOM     17  O   UNL     1       5.818  -6.676  -1.247  0.00  0.00    -0.484 OA
ATOM     18  C   UNL     1       7.044  -6.087  -1.207  0.00  0.00    +0.162 A 
ATOM     19  C   UNL     1       7.712  -5.826  -2.394  0.00  0.00    +0.049 A 
ATOM     20  C   UNL     1       8.957  -5.225  -2.371  0.00  0.00    +0.004 A 
ATOM     21  C   UNL     1       9.539  -4.883  -1.165  0.00  0.00    +0.004 A 
ATOM     22  C   UNL     1       8.879  -5.141   0.022  0.00  0.00    +0.049 A 
ATOM     23  C   UNL     1       7.630  -5.745   0.005  0.00  0.00    +0.163 A 
ATOM     24  O   UNL     1       6.996  -6.000   1.183  0.00  0.00    -0.473 OA
ENDBRANCH  11  15
BRANCH   1  26
ATOM     25  N   UNL     1       0.357  -4.189   2.754  0.00  0.00    -0.315 N 
ATOM     26  C   UNL     1       1.517  -4.846   2.560  0.00  0.00    +0.218 C 
ATOM     27  O   UNL     1       2.545  -4.225   2.392  0.00  0.00    -0.275 OA
ATOM     28  H   UNL     1      -0.466  -4.686   2.888  0.00  0.00    +0.149 HD
BRANCH  25  29
ATOM     29  C   UNL     1       0.337  -2.724   2.763  0.00  0.00    +0.109 C 
BRANCH  29  30
ATOM     30  C   UNL     1      -1.093  -2.235   3.001  0.00  0.00    +0.055 C 
BRANCH  30  35
ATOM     31  C   UNL     1      -1.051   1.339   4.215  0.00  0.00    +0.000 A 
ATOM     32  C   UNL     1      -1.152   2.037   3.026  0.00  0.00    +0.001 A 
ATOM     33  C   UNL     1      -1.233   1.353   1.828  0.00  0.00    +0.015 A 
ATOM     34  C   UNL     1      -1.214  -0.031   1.819  0.00  0.00    +0.021 A 
ATOM     35  C   UNL     1      -1.113  -0.728   3.010  0.00  0.00    -0.032 A 
ATOM     36  C   UNL     1      -1.032  -0.043   4.207  0.00  0.00    +0.005 A 
ATOM     37 BR   UNL     1      -1.327  -0.968   0.181  0.00  0.00    -0.050 Br
ENDBRANCH  30  35
ENDBRANCH  29  30
ENDBRANCH  25  29
ENDBRANCH   1  26
TORSDOF 5
