REMARK  Name = ZINC39508209
REMARK  7 active torsions:
REMARK  status: ('A' for Active; 'I' for Inactive)
REMARK    1  A    between atoms: C_4  and  O_7
REMARK    2  A    between atoms: O_7  and  S_8
REMARK    3  A    between atoms: S_8  and  N_11
REMARK    4  A    between atoms: C_13  and  C_31
REMARK    5  A    between atoms: C_19  and  S_22
REMARK    6  A    between atoms: S_22  and  C_25
REMARK    7  A    between atoms: C_36  and  O_37
REMARK                            x       y       z     vdW  Elec       q    Type
REMARK                         _______ _______ _______ _____ _____    ______ ____
ROOT
ATOM      1  N   UNL     1       3.453  -2.176   1.969  0.00  0.00    -0.140 NA
ATOM      2  C   UNL     1       2.163  -2.173   2.688  0.00  0.00    +0.121 C 
ATOM      3  C   UNL     1       2.194  -3.450   3.567  0.00  0.00    +0.040 C 
ATOM      4  C   UNL     1       2.937  -4.452   2.640  0.00  0.00    +0.033 C 
ATOM      5  C   UNL     1       3.935  -3.552   1.901  0.00  0.00    +0.048 C 
ATOM      6  C   UNL     1       4.118  -4.012   0.445  0.00  0.00    +0.026 C 
ATOM      7  C   UNL     1       5.513  -3.479   0.053  0.00  0.00    +0.028 C 
ATOM      8  C   UNL     1       6.291  -3.271   1.365  0.00  0.00    +0.138 C 
ATOM      9  C   UNL     1       5.342  -3.685   2.511  0.00  0.00    +0.050 C 
ENDROOT
BRANCH   3  10
ATOM     10  C   UNL     1       0.798  -3.929   3.872  0.00  0.00    -0.002 A 
ATOM     11  C   UNL     1      -0.061  -4.258   2.841  0.00  0.00    +0.007 A 
ATOM     12  C   UNL     1      -1.342  -4.697   3.121  0.00  0.00    +0.001 A 
ATOM     13  C   UNL     1      -1.766  -4.809   4.432  0.00  0.00    +0.004 A 
ATOM     14  C   UNL     1      -0.911  -4.482   5.466  0.00  0.00    +0.046 A 
ATOM     15  C   UNL     1       0.377  -4.046   5.188  0.00  0.00    +0.120 A 
BRANCH  15  16
ATOM     16  O   UNL     1       1.222  -3.729   6.204  0.00  0.00    -0.506 OA
ATOM     17  H   UNL     1       1.177  -2.803   6.479  0.00  0.00    +0.292 HD
ENDBRANCH  15  16
ENDBRANCH   3  10
BRANCH   1  18
ATOM     18  S   UNL     1       4.217  -0.847   1.342  0.00  0.00    +0.195 S 
ATOM     19  O   UNL     1       5.413  -1.316   0.734  0.00  0.00    -0.119 OA
ATOM     20  O   UNL     1       4.219   0.140   2.364  0.00  0.00    -0.119 OA
BRANCH  18  21
ATOM     21  O   UNL     1       3.340  -0.311   0.221  0.00  0.00    -0.333 OA
BRANCH  21  25
ATOM     22  C   UNL     1       0.016   1.753   1.530  0.00  0.00    +0.000 A 
ATOM     23  C   UNL     1       1.236   2.397   1.437  0.00  0.00    +0.004 A 
ATOM     24  C   UNL     1       2.351   1.708   0.999  0.00  0.00    +0.048 A 
ATOM     25  C   UNL     1       2.245   0.369   0.652  0.00  0.00    +0.158 A 
ATOM     26  C   UNL     1       1.020  -0.275   0.747  0.00  0.00    +0.048 A 
ATOM     27  C   UNL     1      -0.092   0.419   1.185  0.00  0.00    +0.004 A 
ENDBRANCH  21  25
ENDBRANCH  18  21
ENDBRANCH   1  18
BRANCH   8  28
ATOM     28  S   UNL     1       7.775  -4.313   1.379  0.00  0.00    -0.000 S 
ATOM     29  O   UNL     1       8.569  -4.018   2.520  0.00  0.00    -0.169 OA
ATOM     30  O   UNL     1       7.434  -5.655   1.061  0.00  0.00    -0.169 OA
BRANCH  28  31
ATOM     31  C   UNL     1       8.733  -3.756   0.009  0.00  0.00    +0.088 A 
ATOM     32  C   UNL     1       8.554  -4.327  -1.237  0.00  0.00    +0.027 A 
ATOM     33  C   UNL     1       9.305  -3.890  -2.312  0.00  0.00    +0.002 A 
ATOM     34  C   UNL     1      10.235  -2.881  -2.141  0.00  0.00    +0.000 A 
ATOM     35  C   UNL     1      10.413  -2.309  -0.895  0.00  0.00    +0.002 A 
ATOM     36  C   UNL     1       9.659  -2.743   0.179  0.00  0.00    +0.027 A 
ENDBRANCH  28  31
ENDBRANCH   8  28
TORSDOF 7
