REMARK  Name = ZINC41519356
REMARK  6 active torsions:
REMARK  status: ('A' for Active; 'I' for Inactive)
REMARK    1  A    between atoms: C_3  and  N_11
REMARK    2  A    between atoms: C_6  and  C_7
REMARK    3  A    between atoms: C_7  and  C_8
REMARK    4  A    between atoms: C_12  and  C_14
REMARK    5  A    between atoms: N_16  and  C_17
REMARK    6  A    between atoms: C_17  and  C_18
REMARK                            x       y       z     vdW  Elec       q    Type
REMARK                         _______ _______ _______ _____ _____    ______ ____
ROOT
ATOM      1  C   UNL     1       6.031   2.228   0.205  0.00  0.00    +0.300 C 
ATOM      2  O   UNL     1       6.012   3.442   0.191  0.00  0.00    -0.265 OA
ATOM      3  N   UNL     1       7.206   1.573   0.287  0.00  0.00    -0.303 N 
ATOM      4  H   UNL     1       7.221   0.604   0.298  0.00  0.00    +0.149 HD
ENDROOT
BRANCH   1   6
ATOM      5  N   UNL     1       3.576   2.116   0.050  0.00  0.00    -0.278 N 
ATOM      6  C   UNL     1       4.751   1.461   0.132  0.00  0.00    +0.303 C 
ATOM      7  O   UNL     1       4.770   0.248   0.145  0.00  0.00    -0.265 OA
ATOM      8  H   UNL     1       3.565   3.082  -0.039  0.00  0.00    +0.155 HD
BRANCH   5  11
ATOM      9  C   UNL     1       1.088  -0.452   0.899  0.00  0.00    +0.006 A 
ATOM     10  C   UNL     1       2.277   0.249   0.859  0.00  0.00    +0.023 A 
ATOM     11  C   UNL     1       2.375   1.404   0.092  0.00  0.00    +0.034 A 
ATOM     12  C   UNL     1       1.276   1.849  -0.631  0.00  0.00    +0.023 A 
ATOM     13  C   UNL     1       0.090   1.143  -0.586  0.00  0.00    +0.006 A 
ATOM     14  C   UNL     1      -0.004  -0.006   0.178  0.00  0.00    -0.039 A 
BRANCH  14  15
ATOM     15  C   UNL     1      -1.300  -0.774   0.224  0.00  0.00    +0.130 C 
BRANCH  15  16
ATOM     16  C   UNL     1      -2.151  -0.255   1.354  0.00  0.00    +0.215 C 
ATOM     17  O   UNL     1      -1.746   0.650   2.053  0.00  0.00    -0.276 OA
ATOM     18  N   UNL     1      -3.364  -0.795   1.588  0.00  0.00    -0.329 N 
ATOM     19  H   UNL     1      -3.688  -1.519   1.029  0.00  0.00    +0.145 HD
ATOM     20  H   UNL     1      -3.912  -0.461   2.316  0.00  0.00    +0.145 HD
ENDBRANCH  15  16
ENDBRANCH  14  15
ENDBRANCH   5  11
ENDBRANCH   1   6
BRANCH   3  21
ATOM     21  C   UNL     1       8.460   2.326   0.359  0.00  0.00    +0.141 C 
BRANCH  21  22
ATOM     22  C   UNL     1       9.618   1.365   0.443  0.00  0.00    -0.014 A 
ATOM     23  C   UNL     1      10.078   0.926   1.678  0.00  0.00    +0.010 A 
ATOM     24  C   UNL     1      11.143   0.045   1.711  0.00  0.00    +0.042 A 
ATOM     25  C   UNL     1      11.715  -0.370   0.512  0.00  0.00    +0.099 A 
ATOM     26  N   UNL     1      11.248   0.071  -0.646  0.00  0.00    -0.349 N 
ATOM     27  C   UNL     1      10.230   0.908  -0.707  0.00  0.00    +0.089 A 
ATOM     28  N   UNL     1      12.786  -1.256   0.530  0.00  0.00    -0.317 N 
ATOM     29  C   UNL     1      13.497  -1.597  -0.710  0.00  0.00    +0.106 C 
ATOM     30  C   UNL     1      14.993  -1.339  -0.507  0.00  0.00    +0.019 C 
ATOM     31  C   UNL     1      15.477  -2.106   0.726  0.00  0.00    +0.003 C 
ATOM     32  C   UNL     1      14.729  -1.607   1.965  0.00  0.00    +0.019 C 
ATOM     33  C   UNL     1      13.233  -1.864   1.791  0.00  0.00    +0.106 C 
ATOM     34  H   UNL     1      11.663  -0.231  -1.469  0.00  0.00    +0.167 HD
ENDBRANCH  21  22
ENDBRANCH   3  21
TORSDOF 6
