REMARK  Name = ZINC41000568
REMARK  12 active torsions:
REMARK  status: ('A' for Active; 'I' for Inactive)
REMARK    1  A    between atoms: C_1  and  C_2
REMARK    2  A    between atoms: C_2  and  C_3
REMARK    3  A    between atoms: C_3  and  C_4
REMARK    4  A    between atoms: C_4  and  S_5
REMARK    5  A    between atoms: S_5  and  C_6
REMARK    6  A    between atoms: C_11  and  C_26
REMARK    7  A    between atoms: C_13  and  C_17
REMARK    8  A    between atoms: C_14  and  C_16
REMARK    9  A    between atoms: N_19  and  C_20
REMARK   10  A    between atoms: C_29  and  N_32
REMARK   11  A    between atoms: N_32  and  C_33
REMARK   12  A    between atoms: N_32  and  C_34
REMARK                            x       y       z     vdW  Elec       q    Type
REMARK                         _______ _______ _______ _____ _____    ______ ____
ROOT
ATOM      1  C   UNL     1       1.595  -4.391   2.283  0.00  0.00    +0.210 A 
ATOM      2  N   UNL     1       0.971  -5.105   1.335  0.00  0.00    -0.187 NA
ATOM      3  C   UNL     1       1.065  -6.377   1.615  0.00  0.00    +0.219 A 
ATOM      4  N   UNL     1       1.760  -6.504   2.772  0.00  0.00    -0.220 N 
ATOM      5  N   UNL     1       2.098  -5.214   3.178  0.00  0.00    -0.141 NA
ATOM      6  C   UNL     1       2.054  -7.788   3.401  0.00  0.00    +0.177 C 
ATOM      7  C   UNL     1       1.741  -8.902   2.438  0.00  0.00    +0.060 C 
ATOM      8  C   UNL     1       1.050  -8.716   1.304  0.00  0.00    +0.018 C 
ATOM      9  N   UNL     1       0.582  -7.481   0.926  0.00  0.00    -0.287 N 
ATOM     10  C   UNL     1       0.780  -9.901   0.413  0.00  0.00    +0.061 C 
ATOM     11  H   UNL     1      -0.061  -7.385   0.206  0.00  0.00    +0.155 HD
ENDROOT
BRANCH   6  12
ATOM     12  C   UNL     1       1.212  -7.945   4.641  0.00  0.00    -0.018 A 
ATOM     13  C   UNL     1      -0.167  -7.933   4.545  0.00  0.00    +0.008 A 
ATOM     14  C   UNL     1      -0.942  -8.076   5.679  0.00  0.00    +0.023 A 
ATOM     15  C   UNL     1      -0.334  -8.232   6.918  0.00  0.00    +0.029 A 
ATOM     16  C   UNL     1       1.052  -8.244   7.012  0.00  0.00    +0.023 A 
ATOM     17  C   UNL     1       1.821  -8.106   5.873  0.00  0.00    +0.008 A 
BRANCH  15  18
ATOM     18  N   UNL     1      -1.114  -8.377   8.067  0.00  0.00    -0.336 N 
ATOM     19  C   UNL     1      -2.571  -8.479   7.955  0.00  0.00    +0.129 C 
ATOM     20  C   UNL     1      -0.476  -8.427   9.385  0.00  0.00    +0.129 C 
ENDBRANCH  15  18
ENDBRANCH   6  12
BRANCH   7  21
ATOM     21  C   UNL     1       2.197 -10.206   2.744  0.00  0.00    +0.248 C 
ATOM     22  O   UNL     1       3.354 -10.514   2.523  0.00  0.00    -0.270 OA
ATOM     23  N   UNL     1       1.350 -11.108   3.279  0.00  0.00    -0.282 N 
ATOM     24  H   UNL     1       0.409 -10.891   3.376  0.00  0.00    +0.155 HD
BRANCH  23  25
ATOM     25  C   UNL     1       1.827 -12.355   3.694  0.00  0.00    +0.034 A 
ATOM     26  C   UNL     1       3.155 -12.500   4.075  0.00  0.00    +0.023 A 
ATOM     27  C   UNL     1       3.623 -13.733   4.484  0.00  0.00    +0.002 A 
ATOM     28  C   UNL     1       2.772 -14.822   4.515  0.00  0.00    +0.000 A 
ATOM     29  C   UNL     1       1.450 -14.681   4.136  0.00  0.00    +0.002 A 
ATOM     30  C   UNL     1       0.974 -13.450   3.731  0.00  0.00    +0.023 A 
ENDBRANCH  23  25
ENDBRANCH   7  21
BRANCH   1  31
ATOM     31  S   UNL     1       1.728  -2.634   2.320  0.00  0.00    -0.084 S 
BRANCH  31  32
ATOM     32  C   UNL     1       0.840  -2.096   0.832  0.00  0.00    +0.077 C 
BRANCH  32  33
ATOM     33  C   UNL     1       0.878  -0.570   0.739  0.00  0.00    +0.011 C 
BRANCH  33  35
ATOM     34  C   UNL     1       0.168   1.411  -0.608  0.00  0.00    +0.004 C 
ATOM     35  C   UNL     1       0.130  -0.116  -0.516  0.00  0.00    -0.003 C 
ENDBRANCH  33  35
ENDBRANCH  32  33
ENDBRANCH  31  32
ENDBRANCH   1  31
TORSDOF 8
