REMARK  Name = ZINC37639844
REMARK  8 active torsions:
REMARK  status: ('A' for Active; 'I' for Inactive)
REMARK    1  A    between atoms: C_1  and  C_2
REMARK    2  A    between atoms: C_2  and  C_3
REMARK    3  A    between atoms: C_3  and  C_4
REMARK    4  A    between atoms: C_4  and  N_5
REMARK    5  A    between atoms: C_9  and  C_30
REMARK    6  A    between atoms: N_13  and  C_16
REMARK    7  A    between atoms: C_16  and  C_17
REMARK    8  A    between atoms: N_19  and  C_20
REMARK                            x       y       z     vdW  Elec       q    Type
REMARK                         _______ _______ _______ _____ _____    ______ ____
ROOT
ATOM      1  N   UNL     1       1.428  -2.484  -2.451  0.00  0.00    -0.260 N 
ATOM      2  C   UNL     1       0.707  -2.706  -3.564  0.00  0.00    +0.265 A 
ATOM      3  O   UNL     1      -0.494  -2.510  -3.569  0.00  0.00    -0.267 OA
ATOM      4  C   UNL     1       1.390  -3.191  -4.782  0.00  0.00    +0.078 A 
ATOM      5  C   UNL     1       0.831  -3.501  -6.095  0.00  0.00    +0.004 A 
ATOM      6  C   UNL     1       1.664  -3.936  -7.070  0.00  0.00    +0.056 A 
ATOM      7  S   UNL     1       3.257  -3.953  -6.270  0.00  0.00    -0.078 S 
ATOM      8  C   UNL     1       2.768  -3.382  -4.664  0.00  0.00    +0.098 A 
ATOM      9  N   UNL     1       3.426  -3.132  -3.493  0.00  0.00    -0.278 N 
ATOM     10  C   UNL     1       2.756  -2.685  -2.413  0.00  0.00    +0.333 A 
ATOM     11  O   UNL     1       3.363  -2.465  -1.383  0.00  0.00    -0.246 OA
ENDROOT
BRANCH   5  12
ATOM     12  C   UNL     1      -0.619  -3.342  -6.355  0.00  0.00    -0.017 A 
ATOM     13  C   UNL     1      -1.552  -3.895  -5.479  0.00  0.00    +0.008 A 
ATOM     14  C   UNL     1      -2.901  -3.745  -5.726  0.00  0.00    +0.001 A 
ATOM     15  C   UNL     1      -3.329  -3.046  -6.841  0.00  0.00    +0.000 A 
ATOM     16  C   UNL     1      -2.408  -2.495  -7.714  0.00  0.00    +0.001 A 
ATOM     17  C   UNL     1      -1.056  -2.635  -7.474  0.00  0.00    +0.008 A 
ENDBRANCH   5  12
BRANCH   1  18
ATOM     18  C   UNL     1       0.747  -2.003  -1.247  0.00  0.00    +0.130 C 
BRANCH  18  19
ATOM     19  C   UNL     1       0.728  -0.473  -1.248  0.00  0.00    +0.022 C 
BRANCH  19  21
ATOM     20  C   UNL     1      -0.003   1.559   0.009  0.00  0.00    +0.004 C 
ATOM     21  C   UNL     1       0.016   0.029   0.010  0.00  0.00    -0.002 C 
ENDBRANCH  19  21
ENDBRANCH  18  19
ENDBRANCH   1  18
BRANCH   9  22
ATOM     22  C   UNL     1       4.873  -3.346  -3.413  0.00  0.00    +0.223 C 
BRANCH  22  23
ATOM     23  C   UNL     1       5.590  -2.077  -3.795  0.00  0.00    +0.237 C 
ATOM     24  O   UNL     1       4.955  -1.091  -4.104  0.00  0.00    -0.274 OA
ATOM     25  N   UNL     1       6.937  -2.038  -3.794  0.00  0.00    -0.283 N 
ATOM     26  H   UNL     1       7.445  -2.804  -3.484  0.00  0.00    +0.155 HD
BRANCH  25  27
ATOM     27  C   UNL     1       7.603  -0.894  -4.238  0.00  0.00    +0.041 A 
ATOM     28  C   UNL     1       7.067   0.355  -4.009  0.00  0.00    +0.024 A 
ATOM     29  C   UNL     1       7.722   1.502  -4.447  0.00  0.00    +0.002 A 
ATOM     30  C   UNL     1       8.908   1.423  -5.112  0.00  0.00    +0.008 A 
ATOM     31  C   UNL     1       9.488   0.169  -5.366  0.00  0.00    -0.016 A 
ATOM     32  C   UNL     1       8.833  -1.005  -4.920  0.00  0.00    +0.003 A 
ATOM     33  C   UNL     1       9.416  -2.257  -5.170  0.00  0.00    +0.010 A 
ATOM     34  C   UNL     1      10.604  -2.328  -5.832  0.00  0.00    +0.001 A 
ATOM     35  C   UNL     1      11.252  -1.173  -6.266  0.00  0.00    +0.001 A 
ATOM     36  C   UNL     1      10.711   0.057  -6.051  0.00  0.00    +0.008 A 
ENDBRANCH  25  27
ENDBRANCH  22  23
ENDBRANCH   9  22
TORSDOF 7
