REMARK  Name = ZINC53573046
REMARK  3 active torsions:
REMARK  status: ('A' for Active; 'I' for Inactive)
REMARK    1  A    between atoms: C_4  and  C_7
REMARK    2  A    between atoms: N_16  and  C_17
REMARK    3  A    between atoms: C_17  and  C_18
REMARK                            x       y       z     vdW  Elec       q    Type
REMARK                         _______ _______ _______ _____ _____    ______ ____
ROOT
ATOM      1  C   UNL     1       3.695  -0.684  -0.037  0.00  0.00    +0.185 A 
ATOM      2  N   UNL     1       4.876  -0.164  -0.316  0.00  0.00    -0.127 NA
ATOM      3  N   UNL     1       5.787  -1.070  -0.238  0.00  0.00    -0.128 NA
ATOM      4  C   UNL     1       5.236  -2.227   0.097  0.00  0.00    +0.178 A 
ATOM      5  N   UNL     1       3.889  -2.005   0.238  0.00  0.00    -0.191 N 
ATOM      6  N   UNL     1       3.039  -3.054   0.597  0.00  0.00    -0.148 NA
ATOM      7  C   UNL     1       3.518  -4.258   0.805  0.00  0.00    +0.140 A 
ATOM      8  C   UNL     1       4.896  -4.518   0.671  0.00  0.00    +0.049 A 
ATOM      9  C   UNL     1       5.748  -3.520   0.315  0.00  0.00    +0.053 A 
ATOM     10  N   UNL     1       2.656  -5.289   1.162  0.00  0.00    -0.323 N 
ATOM     11  H   UNL     1       3.004  -6.181   1.317  0.00  0.00    +0.148 HD
ENDROOT
BRANCH   1  15
ATOM     12  C   UNL     1      -0.017   1.379   0.010  0.00  0.00    +0.000 A 
ATOM     13  C   UNL     1       1.168   2.094   0.002  0.00  0.00    +0.001 A 
ATOM     14  C   UNL     1       2.377   1.430  -0.013  0.00  0.00    +0.011 A 
ATOM     15  C   UNL     1       2.404   0.034  -0.021  0.00  0.00    +0.021 A 
ATOM     16  C   UNL     1       1.204  -0.681  -0.013  0.00  0.00    +0.011 A 
ATOM     17  C   UNL     1       0.002  -0.004   0.002  0.00  0.00    +0.001 A 
ENDBRANCH   1  15
BRANCH  10  18
ATOM     18  C   UNL     1       1.221  -5.028   1.303  0.00  0.00    +0.145 C 
BRANCH  18  19
ATOM     19  C   UNL     1       0.515  -6.300   1.694  0.00  0.00    +0.008 A 
ATOM     20  C   UNL     1       0.253  -6.786   2.932  0.00  0.00    +0.028 A 
ATOM     21  C   UNL     1      -0.417  -7.990   3.052  0.00  0.00    +0.025 A 
ATOM     22  C   UNL     1      -0.791  -8.648   1.928  0.00  0.00    +0.060 A 
ATOM     23  S   UNL     1      -0.201  -7.556   0.645  0.00  0.00    -0.099 S 
ATOM     24 BR   UNL     1      -0.804  -8.706   4.759  0.00  0.00    -0.050 Br
ENDBRANCH  18  19
ENDBRANCH  10  18
TORSDOF 3
