REMARK  Name = ZINC40385672
REMARK  4 active torsions:
REMARK  status: ('A' for Active; 'I' for Inactive)
REMARK    1  A    between atoms: C_2  and  N_9
REMARK    2  A    between atoms: N_9  and  C_10
REMARK    3  A    between atoms: C_10  and  C_12
REMARK    4  A    between atoms: C_13  and  N_25
REMARK                            x       y       z     vdW  Elec       q    Type
REMARK                         _______ _______ _______ _____ _____    ______ ____
ROOT
ATOM      1  C   UNL     1       2.516   5.634  -0.003  0.00  0.00    +0.107 A 
ATOM      2  C   UNL     1       3.767   6.278  -0.069  0.00  0.00    +0.135 A 
ATOM      3  N   UNL     1       3.821   7.610  -0.061  0.00  0.00    -0.200 NA
ATOM      4  C   UNL     1       2.727   8.342   0.006  0.00  0.00    +0.200 A 
ATOM      5  N   UNL     1       1.490   7.779   0.073  0.00  0.00    -0.294 N 
ATOM      6  H   UNL     1       0.704   8.346   0.122  0.00  0.00    +0.172 HD
ATOM      7  C   UNL     1       1.350   6.437   0.064  0.00  0.00    +0.264 A 
ATOM      8  O   UNL     1       0.244   5.926   0.117  0.00  0.00    -0.267 OA
ATOM      9  N   UNL     1       2.838   9.704   0.011  0.00  0.00    -0.301 N 
ATOM     10  C   UNL     1       1.719  10.654   0.088  0.00  0.00    +0.108 C 
ATOM     11  C   UNL     1       2.321  12.075   0.037  0.00  0.00    +0.020 C 
ATOM     12  C   UNL     1       3.700  11.844  -0.636  0.00  0.00    +0.020 C 
ATOM     13  C   UNL     1       4.100  10.463  -0.054  0.00  0.00    +0.108 C 
ENDROOT
BRANCH   2  14
ATOM     14  N   UNL     1       4.923   5.539  -0.140  0.00  0.00    -0.342 N 
ATOM     15  H   UNL     1       4.885   4.572  -0.070  0.00  0.00    +0.144 HD
ATOM     16  H   UNL     1       5.776   5.984  -0.260  0.00  0.00    +0.144 HD
ENDBRANCH   2  14
BRANCH   1  17
ATOM     17  C   UNL     1       2.422   4.174  -0.009  0.00  0.00    +0.092 C 
ATOM     18  S   UNL     1       2.078   3.345  -1.467  0.00  0.00    -0.034 S 
BRANCH  17  19
ATOM     19  N   UNL     1       2.607   3.482   1.132  0.00  0.00    -0.308 N 
ATOM     20  H   UNL     1       2.741   3.954   1.969  0.00  0.00    +0.153 HD
BRANCH  19  22
ATOM     21  C   UNL     1       3.587   1.377   1.793  0.00  0.00    +0.043 A 
ATOM     22  C   UNL     1       2.606   2.084   1.110  0.00  0.00    +0.034 A 
ATOM     23  C   UNL     1       1.623   1.400   0.406  0.00  0.00    +0.043 A 
ATOM     24  C   UNL     1       1.624   0.018   0.386  0.00  0.00    +0.044 A 
ATOM     25  C   UNL     1       2.602  -0.684   1.068  0.00  0.00    +0.040 A 
ATOM     26  C   UNL     1       3.583  -0.005   1.770  0.00  0.00    +0.044 A 
ATOM     27 CL   UNL     1       4.808  -0.890   2.624  0.00  0.00    -0.083 Cl
ATOM     28 CL   UNL     1       0.396  -0.838  -0.494  0.00  0.00    -0.083 Cl
ENDBRANCH  19  22
ENDBRANCH  17  19
ENDBRANCH   1  17
TORSDOF 4
