REMARK  Name = ZINC63570108
REMARK  7 active torsions:
REMARK  status: ('A' for Active; 'I' for Inactive)
REMARK    1  A    between atoms: C_7  and  C_10
REMARK    2  A    between atoms: C_10  and  C_11
REMARK    3  A    between atoms: C_11  and  N_12
REMARK    4  A    between atoms: C_13  and  C_15
REMARK    5  A    between atoms: C_15  and  N_16
REMARK    6  A    between atoms: C_23  and  S_25
REMARK    7  A    between atoms: S_25  and  N_28
REMARK                            x       y       z     vdW  Elec       q    Type
REMARK                         _______ _______ _______ _____ _____    ______ ____
ROOT
ATOM      1  N   UNL     1      -1.976  -7.005  -3.998  0.00  0.00    -0.338 N 
ATOM      2  C   UNL     1      -3.021  -6.617  -4.791  0.00  0.00    +0.087 A 
ATOM      3  C   UNL     1      -2.930  -7.210  -5.992  0.00  0.00    +0.027 A 
ATOM      4  C   UNL     1      -1.728  -8.046  -5.966  0.00  0.00    +0.002 A 
ATOM      5  C   UNL     1      -1.163  -7.875  -4.689  0.00  0.00    +0.050 A 
ATOM      6  C   UNL     1       0.009  -8.551  -4.367  0.00  0.00    +0.028 A 
ATOM      7  C   UNL     1       0.603  -9.375  -5.299  0.00  0.00    +0.030 A 
ATOM      8  C   UNL     1       0.043  -9.537  -6.559  0.00  0.00    +0.106 A 
ATOM      9  C   UNL     1      -1.113  -8.889  -6.894  0.00  0.00    +0.038 A 
ENDROOT
BRANCH   8  10
ATOM     10  S   UNL     1       0.823 -10.596  -7.732  0.00  0.00    +0.061 S 
ATOM     11  O   UNL     1       0.406 -10.155  -9.017  0.00  0.00    -0.153 OA
ATOM     12  O   UNL     1       2.193 -10.674  -7.361  0.00  0.00    -0.153 OA
BRANCH  10  13
ATOM     13  N   UNL     1       0.189 -12.111  -7.522  0.00  0.00    -0.177 NA
ATOM     14  C   UNL     1       0.805 -13.057  -6.582  0.00  0.00    +0.109 C 
ATOM     15  C   UNL     1      -0.268 -13.557  -5.610  0.00  0.00    +0.017 C 
ATOM     16  C   UNL     1      -1.441 -14.135  -6.405  0.00  0.00    +0.003 C 
ATOM     17  C   UNL     1      -2.054 -13.040  -7.281  0.00  0.00    +0.017 C 
ATOM     18  C   UNL     1      -1.005 -12.533  -8.268  0.00  0.00    +0.109 C 
ENDBRANCH  10  13
ENDBRANCH   8  10
BRANCH   1  19
ATOM     19  C   UNL     1      -1.752  -6.557  -2.622  0.00  0.00    +0.217 C 
BRANCH  19  21
ATOM     20  N   UNL     1      -0.458  -4.798  -1.460  0.00  0.00    -0.314 N 
ATOM     21  C   UNL     1      -0.811  -5.380  -2.623  0.00  0.00    +0.233 C 
ATOM     22  O   UNL     1      -0.371  -4.957  -3.671  0.00  0.00    -0.274 OA
ATOM     23  H   UNL     1      -0.810  -5.136  -0.622  0.00  0.00    +0.149 HD
BRANCH  20  24
ATOM     24  C   UNL     1       0.457  -3.653  -1.462  0.00  0.00    +0.108 C 
BRANCH  24  25
ATOM     25  C   UNL     1       0.691  -3.186  -0.024  0.00  0.00    +0.052 C 
BRANCH  25  32
ATOM     26  C   UNL     1      -0.016   1.348   0.009  0.00  0.00    +0.001 A 
ATOM     27  C   UNL     1       1.166   2.101   0.002  0.00  0.00    +0.002 A 
ATOM     28  C   UNL     1       2.391   1.535  -0.013  0.00  0.00    +0.026 A 
ATOM     29  C   UNL     1       2.529   0.120  -0.022  0.00  0.00    +0.043 A 
ATOM     30  N   UNL     1       3.587  -0.654  -0.037  0.00  0.00    -0.380 N 
ATOM     31  C   UNL     1       3.143  -2.053  -0.041  0.00  0.00    +0.144 C 
ATOM     32  C   UNL     1       1.631  -2.008  -0.025  0.00  0.00    -0.040 C 
ATOM     33  C   UNL     1       1.295  -0.698  -0.014  0.00  0.00    -0.001 A 
ATOM     34  C   UNL     1       0.002  -0.004   0.002  0.00  0.00    +0.010 A 
ATOM     35  H   UNL     1       4.509  -0.353  -0.045  0.00  0.00    +0.160 HD
ENDBRANCH  25  32
ENDBRANCH  24  25
ENDBRANCH  20  24
ENDBRANCH  19  21
ENDBRANCH   1  19
TORSDOF 7
