REMARK  Name = ZINC10048486
REMARK  13 active torsions:
REMARK  status: ('A' for Active; 'I' for Inactive)
REMARK    1  A    between atoms: C_1  and  C_2
REMARK    2  A    between atoms: C_5  and  N_9
REMARK    3  A    between atoms: C_7  and  C_8
REMARK    4  A    between atoms: C_10  and  C_38
REMARK    5  A    between atoms: C_11  and  C_37
REMARK    6  A    between atoms: N_19  and  C_24
REMARK    7  A    between atoms: N_22  and  C_23
REMARK    8  A    between atoms: C_24  and  C_25
REMARK    9  A    between atoms: C_25  and  C_27
REMARK   10  A    between atoms: C_25  and  C_28
REMARK   11  A    between atoms: C_28  and  N_29
REMARK   12  A    between atoms: N_29  and  C_30
REMARK   13  A    between atoms: C_35  and  N_36
REMARK                            x       y       z     vdW  Elec       q    Type
REMARK                         _______ _______ _______ _____ _____    ______ ____
ROOT
ATOM      1  N   UNL     1      -0.828   6.465   1.396  0.00  0.00    -0.282 N 
ATOM      2  C   UNL     1      -1.473   6.927   2.529  0.00  0.00    +0.043 A 
ATOM      3  C   UNL     1      -1.869   5.875   3.239  0.00  0.00    +0.044 A 
ATOM      4  N   UNL     1      -1.494   4.726   2.564  0.00  0.00    -0.274 N 
ATOM      5  C   UNL     1      -0.843   5.093   1.435  0.00  0.00    +0.223 A 
ATOM      6  N   UNL     1      -0.464   4.008   0.777  0.00  0.00    -0.193 NA
ATOM      7  C   UNL     1      -0.836   2.919   1.444  0.00  0.00    +0.170 A 
ATOM      8  C   UNL     1      -1.498   3.340   2.597  0.00  0.00    +0.157 A 
ATOM      9  C   UNL     1      -1.994   2.378   3.492  0.00  0.00    +0.283 A 
ATOM     10  O   UNL     1      -2.572   2.723   4.508  0.00  0.00    -0.265 OA
ATOM     11  N   UNL     1      -1.824   1.068   3.216  0.00  0.00    -0.259 N 
ATOM     12  C   UNL     1      -1.190   0.672   2.100  0.00  0.00    +0.333 A 
ATOM     13  O   UNL     1      -1.056  -0.518   1.884  0.00  0.00    -0.246 OA
ATOM     14  N   UNL     1      -0.698   1.558   1.213  0.00  0.00    -0.279 N 
ATOM     15  C   UNL     1      -0.013   1.086   0.008  0.00  0.00    +0.155 C 
ATOM     16  C   UNL     1      -2.612   5.925   4.549  0.00  0.00    +0.066 C 
ATOM     17  C   UNL     1      -1.688   8.373   2.896  0.00  0.00    +0.066 C 
ENDROOT
BRANCH   1  22
ATOM     18  C   UNL     1       1.468   9.668  -2.686  0.00  0.00    +0.044 C 
ATOM     19  C   UNL     1       0.859   8.817  -1.602  0.00  0.00    -0.047 A 
ATOM     20  C   UNL     1      -0.508   8.840  -1.393  0.00  0.00    +0.005 A 
ATOM     21  C   UNL     1      -1.071   8.062  -0.401  0.00  0.00    +0.026 A 
ATOM     22  C   UNL     1      -0.261   7.255   0.389  0.00  0.00    +0.050 A 
ATOM     23  C   UNL     1       1.111   7.238   0.180  0.00  0.00    +0.030 A 
ATOM     24  C   UNL     1       1.667   8.015  -0.818  0.00  0.00    -0.046 A 
ATOM     25  C   UNL     1       3.156   7.992  -1.048  0.00  0.00    +0.044 C 
ENDBRANCH   1  22
BRANCH  11  26
ATOM     26  C   UNL     1      -2.341   0.062   4.147  0.00  0.00    +0.134 C 
BRANCH  26  27
ATOM     27  C   UNL     1      -1.265  -0.276   5.181  0.00  0.00    +0.023 C 
ATOM     28  C   UNL     1      -0.078  -0.942   4.483  0.00  0.00    +0.011 C 
BRANCH  27  29
ATOM     29  C   UNL     1      -1.844  -1.231   6.226  0.00  0.00    +0.106 C 
BRANCH  29  30
ATOM     30  N   UNL     1      -0.853  -1.461   7.281  0.00  0.00    -0.342 N 
ATOM     31  H   UNL     1       0.013  -1.027   7.235  0.00  0.00    +0.146 HD
BRANCH  30  32
ATOM     32  C   UNL     1      -1.157  -2.307   8.354  0.00  0.00    +0.048 A 
ATOM     33  C   UNL     1      -2.397  -2.923   8.425  0.00  0.00    +0.025 A 
ATOM     34  C   UNL     1      -2.692  -3.762   9.484  0.00  0.00    +0.002 A 
ATOM     35  C   UNL     1      -1.759  -3.980  10.480  0.00  0.00    +0.002 A 
ATOM     36  C   UNL     1      -0.522  -3.365  10.420  0.00  0.00    +0.024 A 
ATOM     37  C   UNL     1      -0.215  -2.527   9.359  0.00  0.00    +0.046 A 
BRANCH  37  38
ATOM     38  N   UNL     1       1.037  -1.902   9.297  0.00  0.00    -0.357 N 
ATOM     39  H   UNL     1       1.250  -1.316   8.554  0.00  0.00    +0.142 HD
ATOM     40  H   UNL     1       1.691  -2.056   9.996  0.00  0.00    +0.142 HD
ENDBRANCH  37  38
ENDBRANCH  30  32
ENDBRANCH  29  30
ENDBRANCH  27  29
ENDBRANCH  26  27
ENDBRANCH  11  26
TORSDOF 7
