REMARK  Name = ZINC41586555
REMARK  9 active torsions:
REMARK  status: ('A' for Active; 'I' for Inactive)
REMARK    1  A    between atoms: C_1  and  C_2
REMARK    2  A    between atoms: C_2  and  O_3
REMARK    3  A    between atoms: O_3  and  C_4
REMARK    4  A    between atoms: C_4  and  C_6
REMARK    5  A    between atoms: N_11  and  C_13
REMARK    6  A    between atoms: C_13  and  C_14
REMARK    7  A    between atoms: C_15  and  O_31
REMARK    8  A    between atoms: C_22  and  C_23
REMARK    9  A    between atoms: C_23  and  C_24
REMARK                            x       y       z     vdW  Elec       q    Type
REMARK                         _______ _______ _______ _____ _____    ______ ____
ROOT
ATOM      1  C   UNL     1       2.713  -6.507   4.804  0.00  0.00    +0.023 A 
ATOM      2  C   UNL     1       4.061  -6.814   4.853  0.00  0.00    +0.122 A 
ATOM      3  C   UNL     1       4.624  -7.343   6.012  0.00  0.00    +0.046 A 
ATOM      4  C   UNL     1       3.853  -7.566   7.116  0.00  0.00    +0.017 A 
ATOM      5  C   UNL     1       2.489  -7.262   7.085  0.00  0.00    +0.045 A 
ATOM      6  C   UNL     1       1.917  -6.723   5.920  0.00  0.00    +0.172 A 
ATOM      7  O   UNL     1       0.607  -6.526   6.176  0.00  0.00    -0.354 OA
ATOM      8  N   UNL     1       0.325  -6.927   7.502  0.00  0.00    -0.082 NA
ATOM      9  C   UNL     1       1.406  -7.374   8.065  0.00  0.00    +0.096 A 
ENDROOT
BRANCH   2  10
ATOM     10  O   UNL     1       4.842  -6.598   3.762  0.00  0.00    -0.506 OA
ATOM     11  H   UNL     1       5.243  -5.719   3.733  0.00  0.00    +0.292 HD
ENDBRANCH   2  10
BRANCH   1  12
ATOM     12  C   UNL     1       2.112  -5.935   3.546  0.00  0.00    -0.035 C 
BRANCH  12  17
ATOM     13  C   UNL     1       1.516  -2.381   2.500  0.00  0.00    +0.081 C 
ATOM     14  C   UNL     1       2.967  -1.891   2.511  0.00  0.00    +0.011 C 
ATOM     15  C   UNL     1       3.706  -2.541   3.684  0.00  0.00    -0.018 C 
ATOM     16  C   UNL     1       3.608  -4.063   3.562  0.00  0.00    -0.078 C 
ATOM     17  N   UNL     1       2.198  -4.469   3.585  0.00  0.00    +0.383 N 
ATOM     18  C   UNL     1       1.499  -3.909   2.422  0.00  0.00    -0.064 C 
ATOM     19  H   UNL     1       1.765  -4.131   4.431  0.00  0.00    -0.081 HD
BRANCH  13  20
ATOM     20  C   UNL     1       0.801  -1.808   1.304  0.00  0.00    +0.308 C 
ATOM     21  O   UNL     1       0.324  -2.546   0.475  0.00  0.00    -0.251 OA
BRANCH  20  22
ATOM     22  O   UNL     1       0.693  -0.477   1.160  0.00  0.00    -0.465 OA
BRANCH  22  24
ATOM     23  C   UNL     1      -0.019   1.526   0.010  0.00  0.00    +0.048 C 
ATOM     24  C   UNL     1       0.002  -0.004   0.002  0.00  0.00    +0.229 C 
ENDBRANCH  22  24
ENDBRANCH  20  22
ENDBRANCH  13  20
ENDBRANCH  12  17
ENDBRANCH   1  12
BRANCH   9  25
ATOM     25  C   UNL     1       1.527  -7.896   9.473  0.00  0.00    +0.094 C 
BRANCH  25  26
ATOM     26  C   UNL     1       1.850  -6.757  10.405  0.00  0.00    -0.041 A 
ATOM     27  C   UNL     1       3.168  -6.423  10.656  0.00  0.00    +0.005 A 
ATOM     28  C   UNL     1       3.465  -5.378  11.511  0.00  0.00    +0.020 A 
ATOM     29  C   UNL     1       2.443  -4.667  12.116  0.00  0.00    +0.041 A 
ATOM     30  C   UNL     1       1.125  -5.003  11.864  0.00  0.00    +0.020 A 
ATOM     31  C   UNL     1       0.829  -6.044  11.005  0.00  0.00    +0.005 A 
ATOM     32 CL   UNL     1       2.816  -3.355  13.190  0.00  0.00    -0.084 Cl
ENDBRANCH  25  26
ENDBRANCH   9  25
TORSDOF 8
