REMARK  Name = ZINC44340113
REMARK  8 active torsions:
REMARK  status: ('A' for Active; 'I' for Inactive)
REMARK    1  A    between atoms: C_1  and  C_2
REMARK    2  A    between atoms: C_2  and  O_3
REMARK    3  A    between atoms: O_3  and  C_4
REMARK    4  A    between atoms: C_4  and  C_6
REMARK    5  A    between atoms: C_6  and  C_8
REMARK    6  A    between atoms: C_6  and  N_19
REMARK    7  A    between atoms: C_8  and  C_9
REMARK    8  A    between atoms: C_13  and  O_16
REMARK                            x       y       z     vdW  Elec       q    Type
REMARK                         _______ _______ _______ _____ _____    ______ ____
ROOT
ATOM      1  C   UNL     1      -3.435  -2.405   1.443  0.00  0.00    +0.032 C 
ENDROOT
BRANCH   1   2
ATOM      2  C   UNL     1      -4.863  -2.886   1.434  0.00  0.00    -0.017 A 
ATOM      3  C   UNL     1      -5.896  -1.981   1.261  0.00  0.00    +0.023 A 
ATOM      4  C   UNL     1      -7.208  -2.419   1.253  0.00  0.00    +0.034 A 
ATOM      5  C   UNL     1      -7.490  -3.763   1.418  0.00  0.00    +0.061 A 
ATOM      6  C   UNL     1      -6.456  -4.672   1.591  0.00  0.00    +0.145 A 
ATOM      7  C   UNL     1      -5.140  -4.231   1.593  0.00  0.00    +0.064 A 
ATOM      8 BR   UNL     1      -3.728  -5.467   1.822  0.00  0.00    -0.046 Br
ATOM      9 BR   UNL     1      -9.284  -4.360   1.408  0.00  0.00    -0.046 Br
ATOM     10 BR   UNL     1      -5.513  -0.143   1.036  0.00  0.00    -0.050 Br
BRANCH   6  11
ATOM     11  O   UNL     1      -6.732  -5.993   1.754  0.00  0.00    -0.505 OA
ATOM     12  H   UNL     1      -6.768  -6.492   0.926  0.00  0.00    +0.292 HD
ENDBRANCH   6  11
ENDBRANCH   1   2
BRANCH   1  13
ATOM     13  C   UNL     1      -2.881  -2.427   0.017  0.00  0.00    +0.040 C 
BRANCH  13  14
ATOM     14  N   UNL     1      -2.822  -3.813  -0.465  0.00  0.00    +0.387 N 
ATOM     15  H   UNL     1      -2.456  -3.827  -1.406  0.00  0.00    -0.089 HD
ATOM     16  H   UNL     1      -2.219  -4.353   0.138  0.00  0.00    -0.089 HD
ATOM     17  H   UNL     1      -3.749  -4.211  -0.459  0.00  0.00    -0.089 HD
ENDBRANCH  13  14
BRANCH  13  18
ATOM     18  C   UNL     1      -1.496  -1.832   0.006  0.00  0.00    +0.293 C 
ATOM     19  O   UNL     1      -0.528  -2.555  -0.007  0.00  0.00    -0.253 OA
BRANCH  18  20
ATOM     20  O   UNL     1      -1.339  -0.499   0.012  0.00  0.00    -0.466 OA
BRANCH  20  22
ATOM     21  C   UNL     1      -0.019   1.526   0.010  0.00  0.00    +0.048 C 
ATOM     22  C   UNL     1       0.002  -0.004   0.002  0.00  0.00    +0.228 C 
ENDBRANCH  20  22
ENDBRANCH  18  20
ENDBRANCH  13  18
ENDBRANCH   1  13
TORSDOF 7
