REMARK  Name = ZINC41033441
REMARK  4 active torsions:
REMARK  status: ('A' for Active; 'I' for Inactive)
REMARK    1  A    between atoms: C_1  and  C_2
REMARK    2  A    between atoms: C_5  and  C_8
REMARK    3  A    between atoms: C_5  and  N_20
REMARK    4  A    between atoms: C_10  and  C_13
REMARK                            x       y       z     vdW  Elec       q    Type
REMARK                         _______ _______ _______ _____ _____    ______ ____
ROOT
ATOM      1  C   UNL     1       2.914  -1.982  -0.036  0.00  0.00    +0.216 A 
ATOM      2  N   UNL     1       3.457  -2.740   0.872  0.00  0.00    -0.193 NA
ATOM      3  C   UNL     1       3.290  -4.036   0.551  0.00  0.00    +0.202 A 
ATOM      4  N   UNL     1       2.631  -4.105  -0.580  0.00  0.00    -0.056 NA
ATOM      5  O   UNL     1       2.372  -2.766  -0.976  0.00  0.00    -0.339 OA
ENDROOT
BRANCH   1  10
ATOM      6  C   UNL     1      -0.019   1.526   0.010  0.00  0.00    +0.007 C 
ATOM      7  C   UNL     1       0.002  -0.004   0.002  0.00  0.00    -0.014 C 
ATOM      8  C   UNL     1       0.718  -0.497  -1.257  0.00  0.00    +0.002 C 
ATOM      9  C   UNL     1       2.154   0.032  -1.268  0.00  0.00    -0.003 C 
ATOM     10  C   UNL     1       2.894  -0.475  -0.028  0.00  0.00    +0.010 C 
ATOM     11  C   UNL     1       2.178   0.019   1.231  0.00  0.00    -0.003 C 
ATOM     12  C   UNL     1       0.742  -0.511   1.242  0.00  0.00    +0.002 C 
BRANCH  10  13
ATOM     13  N   UNL     1       4.272   0.034  -0.038  0.00  0.00    +0.388 N 
ATOM     14  H   UNL     1       4.258   1.043  -0.033  0.00  0.00    -0.089 HD
ATOM     15  H   UNL     1       4.760  -0.300   0.779  0.00  0.00    -0.089 HD
ATOM     16  H   UNL     1       4.744  -0.292  -0.869  0.00  0.00    -0.089 HD
ENDBRANCH  10  13
ENDBRANCH   1  10
BRANCH   3  17
ATOM     17  C   UNL     1       3.772  -5.194   1.344  0.00  0.00    +0.025 A 
ATOM     18  C   UNL     1       4.460  -4.986   2.538  0.00  0.00    +0.012 A 
ATOM     19  C   UNL     1       4.907  -6.065   3.272  0.00  0.00    +0.003 A 
ATOM     20  C   UNL     1       4.674  -7.353   2.826  0.00  0.00    +0.038 A 
ATOM     21  C   UNL     1       3.992  -7.567   1.639  0.00  0.00    +0.124 A 
ATOM     22  C   UNL     1       3.534  -6.492   0.900  0.00  0.00    +0.050 A 
ATOM     23  F   UNL     1       3.768  -8.828   1.208  0.00  0.00    -0.205 F 
ENDBRANCH   3  17
TORSDOF 3
