REMARK  Name = ZINC57783564
REMARK  8 active torsions:
REMARK  status: ('A' for Active; 'I' for Inactive)
REMARK    1  A    between atoms: C_1  and  C_2
REMARK    2  A    between atoms: C_2  and  O_3
REMARK    3  A    between atoms: O_3  and  C_4
REMARK    4  A    between atoms: C_4  and  C_6
REMARK    5  A    between atoms: C_11  and  S_12
REMARK    6  A    between atoms: S_12  and  N_15
REMARK    7  A    between atoms: N_15  and  C_16
REMARK    8  A    between atoms: C_21  and  C_22
REMARK                            x       y       z     vdW  Elec       q    Type
REMARK                         _______ _______ _______ _____ _____    ______ ____
ROOT
ATOM      1  S   UNL     1       1.134  -5.095   1.776  0.00  0.00    +0.111 S 
ATOM      2  O   UNL     1      -0.102  -5.519   2.333  0.00  0.00    -0.147 OA
ATOM      3  O   UNL     1       1.259  -4.689   0.420  0.00  0.00    -0.147 OA
ENDROOT
BRANCH   1   9
ATOM      4  C   UNL     1       1.500  -2.373   2.474  0.00  0.00    +0.123 A 
ATOM      5  C   UNL     1       2.087  -1.657   3.499  0.00  0.00    +0.122 A 
ATOM      6  N   UNL     1       2.612  -2.544   4.359  0.00  0.00    -0.282 N 
ATOM      7  N   UNL     1       2.358  -3.833   3.877  0.00  0.00    -0.152 NA
ATOM      8  H   UNL     1       3.087  -2.328   5.176  0.00  0.00    +0.188 HD
ATOM      9  C   UNL     1       1.692  -3.744   2.760  0.00  0.00    +0.233 A 
BRANCH   4  10
ATOM     10  C   UNL     1       0.801  -1.813   1.304  0.00  0.00    +0.344 C 
ATOM     11  O   UNL     1       0.321  -2.555   0.470  0.00  0.00    -0.245 OA
BRANCH  10  12
ATOM     12  O   UNL     1       0.693  -0.477   1.160  0.00  0.00    -0.461 OA
BRANCH  12  14
ATOM     13  C   UNL     1      -0.019   1.526   0.010  0.00  0.00    +0.048 C 
ATOM     14  C   UNL     1       0.002  -0.004   0.002  0.00  0.00    +0.229 C 
ENDBRANCH  12  14
ENDBRANCH  10  12
ENDBRANCH   4  10
ENDBRANCH   1   9
BRANCH   1  15
ATOM     15  N   UNL     1       2.205  -6.338   1.999  0.00  0.00    -0.095 NA
BRANCH  15  16
ATOM     16  C   UNL     1       2.014  -7.545   1.339  0.00  0.00    +0.091 A 
ATOM     17  C   UNL     1       0.930  -7.711   0.488  0.00  0.00    +0.068 A 
ATOM     18  C   UNL     1       0.742  -8.913  -0.167  0.00  0.00    +0.160 A 
ATOM     19  C   UNL     1       1.634  -9.964   0.019  0.00  0.00    +0.159 A 
ATOM     20  C   UNL     1       2.715  -9.817   0.860  0.00  0.00    +0.058 A 
ATOM     21  C   UNL     1       2.921  -8.602   1.526  0.00  0.00    +0.090 A 
ATOM     22  F   UNL     1       1.440 -11.134  -0.627  0.00  0.00    -0.202 F 
ATOM     23  F   UNL     1      -0.316  -9.069  -0.994  0.00  0.00    -0.202 F 
BRANCH  21  24
ATOM     24  C   UNL     1       4.076  -8.436   2.419  0.00  0.00    +0.389 C 
ATOM     25  O   UNL     1       4.863  -9.359   2.579  0.00  0.00    -0.241 OA
ATOM     26  O   UNL     1       4.250  -7.375   3.003  0.00  0.00    -0.241 OA
ENDBRANCH  21  24
ENDBRANCH  15  16
ENDBRANCH   1  15
TORSDOF 7
