REMARK  Name = ZINC14310627
REMARK  9 active torsions:
REMARK  status: ('A' for Active; 'I' for Inactive)
REMARK    1  A    between atoms: C_1  and  N_2
REMARK    2  A    between atoms: N_9  and  C_12
REMARK    3  A    between atoms: C_12  and  C_13
REMARK    4  A    between atoms: N_15  and  N_16
REMARK    5  A    between atoms: C_17  and  C_19
REMARK    6  A    between atoms: C_23  and  S_25
REMARK    7  A    between atoms: S_25  and  N_28
REMARK    8  A    between atoms: N_28  and  C_29
REMARK    9  A    between atoms: C_29  and  C_30
REMARK                            x       y       z     vdW  Elec       q    Type
REMARK                         _______ _______ _______ _____ _____    ______ ____
ROOT
ATOM      1  N   UNL     1       1.088   6.013   0.024  0.00  0.00    -0.230 N 
ATOM      2  C   UNL     1      -0.070   5.323   0.031  0.00  0.00    +0.260 C 
ATOM      3  O   UNL     1      -1.131   5.916   0.044  0.00  0.00    -0.269 OA
ATOM      4  H   UNL     1       1.934   5.539   0.013  0.00  0.00    +0.173 HD
ENDROOT
BRANCH   2   5
ATOM      5  C   UNL     1      -0.050   3.845   0.023  0.00  0.00    +0.040 A 
ATOM      6  C   UNL     1       1.166   3.160   0.007  0.00  0.00    +0.013 A 
ATOM      7  C   UNL     1       1.178   1.781   0.000  0.00  0.00    +0.003 A 
ATOM      8  C   UNL     1      -0.013   1.076   0.008  0.00  0.00    +0.028 A 
ATOM      9  C   UNL     1      -1.222   1.748   0.017  0.00  0.00    +0.106 A 
ATOM     10  C   UNL     1      -1.247   3.128   0.031  0.00  0.00    +0.041 A 
BRANCH   9  11
ATOM     11  S   UNL     1      -2.732   0.841   0.019  0.00  0.00    +0.059 S 
ATOM     12  O   UNL     1      -3.724   1.702  -0.522  0.00  0.00    -0.153 OA
ATOM     13  O   UNL     1      -2.441  -0.433  -0.540  0.00  0.00    -0.153 OA
BRANCH  11  14
ATOM     14  N   UNL     1      -3.144   0.579   1.601  0.00  0.00    -0.186 NA
ATOM     15  H   UNL     1      -3.164  -0.324   1.955  0.00  0.00    +0.148 HD
BRANCH  14  16
ATOM     16  C   UNL     1      -3.479   1.712   2.468  0.00  0.00    +0.141 C 
BRANCH  16  17
ATOM     17  C   UNL     1      -4.161   1.208   3.713  0.00  0.00    -0.032 A 
ATOM     18  C   UNL     1      -5.537   1.082   3.745  0.00  0.00    +0.005 A 
ATOM     19  C   UNL     1      -6.162   0.614   4.886  0.00  0.00    +0.000 A 
ATOM     20  C   UNL     1      -5.412   0.283   5.999  0.00  0.00    +0.000 A 
ATOM     21  C   UNL     1      -4.036   0.414   5.969  0.00  0.00    +0.000 A 
ATOM     22  C   UNL     1      -3.411   0.876   4.826  0.00  0.00    +0.005 A 
ENDBRANCH  16  17
ENDBRANCH  14  16
ENDBRANCH  11  14
ENDBRANCH   9  11
ENDBRANCH   2   5
BRANCH   1  25
ATOM     23  C   UNL     1       2.227   8.103   0.024  0.00  0.00    +0.249 C 
ATOM     24  O   UNL     1       3.285   7.511   0.011  0.00  0.00    -0.272 OA
ATOM     25  N   UNL     1       1.069   7.414   0.031  0.00  0.00    -0.233 N 
ATOM     26  H   UNL     1       0.222   7.887   0.042  0.00  0.00    +0.173 HD
BRANCH  23  27
ATOM     27  C   UNL     1       2.206   9.610   0.032  0.00  0.00    +0.224 C 
BRANCH  27  36
ATOM     28  C   UNL     1       6.631  11.228   1.619  0.00  0.00    +0.154 C 
ATOM     29  N   UNL     1       5.540  10.834   0.724  0.00  0.00    -0.295 N 
ATOM     30  C   UNL     1       5.577  10.860  -0.668  0.00  0.00    +0.070 A 
ATOM     31  C   UNL     1       6.548  11.227  -1.587  0.00  0.00    +0.028 A 
ATOM     32  C   UNL     1       6.282  11.141  -2.939  0.00  0.00    +0.002 A 
ATOM     33  C   UNL     1       5.050  10.690  -3.381  0.00  0.00    +0.002 A 
ATOM     34  C   UNL     1       4.077  10.323  -2.473  0.00  0.00    +0.028 A 
ATOM     35  C   UNL     1       4.335  10.405  -1.113  0.00  0.00    +0.070 A 
ATOM     36  N   UNL     1       3.581  10.117   0.022  0.00  0.00    -0.283 N 
ATOM     37  C   UNL     1       4.328  10.389   1.108  0.00  0.00    +0.330 A 
ATOM     38  O   UNL     1       3.965  10.252   2.261  0.00  0.00    -0.246 OA
ENDBRANCH  27  36
ENDBRANCH  23  27
ENDBRANCH   1  25
TORSDOF 8
