REMARK  Name = ZINC02700650
REMARK  9 active torsions:
REMARK  status: ('A' for Active; 'I' for Inactive)
REMARK    1  A    between atoms: C_1  and  C_2
REMARK    2  A    between atoms: C_2  and  O_3
REMARK    3  A    between atoms: O_3  and  C_4
REMARK    4  A    between atoms: C_4  and  C_6
REMARK    5  A    between atoms: C_11  and  C_13
REMARK    6  A    between atoms: C_11  and  C_20
REMARK    7  A    between atoms: C_11  and  N_63
REMARK    8  A    between atoms: C_24  and  N_25
REMARK    9  A    between atoms: C_26  and  C_28
REMARK                            x       y       z     vdW  Elec       q    Type
REMARK                         _______ _______ _______ _____ _____    ______ ____
ROOT
ATOM      1  C   UNL     1      -3.920   3.094   0.265  0.00  0.00    -0.001 C 
ENDROOT
BRANCH   1   2
ATOM      2  C   UNL     1      -3.516   1.666   0.005  0.00  0.00    -0.025 A 
ATOM      3  C   UNL     1      -4.464   0.645   0.085  0.00  0.00    -0.033 A 
ATOM      4  C   UNL     1      -4.021  -0.618  -0.156  0.00  0.00    -0.005 A 
ATOM      5  S   UNL     1      -2.295  -0.405  -0.503  0.00  0.00    -0.078 S 
ATOM      6  C   UNL     1      -2.228   1.370  -0.312  0.00  0.00    +0.074 A 
ATOM      7  C   UNL     1      -4.816  -1.883  -0.130  0.00  0.00    +0.043 C 
ATOM      8  C   UNL     1      -6.153  -1.599   0.571  0.00  0.00    +0.005 C 
ATOM      9  C   UNL     1      -6.752  -0.317  -0.014  0.00  0.00    +0.005 C 
ATOM     10  C   UNL     1      -5.930   0.894   0.427  0.00  0.00    +0.036 C 
BRANCH   6  11
ATOM     11  N   UNL     1      -1.134   2.229  -0.449  0.00  0.00    -0.280 N 
ATOM     12  C   UNL     1       0.097   1.724  -0.661  0.00  0.00    +0.214 C 
ATOM     13  O   UNL     1       0.256   0.524  -0.734  0.00  0.00    -0.276 OA
ATOM     14  C   UNL     1       1.275   2.652  -0.814  0.00  0.00    +0.109 C 
ATOM     15  H   UNL     1      -1.262   3.189  -0.391  0.00  0.00    +0.155 HD
ENDBRANCH   6  11
ENDBRANCH   1   2
BRANCH   1  21
ATOM     16  C   UNL     1      -3.448   5.742  -3.059  0.00  0.00    +0.094 C 
ATOM     17  C   UNL     1      -3.007   4.281  -3.189  0.00  0.00    -0.004 C 
ATOM     18  C   UNL     1      -3.713   3.443  -2.121  0.00  0.00    -0.077 C 
ATOM     19  C   UNL     1      -3.828   5.344  -0.623  0.00  0.00    -0.077 C 
ATOM     20  C   UNL     1      -3.126   6.239  -1.647  0.00  0.00    -0.004 C 
ATOM     21  N   UNL     1      -3.343   3.957  -0.785  0.00  0.00    +0.387 N 
ATOM     22  H   UNL     1      -2.320   3.950  -0.697  0.00  0.00    -0.080 HD
BRANCH  16  23
ATOM     23  C   UNL     1      -2.712   6.582  -4.070  0.00  0.00    +0.310 C 
ATOM     24  O   UNL     1      -1.916   6.067  -4.819  0.00  0.00    -0.251 OA
BRANCH  23  25
ATOM     25  O   UNL     1      -2.941   7.903  -4.138  0.00  0.00    -0.465 OA
BRANCH  25  27
ATOM     26  C   UNL     1      -2.587  10.128  -5.064  0.00  0.00    +0.048 C 
ATOM     27  C   UNL     1      -2.196   8.650  -5.136  0.00  0.00    +0.229 C 
ENDBRANCH  25  27
ENDBRANCH  23  25
ENDBRANCH  16  23
ENDBRANCH   1  21
BRANCH   1  28
ATOM     28  C   UNL     1      -3.384   3.532   1.603  0.00  0.00    -0.021 A 
ATOM     29  C   UNL     1      -2.180   4.208   1.678  0.00  0.00    +0.005 A 
ATOM     30  C   UNL     1      -1.690   4.615   2.905  0.00  0.00    +0.000 A 
ATOM     31  C   UNL     1      -2.397   4.337   4.060  0.00  0.00    +0.003 A 
ATOM     32  C   UNL     1      -3.598   3.656   3.988  0.00  0.00    +0.038 A 
ATOM     33  C   UNL     1      -4.093   3.253   2.759  0.00  0.00    +0.125 A 
ATOM     34  F   UNL     1      -5.266   2.587   2.688  0.00  0.00    -0.205 F 
ENDBRANCH   1  28
TORSDOF 7
