REMARK  Name = ZINC00241285
REMARK  4 active torsions:
REMARK  status: ('A' for Active; 'I' for Inactive)
REMARK    1  A    between atoms: C_4  and  O_19
REMARK    2  A    between atoms: C_5  and  C_7
REMARK    3  A    between atoms: N_8  and  C_9
REMARK    4  A    between atoms: C_12  and  O_18
REMARK                            x       y       z     vdW  Elec       q    Type
REMARK                         _______ _______ _______ _____ _____    ______ ____
ROOT
ATOM      1  C   UNL     1       2.425  -4.143  -0.047  0.00  0.00    +0.194 A 
ATOM      2  N   UNL     1       3.467  -4.949  -0.057  0.00  0.00    -0.217 NA
ATOM      3  C   UNL     1       3.342  -6.291  -0.064  0.00  0.00    +0.122 A 
ATOM      4  C   UNL     1       4.374  -7.267  -0.075  0.00  0.00    +0.143 A 
ATOM      5  C   UNL     1       4.069  -8.607  -0.082  0.00  0.00    +0.047 A 
ATOM      6  C   UNL     1       2.755  -9.051  -0.078  0.00  0.00    +0.005 A 
ATOM      7  C   UNL     1       1.726  -8.128  -0.067  0.00  0.00    +0.017 A 
ATOM      8  C   UNL     1       2.017  -6.785  -0.060  0.00  0.00    +0.045 A 
ATOM      9  S   UNL     1       1.055  -5.291  -0.039  0.00  0.00    -0.048 S 
ENDROOT
BRANCH   1  11
ATOM     10  C   UNL     1       1.254  -2.153  -0.023  0.00  0.00    +0.125 C 
ATOM     11  N   UNL     1       2.398  -2.784  -0.038  0.00  0.00    -0.229 NA
BRANCH  10  16
ATOM     12  C   UNL     1      -0.017   1.373   0.010  0.00  0.00    +0.001 A 
ATOM     13  C   UNL     1       1.170   2.089   0.002  0.00  0.00    +0.004 A 
ATOM     14  C   UNL     1       2.384   1.431  -0.013  0.00  0.00    +0.046 A 
ATOM     15  C   UNL     1       2.425   0.046  -0.022  0.00  0.00    +0.125 A 
ATOM     16  C   UNL     1       1.225  -0.685  -0.014  0.00  0.00    +0.035 A 
ATOM     17  C   UNL     1       0.002  -0.004   0.002  0.00  0.00    +0.013 A 
BRANCH  15  18
ATOM     18  O   UNL     1       3.617  -0.602  -0.038  0.00  0.00    -0.506 OA
ATOM     19  H   UNL     1       3.972  -0.794   0.841  0.00  0.00    +0.292 HD
ENDBRANCH  15  18
ENDBRANCH  10  16
ENDBRANCH   1  11
BRANCH   4  20
ATOM     20  O   UNL     1       5.674  -6.872  -0.081  0.00  0.00    -0.505 OA
ATOM     21  H   UNL     1       6.055  -6.763   0.801  0.00  0.00    +0.292 HD
ENDBRANCH   4  20
TORSDOF 4
