REMARK  Name = ZINC57485632
REMARK  13 active torsions:
REMARK  status: ('A' for Active; 'I' for Inactive)
REMARK    1  A    between atoms: C_1  and  C_2
REMARK    2  A    between atoms: C_2  and  O_3
REMARK    3  A    between atoms: O_3  and  C_4
REMARK    4  A    between atoms: C_7  and  C_13
REMARK    5  A    between atoms: C_9  and  O_10
REMARK    6  A    between atoms: O_10  and  C_11
REMARK    7  A    between atoms: C_11  and  C_12
REMARK    8  A    between atoms: C_13  and  C_15
REMARK    9  A    between atoms: C_13  and  N_16
REMARK   10  A    between atoms: C_17  and  C_19
REMARK   11  A    between atoms: C_19  and  N_26
REMARK   12  A    between atoms: C_20  and  C_21
REMARK   13  A    between atoms: C_27  and  C_31
REMARK                            x       y       z     vdW  Elec       q    Type
REMARK                         _______ _______ _______ _____ _____    ______ ____
ROOT
ATOM      1  N   UNL     1      -1.225  -6.809  -1.383  0.00  0.00    -0.304 N 
ATOM      2  C   UNL     1      -1.316  -8.074  -1.839  0.00  0.00    +0.263 C 
ATOM      3  O   UNL     1      -2.316  -8.732  -1.614  0.00  0.00    -0.269 OA
ATOM      4  H   UNL     1      -0.400  -6.312  -1.494  0.00  0.00    +0.150 HD
ENDROOT
BRANCH   1   5
ATOM      5  C   UNL     1      -2.373  -6.185  -0.719  0.00  0.00    +0.101 C 
ATOM      6  C   UNL     1      -2.373  -6.564   0.763  0.00  0.00    +0.033 C 
BRANCH   5  10
ATOM      7  C   UNL     1      -2.098  -1.935  -1.103  0.00  0.00    +0.162 A 
ATOM      8  C   UNL     1      -0.961  -2.686  -0.853  0.00  0.00    +0.050 A 
ATOM      9  C   UNL     1      -1.053  -4.059  -0.729  0.00  0.00    +0.009 A 
ATOM     10  C   UNL     1      -2.278  -4.687  -0.854  0.00  0.00    -0.024 A 
ATOM     11  C   UNL     1      -3.417  -3.944  -1.104  0.00  0.00    +0.055 A 
ATOM     12  C   UNL     1      -3.332  -2.566  -1.224  0.00  0.00    +0.162 A 
BRANCH   7  13
ATOM     13  O   UNL     1      -2.009  -0.583  -1.224  0.00  0.00    -0.489 OA
BRANCH  13  15
ATOM     14  C   UNL     1      -0.809   1.514  -1.255  0.00  0.00    +0.048 C 
ATOM     15  C   UNL     1      -0.710  -0.004  -1.089  0.00  0.00    +0.226 C 
ENDBRANCH  13  15
ENDBRANCH   7  13
BRANCH  12  16
ATOM     16  O   UNL     1      -4.452  -1.833  -1.464  0.00  0.00    -0.489 OA
BRANCH  16  17
ATOM     17  C   UNL     1      -5.684  -2.548  -1.575  0.00  0.00    +0.226 C 
ATOM     18  C   UNL     1      -6.824  -1.563  -1.844  0.00  0.00    +0.048 C 
ENDBRANCH  16  17
ENDBRANCH  12  16
ENDBRANCH   5  10
ENDBRANCH   1   5
BRANCH   2  19
ATOM     19  C   UNL     1      -0.213  -8.657  -2.605  0.00  0.00    +0.134 C 
ATOM     20  C   UNL     1      -0.342  -9.900  -3.145  0.00  0.00    +0.079 C 
BRANCH  20  21
ATOM     21  C   UNL     1       0.748 -10.491  -3.828  0.00  0.00    +0.130 A 
ATOM     22  C   UNL     1       0.729 -11.696  -4.500  0.00  0.00    +0.049 A 
ATOM     23  C   UNL     1       2.018 -11.883  -5.021  0.00  0.00    +0.042 A 
ATOM     24  C   UNL     1       2.756 -10.811  -4.656  0.00  0.00    +0.195 A 
ATOM     25  O   UNL     1       1.988  -9.973  -3.944  0.00  0.00    -0.463 OA
ENDBRANCH  20  21
BRANCH  19  26
ATOM     26  N   UNL     1       0.974  -7.936  -2.783  0.00  0.00    -0.188 N 
ATOM     27  C   UNL     1       2.096  -7.981  -2.009  0.00  0.00    +0.187 A 
ATOM     28  N   UNL     1       2.962  -7.144  -2.542  0.00  0.00    -0.108 NA
ATOM     29  N   UNL     1       2.465  -6.585  -3.585  0.00  0.00    -0.022 NA
ATOM     30  N   UNL     1       1.269  -7.013  -3.802  0.00  0.00    -0.038 NA
BRANCH  27  31
ATOM     31  C   UNL     1       2.300  -8.811  -0.802  0.00  0.00    +0.021 A 
ATOM     32  C   UNL     1       1.206  -9.382  -0.151  0.00  0.00    +0.011 A 
ATOM     33  C   UNL     1       1.404 -10.155   0.975  0.00  0.00    +0.001 A 
ATOM     34  C   UNL     1       2.683 -10.365   1.458  0.00  0.00    +0.000 A 
ATOM     35  C   UNL     1       3.772  -9.802   0.817  0.00  0.00    +0.001 A 
ATOM     36  C   UNL     1       3.588  -9.031  -0.313  0.00  0.00    +0.011 A 
ENDBRANCH  27  31
ENDBRANCH  19  26
ENDBRANCH   2  19
TORSDOF 10
