REMARK  Name = ZINC31046057
REMARK  8 active torsions:
REMARK  status: ('A' for Active; 'I' for Inactive)
REMARK    1  A    between atoms: N_9  and  C_10
REMARK    2  A    between atoms: C_10  and  C_11
REMARK    3  A    between atoms: C_11  and  C_12
REMARK    4  A    between atoms: C_12  and  N_13
REMARK    5  A    between atoms: C_14  and  C_16
REMARK    6  A    between atoms: N_21  and  C_23
REMARK    7  A    between atoms: C_23  and  C_24
REMARK    8  A    between atoms: C_26  and  C_29
REMARK                            x       y       z     vdW  Elec       q    Type
REMARK                         _______ _______ _______ _____ _____    ______ ____
ROOT
ATOM      1  C   UNL     1       1.905   5.801   6.993  0.00  0.00    +0.058 C 
ATOM      2  C   UNL     1       0.553   5.093   7.117  0.00  0.00    +0.009 C 
ATOM      3  C   UNL     1       0.306   4.733   8.585  0.00  0.00    -0.018 C 
ATOM      4  C   UNL     1       0.358   6.006   9.433  0.00  0.00    -0.078 C 
ATOM      5  N   UNL     1       1.671   6.644   9.280  0.00  0.00    +0.386 N 
ATOM      6  C   UNL     1       1.910   7.042   7.887  0.00  0.00    -0.065 C 
ATOM      7  H   UNL     1       2.438   5.904   9.553  0.00  0.00    -0.081 HD
ENDROOT
BRANCH   1   9
ATOM      8  N   UNL     1       2.161   5.278   4.588  0.00  0.00    -0.315 N 
ATOM      9  C   UNL     1       2.128   6.211   5.560  0.00  0.00    +0.214 C 
ATOM     10  O   UNL     1       2.278   7.382   5.281  0.00  0.00    -0.276 OA
ATOM     11  H   UNL     1       2.025   4.216   4.841  0.00  0.00    +0.149 HD
BRANCH   8  12
ATOM     12  C   UNL     1       2.378   5.677   3.196  0.00  0.00    +0.105 C 
BRANCH  12  13
ATOM     13  C   UNL     1       2.371   4.436   2.302  0.00  0.00    +0.037 C 
BRANCH  13  14
ATOM     14  C   UNL     1       2.598   4.853   0.848  0.00  0.00    +0.106 C 
BRANCH  14  23
ATOM     15  C   UNL     1       2.741   4.294  -4.108  0.00  0.00    +0.000 A 
ATOM     16  C   UNL     1       3.460   5.186  -3.333  0.00  0.00    +0.002 A 
ATOM     17  C   UNL     1       3.498   5.041  -1.962  0.00  0.00    +0.023 A 
ATOM     18  C   UNL     1       2.808   3.997  -1.347  0.00  0.00    +0.033 A 
ATOM     19  C   UNL     1       2.080   3.113  -2.134  0.00  0.00    -0.025 A 
ATOM     20  C   UNL     1       2.047   3.261  -3.505  0.00  0.00    +0.005 A 
ATOM     21  C   UNL     1       1.424   2.102  -1.215  0.00  0.00    +0.056 C 
ATOM     22  C   UNL     1       1.542   2.771   0.173  0.00  0.00    +0.110 C 
ATOM     23  N   UNL     1       2.717   3.654   0.007  0.00  0.00    -0.329 N 
ENDBRANCH  14  23
ENDBRANCH  13  14
ENDBRANCH  12  13
ENDBRANCH   8  12
ENDBRANCH   1   9
BRANCH   5  24
ATOM     24  C   UNL     1       1.806   7.793  10.186  0.00  0.00    +0.022 C 
BRANCH  24  25
ATOM     25  C   UNL     1       1.800   7.310  11.614  0.00  0.00    +0.211 A 
ATOM     26  N   UNL     1       2.845   6.961  12.322  0.00  0.00    -0.193 NA
ATOM     27  C   UNL     1       2.361   6.602  13.532  0.00  0.00    +0.202 A 
ATOM     28  N   UNL     1       1.063   6.754  13.489  0.00  0.00    -0.056 NA
ATOM     29  O   UNL     1       0.727   7.164  12.398  0.00  0.00    -0.340 OA
BRANCH  27  30
ATOM     30  C   UNL     1       3.154   6.126  14.692  0.00  0.00    +0.023 A 
ATOM     31  C   UNL     1       4.538   6.007  14.591  0.00  0.00    +0.013 A 
ATOM     32  C   UNL     1       5.272   5.570  15.675  0.00  0.00    +0.021 A 
ATOM     33  C   UNL     1       4.633   5.237  16.857  0.00  0.00    +0.041 A 
ATOM     34  C   UNL     1       3.257   5.347  16.961  0.00  0.00    +0.021 A 
ATOM     35  C   UNL     1       2.515   5.790  15.884  0.00  0.00    +0.013 A 
ATOM     36 CL   UNL     1       5.561   4.680  18.215  0.00  0.00    -0.084 Cl
ENDBRANCH  27  30
ENDBRANCH  24  25
ENDBRANCH   5  24
TORSDOF 8
