REMARK  Name = ZINC38223007
REMARK  12 active torsions:
REMARK  status: ('A' for Active; 'I' for Inactive)
REMARK    1  A    between atoms: C_1  and  C_2
REMARK    2  A    between atoms: C_2  and  C_3
REMARK    3  A    between atoms: C_3  and  O_4
REMARK    4  A    between atoms: O_4  and  C_5
REMARK    5  A    between atoms: C_5  and  C_7
REMARK    6  A    between atoms: C_8  and  C_29
REMARK    7  A    between atoms: C_15  and  C_17
REMARK    8  A    between atoms: C_19  and  O_26
REMARK    9  A    between atoms: C_20  and  O_24
REMARK   10  A    between atoms: O_24  and  C_25
REMARK   11  A    between atoms: O_26  and  C_27
REMARK   12  A    between atoms: C_27  and  C_28
REMARK                            x       y       z     vdW  Elec       q    Type
REMARK                         _______ _______ _______ _____ _____    ______ ____
ROOT
ATOM      1  C   UNL     1       1.835  -4.037  -2.235  0.00  0.00    +0.084 C 
ATOM      2  C   UNL     1       2.208  -4.756  -3.354  0.00  0.00    +0.054 C 
ATOM      3  N   UNL     1       2.025  -6.064  -3.423  0.00  0.00    -0.221 NA
ATOM      4  C   UNL     1       1.485  -6.804  -2.466  0.00  0.00    +0.209 C 
ATOM      5  N   UNL     1       1.232  -8.143  -2.390  0.00  0.00    -0.275 N 
ATOM      6  C   UNL     1       0.656  -8.404  -1.174  0.00  0.00    +0.208 C 
ATOM      7  N   UNL     1       0.547  -7.295  -0.512  0.00  0.00    -0.169 NA
ATOM      8  N   UNL     1       1.062  -6.264  -1.302  0.00  0.00    -0.181 N 
ATOM      9  C   UNL     1       1.212  -4.818  -1.092  0.00  0.00    +0.170 C 
ATOM     10  C   UNL     1       2.837  -4.036  -4.519  0.00  0.00    +0.066 C 
ATOM     11  H   UNL     1       1.427  -8.797  -3.079  0.00  0.00    +0.156 HD
ENDROOT
BRANCH   9  12
ATOM     12  C   UNL     1       2.056  -4.603   0.138  0.00  0.00    -0.016 A 
ATOM     13  C   UNL     1       1.585  -3.811   1.169  0.00  0.00    +0.055 A 
ATOM     14  C   UNL     1       2.359  -3.612   2.300  0.00  0.00    +0.163 A 
ATOM     15  C   UNL     1       3.611  -4.211   2.397  0.00  0.00    +0.175 A 
ATOM     16  C   UNL     1       4.079  -5.004   1.360  0.00  0.00    +0.063 A 
ATOM     17  C   UNL     1       3.298  -5.202   0.235  0.00  0.00    +0.025 A 
ATOM     18 BR   UNL     1       5.780  -5.819   1.487  0.00  0.00    -0.046 Br
BRANCH  15  19
ATOM     19  O   UNL     1       4.375  -4.018   3.505  0.00  0.00    -0.490 OA
ATOM     20  C   UNL     1       4.210  -4.948   4.577  0.00  0.00    +0.277 C 
ENDBRANCH  15  19
BRANCH  14  21
ATOM     21  O   UNL     1       1.896  -2.833   3.314  0.00  0.00    -0.489 OA
BRANCH  21  22
ATOM     22  C   UNL     1       0.559  -2.342   3.197  0.00  0.00    +0.226 C 
ATOM     23  C   UNL     1       0.256  -1.405   4.368  0.00  0.00    +0.048 C 
ENDBRANCH  21  22
ENDBRANCH  14  21
ENDBRANCH   9  12
BRANCH   1  24
ATOM     24  C   UNL     1       2.027  -2.651  -2.157  0.00  0.00    +0.339 C 
ATOM     25  O   UNL     1       2.649  -2.072  -3.031  0.00  0.00    -0.245 OA
BRANCH  24  26
ATOM     26  O   UNL     1       1.523  -1.956  -1.113  0.00  0.00    -0.461 OA
BRANCH  26  27
ATOM     27  C   UNL     1       1.661  -0.535  -1.153  0.00  0.00    +0.232 C 
BRANCH  27  29
ATOM     28  C   UNL     1       1.403   1.572   0.165  0.00  0.00    +0.007 C 
ATOM     29  C   UNL     1       1.146   0.064   0.158  0.00  0.00    +0.038 C 
ENDBRANCH  27  29
ENDBRANCH  26  27
ENDBRANCH  24  26
ENDBRANCH   1  24
TORSDOF 8
