REMARK  Name = ZINC38917995
REMARK  11 active torsions:
REMARK  status: ('A' for Active; 'I' for Inactive)
REMARK    1  A    between atoms: C_1  and  C_2
REMARK    2  A    between atoms: C_19  and  C_21
REMARK    3  A    between atoms: C_21  and  N_22
REMARK    4  A    between atoms: N_22  and  C_23
REMARK    5  A    between atoms: C_23  and  C_24
REMARK    6  A    between atoms: C_24  and  C_25
REMARK    7  A    between atoms: C_25  and  C_33
REMARK    8  A    between atoms: C_29  and  C_31
REMARK    9  A    between atoms: C_29  and  C_32
REMARK   10  A    between atoms: C_36  and  O_39
REMARK   11  A    between atoms: O_39  and  C_40
REMARK                            x       y       z     vdW  Elec       q    Type
REMARK                         _______ _______ _______ _____ _____    ______ ____
ROOT
ATOM      1  N   UNL     1       5.980   0.622  -2.275  0.00  0.00    +0.380 N 
ATOM      2  H   UNL     1       6.004   1.536  -2.700  0.00  0.00    -0.086 HD
ATOM      3  H   UNL     1       5.717   0.709  -1.305  0.00  0.00    -0.086 HD
ENDROOT
BRANCH   1   4
ATOM      4  C   UNL     1       5.000  -0.218  -2.975  0.00  0.00    -0.068 C 
BRANCH   4  20
ATOM      5  C   UNL     1      -0.098   1.565  -4.397  0.00  0.00    +0.012 C 
ATOM      6  C   UNL     1      -0.076   0.079  -4.763  0.00  0.00    -0.022 C 
ATOM      7  C   UNL     1      -1.364  -0.287  -5.497  0.00  0.00    +0.007 C 
ATOM      8  C   UNL     1      -2.573   0.082  -4.635  0.00  0.00    +0.005 C 
ATOM      9  C   UNL     1      -2.555  -0.743  -3.344  0.00  0.00    +0.030 C 
ATOM     10  C   UNL     1      -1.216  -0.551  -2.664  0.00  0.00    -0.073 C 
ATOM     11  C   UNL     1      -1.143  -0.210  -1.402  0.00  0.00    +0.008 C 
ATOM     12  C   UNL     1       0.035  -0.765  -3.485  0.00  0.00    +0.021 C 
ATOM     13  C   UNL     1       1.250  -0.281  -2.700  0.00  0.00    +0.016 C 
ATOM     14  C   UNL     1       2.533  -0.506  -3.504  0.00  0.00    +0.042 C 
ATOM     15  C   UNL     1       2.418   0.109  -4.912  0.00  0.00    +0.181 C 
ATOM     16  C   UNL     1       1.147  -0.219  -5.629  0.00  0.00    +0.052 C 
ATOM     17  O   UNL     1       2.555   1.517  -4.681  0.00  0.00    -0.461 OA
ATOM     18  C   UNL     1       3.531   1.684  -3.761  0.00  0.00    +0.309 C 
ATOM     19  O   UNL     1       4.229   2.664  -3.649  0.00  0.00    -0.251 OA
ATOM     20  C   UNL     1       3.615   0.426  -2.878  0.00  0.00    +0.087 C 
ENDBRANCH   4  20
ENDBRANCH   1   4
BRANCH   1  21
ATOM     21  C   UNL     1       7.309   0.004  -2.367  0.00  0.00    -0.082 C 
BRANCH  21  22
ATOM     22  C   UNL     1       8.331   0.878  -1.638  0.00  0.00    -0.007 C 
BRANCH  22  23
ATOM     23  C   UNL     1       9.736   0.314  -1.858  0.00  0.00    -0.001 C 
ATOM     24  C   UNL     1      10.768   1.237  -1.204  0.00  0.00    +0.039 C 
ATOM     25  C   UNL     1      10.719   2.608  -1.884  0.00  0.00    +0.161 C 
ATOM     26  O   UNL     1      10.964   2.452  -3.283  0.00  0.00    -0.374 OA
ATOM     27  C   UNL     1      10.004   1.637  -3.957  0.00  0.00    +0.065 C 
ATOM     28  C   UNL     1      10.024   0.228  -3.360  0.00  0.00    +0.046 C 
ATOM     29  C   UNL     1       8.610   2.244  -3.786  0.00  0.00    +0.041 C 
ATOM     30  C   UNL     1      10.350   1.565  -5.446  0.00  0.00    +0.041 C 
BRANCH  23  31
ATOM     31  C   UNL     1       9.828  -1.061  -1.247  0.00  0.00    -0.041 A 
ATOM     32  C   UNL     1      10.029  -2.164  -2.057  0.00  0.00    +0.008 A 
ATOM     33  C   UNL     1      10.113  -3.425  -1.500  0.00  0.00    +0.046 A 
ATOM     34  C   UNL     1       9.996  -3.584  -0.126  0.00  0.00    +0.120 A 
ATOM     35  C   UNL     1       9.795  -2.476   0.684  0.00  0.00    +0.046 A 
ATOM     36  C   UNL     1       9.717  -1.217   0.122  0.00  0.00    +0.008 A 
BRANCH  34  37
ATOM     37  O   UNL     1      10.079  -4.824   0.424  0.00  0.00    -0.495 OA
ATOM     38  C   UNL     1       9.950  -4.913   1.845  0.00  0.00    +0.277 C 
ENDBRANCH  34  37
ENDBRANCH  23  31
ENDBRANCH  22  23
ENDBRANCH  21  22
ENDBRANCH   1  21
TORSDOF 7
