REMARK  Name = ZINC09312236
REMARK  17 active torsions:
REMARK  status: ('A' for Active; 'I' for Inactive)
REMARK    1  A    between atoms: C_1  and  C_2
REMARK    2  A    between atoms: C_2  and  N_77
REMARK    3  A    between atoms: C_3  and  C_4
REMARK    4  A    between atoms: C_3  and  N_77
REMARK    5  A    between atoms: C_5  and  C_6
REMARK    6  A    between atoms: C_5  and  N_77
REMARK    7  A    between atoms: C_6  and  N_7
REMARK    8  A    between atoms: C_8  and  C_28
REMARK    9  A    between atoms: C_11  and  C_12
REMARK   10  A    between atoms: C_11  and  O_23
REMARK   11  A    between atoms: C_19  and  C_22
REMARK   12  A    between atoms: C_31  and  O_37
REMARK   13  A    between atoms: C_32  and  O_34
REMARK   14  A    between atoms: O_34  and  C_35
REMARK   15  A    between atoms: C_35  and  C_36
REMARK   16  A    between atoms: O_37  and  C_38
REMARK   17  A    between atoms: C_38  and  C_39
REMARK                            x       y       z     vdW  Elec       q    Type
REMARK                         _______ _______ _______ _____ _____    ______ ____
ROOT
ATOM      1  N   UNL     1      -4.692   3.519   1.667  0.00  0.00    -0.285 N 
ATOM      2  C   UNL     1      -3.898   3.595   0.437  0.00  0.00    +0.144 C 
ATOM      3  C   UNL     1      -4.880   3.655  -0.710  0.00  0.00    +0.071 C 
ATOM      4  C   UNL     1      -4.581   3.736  -2.056  0.00  0.00    +0.133 C 
ATOM      5  C   UNL     1      -6.158   3.612  -0.131  0.00  0.00    +0.249 C 
ATOM      6  O   UNL     1      -7.217   3.640  -0.733  0.00  0.00    -0.282 OA
ATOM      7  C   UNL     1      -5.997   3.528   1.346  0.00  0.00    +0.288 C 
ATOM      8  O   UNL     1      -6.910   3.475   2.144  0.00  0.00    -0.266 OA
ENDROOT
BRANCH   4   9
ATOM      9  C   UNL     1      -5.655   3.640  -3.056  0.00  0.00    +0.017 A 
ATOM     10  C   UNL     1      -6.568   2.579  -3.013  0.00  0.00    +0.015 A 
ATOM     11  C   UNL     1      -7.576   2.497  -3.942  0.00  0.00    +0.046 A 
ATOM     12  C   UNL     1      -7.695   3.462  -4.945  0.00  0.00    +0.124 A 
ATOM     13  C   UNL     1      -6.777   4.508  -4.992  0.00  0.00    -0.002 A 
ATOM     14  C   UNL     1      -5.771   4.607  -4.064  0.00  0.00    +0.019 A 
ATOM     15  C   UNL     1      -7.145   5.367  -6.187  0.00  0.00    +0.083 C 
ATOM     16  C   UNL     1      -8.095   4.432  -6.971  0.00  0.00    +0.175 C 
ATOM     17  O   UNL     1      -8.610   3.567  -5.945  0.00  0.00    -0.488 OA
ATOM     18  C   UNL     1      -7.323   3.630  -8.020  0.00  0.00    +0.052 C 
ENDBRANCH   4   9
BRANCH   2  19
ATOM     19  C   UNL     1      -3.028   2.372   0.307  0.00  0.00    -0.019 A 
ATOM     20  C   UNL     1      -3.525   1.131   0.662  0.00  0.00    +0.009 A 
ATOM     21  C   UNL     1      -2.728   0.007   0.550  0.00  0.00    +0.050 A 
ATOM     22  C   UNL     1      -1.433   0.120   0.071  0.00  0.00    +0.162 A 
ATOM     23  C   UNL     1      -0.935   1.368  -0.291  0.00  0.00    +0.162 A 
ATOM     24  C   UNL     1      -1.736   2.492  -0.171  0.00  0.00    +0.055 A 
BRANCH  23  25
ATOM     25  O   UNL     1       0.336   1.484  -0.761  0.00  0.00    -0.489 OA
BRANCH  25  26
ATOM     26  C   UNL     1       0.780   2.796  -1.113  0.00  0.00    +0.226 C 
ATOM     27  C   UNL     1       2.223   2.728  -1.617  0.00  0.00    +0.048 C 
ENDBRANCH  25  26
ENDBRANCH  23  25
BRANCH  22  28
ATOM     28  O   UNL     1      -0.650  -0.986  -0.045  0.00  0.00    -0.484 OA
BRANCH  28  29
ATOM     29  C   UNL     1      -1.228  -2.234   0.344  0.00  0.00    +0.256 C 
BRANCH  29  30
ATOM     30  C   UNL     1      -0.221  -3.337   0.147  0.00  0.00    +0.006 C 
ATOM     31  C   UNL     1      -0.050  -4.242   1.079  0.00  0.00    +0.007 C 
ENDBRANCH  29  30
ENDBRANCH  28  29
ENDBRANCH  22  28
ENDBRANCH   2  19
BRANCH   4  32
ATOM     32  O   UNL     1      -3.301   3.904  -2.454  0.00  0.00    -0.506 OA
ATOM     33  H   UNL     1      -3.265   3.942  -3.452  0.00  0.00    +0.292 HD
ENDBRANCH   4  32
BRANCH   1  34
ATOM     34  C   UNL     1      -4.150   3.445   3.026  0.00  0.00    +0.090 C 
BRANCH  34  35
ATOM     35  C   UNL     1      -3.973   4.859   3.582  0.00  0.00    -0.060 C 
BRANCH  35  36
ATOM     36  N   UNL     1      -3.446   4.767   4.960  0.00  0.00    +0.380 N 
ATOM     37  H   UNL     1      -4.040   4.129   5.502  0.00  0.00    -0.082 HD
BRANCH  36  39
ATOM     38  C   UNL     1      -1.145   5.172   4.152  0.00  0.00    -0.017 C 
ATOM     39  C   UNL     1      -2.066   4.238   4.939  0.00  0.00    -0.082 C 
ENDBRANCH  36  39
BRANCH  36  40
ATOM     40  C   UNL     1      -3.466   6.100   5.598  0.00  0.00    -0.082 C 
ATOM     41  C   UNL     1      -3.221   5.931   7.099  0.00  0.00    -0.017 C 
ENDBRANCH  36  40
ENDBRANCH  35  36
ENDBRANCH  34  35
ENDBRANCH   1  34
TORSDOF 13
