REMARK  Name = ZINC00679673
REMARK  11 active torsions:
REMARK  status: ('A' for Active; 'I' for Inactive)
REMARK    1  A    between atoms: C_1  and  C_2
REMARK    2  A    between atoms: C_2  and  O_3
REMARK    3  A    between atoms: O_3  and  C_4
REMARK    4  A    between atoms: C_4  and  C_6
REMARK    5  A    between atoms: C_6  and  O_7
REMARK    6  A    between atoms: O_7  and  C_8
REMARK    7  A    between atoms: C_9  and  C_17
REMARK    8  A    between atoms: C_13  and  O_14
REMARK    9  A    between atoms: O_14  and  C_15
REMARK   10  A    between atoms: N_28  and  C_29
REMARK   11  A    between atoms: C_33  and  C_35
REMARK                            x       y       z     vdW  Elec       q    Type
REMARK                         _______ _______ _______ _____ _____    ______ ____
ROOT
ATOM      1  C   UNL     1      -3.793  -4.458   2.627  0.00  0.00    +0.201 C 
ATOM      2  N   UNL     1      -2.337  -4.592   2.500  0.00  0.00    -0.321 N 
ATOM      3  C   UNL     1      -1.790  -5.866   2.395  0.00  0.00    +0.041 A 
ATOM      4  C   UNL     1      -0.604  -6.096   1.717  0.00  0.00    +0.024 A 
ATOM      5  C   UNL     1      -0.093  -7.378   1.649  0.00  0.00    +0.002 A 
ATOM      6  C   UNL     1      -0.756  -8.434   2.253  0.00  0.00    +0.001 A 
ATOM      7  C   UNL     1      -1.940  -8.223   2.929  0.00  0.00    +0.015 A 
ATOM      8  C   UNL     1      -2.470  -6.936   3.002  0.00  0.00    +0.058 A 
ATOM      9  C   UNL     1      -3.743  -6.663   3.691  0.00  0.00    +0.254 C 
ATOM     10  O   UNL     1      -4.273  -7.526   4.365  0.00  0.00    -0.270 OA
ATOM     11  N   UNL     1      -4.312  -5.451   3.568  0.00  0.00    -0.244 N 
ATOM     12  H   UNL     1      -1.768  -3.807   2.490  0.00  0.00    +0.148 HD
ENDROOT
BRANCH   1  14
ATOM     13  C   UNL     1      -3.785  -4.237   0.131  0.00  0.00    +0.169 A 
ATOM     14  C   UNL     1      -4.433  -4.666   1.279  0.00  0.00    +0.038 A 
ATOM     15  C   UNL     1      -5.665  -5.285   1.187  0.00  0.00    +0.031 A 
ATOM     16  C   UNL     1      -6.255  -5.479  -0.050  0.00  0.00    +0.045 A 
ATOM     17  C   UNL     1      -5.613  -5.053  -1.199  0.00  0.00    +0.069 A 
ATOM     18  C   UNL     1      -4.380  -4.426  -1.112  0.00  0.00    +0.163 A 
ATOM     19 CL   UNL     1      -7.802  -6.258  -0.160  0.00  0.00    -0.083 Cl
BRANCH  18  20
ATOM     20  O   UNL     1      -3.751  -4.001  -2.240  0.00  0.00    -0.491 OA
ATOM     21  C   UNL     1      -4.421  -4.228  -3.482  0.00  0.00    +0.277 C 
ENDBRANCH  18  20
BRANCH  13  22
ATOM     22  O   UNL     1      -2.572  -3.628   0.221  0.00  0.00    -0.477 OA
BRANCH  22  23
ATOM     23  C   UNL     1      -2.570  -2.206   0.367  0.00  0.00    +0.349 C 
BRANCH  23  24
ATOM     24  C   UNL     1      -1.149  -1.712   0.449  0.00  0.00    +0.345 C 
ATOM     25  O   UNL     1      -0.232  -2.497   0.389  0.00  0.00    -0.247 OA
BRANCH  24  26
ATOM     26  O   UNL     1      -0.901  -0.400   0.590  0.00  0.00    -0.463 OA
BRANCH  26  28
ATOM     27  C   UNL     1       0.552   1.517   0.820  0.00  0.00    +0.048 C 
ATOM     28  C   UNL     1       0.469  -0.003   0.661  0.00  0.00    +0.229 C 
ENDBRANCH  26  28
ENDBRANCH  24  26
ENDBRANCH  23  24
ENDBRANCH  22  23
ENDBRANCH  13  22
ENDBRANCH   1  14
BRANCH  11  29
ATOM     29  C   UNL     1      -5.423  -5.136   4.356  0.00  0.00    +0.039 A 
ATOM     30  C   UNL     1      -6.565  -5.926   4.295  0.00  0.00    +0.023 A 
ATOM     31  C   UNL     1      -7.661  -5.613   5.075  0.00  0.00    +0.002 A 
ATOM     32  C   UNL     1      -7.623  -4.514   5.915  0.00  0.00    +0.003 A 
ATOM     33  C   UNL     1      -6.488  -3.727   5.977  0.00  0.00    -0.049 A 
ATOM     34  C   UNL     1      -5.387  -4.038   5.204  0.00  0.00    +0.027 A 
ATOM     35  C   UNL     1      -6.452  -2.531   6.893  0.00  0.00    +0.044 C 
ENDBRANCH  11  29
TORSDOF 8
