REMARK  Name = ZINC02463508
REMARK  10 active torsions:
REMARK  status: ('A' for Active; 'I' for Inactive)
REMARK    1  A    between atoms: C_1  and  C_2
REMARK    2  A    between atoms: C_2  and  C_3
REMARK    3  A    between atoms: C_8  and  C_23
REMARK    4  A    between atoms: C_10  and  C_16
REMARK    5  A    between atoms: C_11  and  C_15
REMARK    6  A    between atoms: C_16  and  O_18
REMARK    7  A    between atoms: O_18  and  C_19
REMARK    8  A    between atoms: C_19  and  C_20
REMARK    9  A    between atoms: C_20  and  C_21
REMARK   10  A    between atoms: C_20  and  C_22
REMARK                            x       y       z     vdW  Elec       q    Type
REMARK                         _______ _______ _______ _____ _____    ______ ____
ROOT
ATOM      1  C   UNL     1      -2.517  -0.682  -2.755  0.00  0.00    +0.140 C 
ATOM      2  C   UNL     1      -1.456  -0.011  -1.908  0.00  0.00    +0.235 C 
ATOM      3  O   UNL     1      -0.819   0.934  -2.322  0.00  0.00    -0.274 OA
ATOM      4  N   UNL     1      -1.252  -0.510  -0.680  0.00  0.00    -0.238 N 
ATOM      5  C   UNL     1      -0.253   0.015   0.297  0.00  0.00    +0.152 C 
ATOM      6  C   UNL     1      -0.166  -0.677   1.637  0.00  0.00    +0.083 C 
ATOM      7  C   UNL     1      -0.998  -1.733   1.871  0.00  0.00    +0.053 C 
ATOM      8  N   UNL     1      -1.857  -2.133   0.942  0.00  0.00    -0.230 NA
ATOM      9  C   UNL     1      -1.992  -1.586  -0.240  0.00  0.00    +0.164 C 
ATOM     10  S   UNL     1      -3.080  -1.988  -1.595  0.00  0.00    -0.077 S 
ATOM     11  C   UNL     1      -0.942  -2.451   3.196  0.00  0.00    +0.066 C 
ENDROOT
BRANCH   5  12
ATOM     12  C   UNL     1      -0.570   1.467   0.547  0.00  0.00    -0.022 A 
ATOM     13  C   UNL     1      -1.853   1.845   0.896  0.00  0.00    +0.008 A 
ATOM     14  C   UNL     1      -2.143   3.176   1.130  0.00  0.00    +0.038 A 
ATOM     15  C   UNL     1      -1.150   4.132   1.003  0.00  0.00    +0.123 A 
ATOM     16  C   UNL     1       0.134   3.754   0.648  0.00  0.00    +0.038 A 
ATOM     17  C   UNL     1       0.422   2.422   0.420  0.00  0.00    +0.008 A 
ATOM     18  F   UNL     1      -1.433   5.434   1.227  0.00  0.00    -0.205 F 
ENDBRANCH   5  12
BRANCH   1  20
ATOM     19  C   UNL     1      -3.032  -1.844  -4.905  0.00  0.00    +0.005 C 
ATOM     20  C   UNL     1      -1.913  -1.289  -4.023  0.00  0.00    +0.020 C 
ENDBRANCH   1  20
BRANCH   6  21
ATOM     21  C   UNL     1       0.748  -0.246   2.615  0.00  0.00    +0.339 C 
ATOM     22  O   UNL     1       1.915  -0.588   2.550  0.00  0.00    -0.245 OA
BRANCH  21  23
ATOM     23  O   UNL     1       0.331   0.546   3.626  0.00  0.00    -0.461 OA
BRANCH  23  24
ATOM     24  C   UNL     1       1.302   0.908   4.609  0.00  0.00    +0.235 C 
BRANCH  24  25
ATOM     25  C   UNL     1       0.625   1.706   5.726  0.00  0.00    +0.020 C 
ATOM     26  C   UNL     1      -0.391   0.816   6.444  0.00  0.00    +0.010 C 
ATOM     27  C   UNL     1       1.682   2.184   6.724  0.00  0.00    +0.010 C 
ENDBRANCH  24  25
ENDBRANCH  23  24
ENDBRANCH  21  23
ENDBRANCH   6  21
TORSDOF 6
