REMARK  Name = ZINC08587300
REMARK  5 active torsions:
REMARK  status: ('A' for Active; 'I' for Inactive)
REMARK    1  A    between atoms: C_1  and  N_2
REMARK    2  A    between atoms: N_2  and  C_3
REMARK    3  A    between atoms: N_2  and  C_4
REMARK    4  A    between atoms: C_7  and  C_10
REMARK    5  A    between atoms: N_20  and  C_23
REMARK                            x       y       z     vdW  Elec       q    Type
REMARK                         _______ _______ _______ _____ _____    ______ ____
ROOT
ATOM      1  C   UNL     1      -4.902  -2.740   0.071  0.00  0.00    +0.087 C 
ATOM      2  C   UNL     1      -5.709  -2.475   1.310  0.00  0.00    +0.071 C 
ATOM      3  C   UNL     1      -6.730  -3.529   1.557  0.00  0.00    +0.027 C 
ATOM      4  C   UNL     1      -6.915  -3.870   2.885  0.00  0.00    +0.116 C 
ATOM      5  C   UNL     1      -6.485  -2.979   3.975  0.00  0.00    +0.258 C 
ATOM      6  O   UNL     1      -5.951  -1.911   3.736  0.00  0.00    -0.270 OA
ATOM      7  N   UNL     1      -6.698  -3.377   5.247  0.00  0.00    -0.235 N 
ATOM      8  C   UNL     1      -7.285  -4.550   5.524  0.00  0.00    +0.316 C 
ATOM      9  O   UNL     1      -7.448  -4.850   6.690  0.00  0.00    -0.252 OA
ATOM     10  N   UNL     1      -7.702  -5.409   4.583  0.00  0.00    -0.218 N 
ATOM     11  C   UNL     1      -7.558  -5.139   3.269  0.00  0.00    +0.261 C 
ATOM     12  O   UNL     1      -7.945  -5.925   2.425  0.00  0.00    -0.269 OA
ATOM     13  N   UNL     1      -7.466  -4.169   0.718  0.00  0.00    -0.316 N 
ATOM     14  C   UNL     1      -7.591  -4.422  -0.621  0.00  0.00    +0.045 A 
ATOM     15  C   UNL     1      -8.489  -5.457  -0.938  0.00  0.00    +0.024 A 
ATOM     16  C   UNL     1      -8.728  -5.835  -2.236  0.00  0.00    +0.002 A 
ATOM     17  C   UNL     1      -8.073  -5.187  -3.269  0.00  0.00    +0.001 A 
ATOM     18  C   UNL     1      -7.194  -4.172  -2.978  0.00  0.00    +0.016 A 
ATOM     19  C   UNL     1      -6.940  -3.773  -1.658  0.00  0.00    +0.030 A 
ATOM     20  S   UNL     1      -5.803  -2.461  -1.447  0.00  0.00    -0.115 S 
ATOM     21  H   UNL     1      -6.420  -2.801   5.976  0.00  0.00    +0.159 HD
ATOM     22  H   UNL     1      -8.173  -4.628   1.198  0.00  0.00    +0.152 HD
ENDROOT
BRANCH   1  26
ATOM     23  C   UNL     1      -1.472  -0.190   0.107  0.00  0.00    +0.029 A 
ATOM     24  C   UNL     1      -1.314  -1.570   0.128  0.00  0.00    +0.023 A 
ATOM     25  C   UNL     1      -2.425  -2.391   0.116  0.00  0.00    +0.006 A 
ATOM     26  C   UNL     1      -3.693  -1.841   0.085  0.00  0.00    -0.034 A 
ATOM     27  C   UNL     1      -3.854  -0.467   0.064  0.00  0.00    +0.006 A 
ATOM     28  C   UNL     1      -2.748   0.359   0.081  0.00  0.00    +0.023 A 
BRANCH  23  30
ATOM     29  C   UNL     1      -0.520   2.098   0.104  0.00  0.00    +0.129 C 
ATOM     30  N   UNL     1      -0.351   0.643   0.119  0.00  0.00    -0.336 N 
ATOM     31  C   UNL     1       0.994   0.061   0.147  0.00  0.00    +0.129 C 
ENDBRANCH  23  30
ENDBRANCH   1  26
BRANCH  10  32
ATOM     32  C   UNL     1      -8.332  -6.666   4.991  0.00  0.00    +0.086 C 
ATOM     33  C   UNL     1      -7.351  -7.478   5.839  0.00  0.00    +0.023 C 
ATOM     34  C   UNL     1      -8.009  -8.791   6.265  0.00  0.00    +0.002 C 
ATOM     35  C   UNL     1      -9.264  -8.489   7.087  0.00  0.00    +0.000 C 
ATOM     36  C   UNL     1     -10.246  -7.678   6.239  0.00  0.00    +0.002 C 
ATOM     37  C   UNL     1      -9.587  -6.365   5.813  0.00  0.00    +0.023 C 
ENDBRANCH  10  32
TORSDOF 3
