REMARK  Name = ZINC01123128
REMARK  8 active torsions:
REMARK  status: ('A' for Active; 'I' for Inactive)
REMARK    1  A    between atoms: C_1  and  C_2
REMARK    2  A    between atoms: C_2  and  O_3
REMARK    3  A    between atoms: O_3  and  C_4
REMARK    4  A    between atoms: C_7  and  C_12
REMARK    5  A    between atoms: C_9  and  O_10
REMARK    6  A    between atoms: O_10  and  C_11
REMARK    7  A    between atoms: C_17  and  C_27
REMARK    8  A    between atoms: C_32  and  N_33
REMARK                            x       y       z     vdW  Elec       q    Type
REMARK                         _______ _______ _______ _____ _____    ______ ____
ROOT
ATOM      1  C   UNL     1       1.853   2.208   0.550  0.00  0.00    +0.032 C 
ATOM      2  C   UNL     1       0.948   3.090  -0.308  0.00  0.00    +0.059 C 
ATOM      3  C   UNL     1      -0.483   2.582  -0.244  0.00  0.00    +0.017 C 
ATOM      4  C   UNL     1      -0.734   1.269  -0.102  0.00  0.00    +0.036 C 
ATOM      5  C   UNL     1      -2.100   0.633  -0.019  0.00  0.00    +0.138 C 
ATOM      6  N   UNL     1      -3.194   1.510  -0.379  0.00  0.00    -0.331 N 
ATOM      7  C   UNL     1      -3.493   2.636   0.386  0.00  0.00    +0.049 A 
ATOM      8  C   UNL     1      -4.665   2.720   1.121  0.00  0.00    +0.025 A 
ATOM      9  C   UNL     1      -4.869   3.806   1.954  0.00  0.00    +0.002 A 
ATOM     10  C   UNL     1      -3.914   4.801   2.053  0.00  0.00    +0.002 A 
ATOM     11  C   UNL     1      -2.752   4.731   1.304  0.00  0.00    +0.025 A 
ATOM     12  C   UNL     1      -2.554   3.654   0.457  0.00  0.00    +0.052 A 
ATOM     13  N   UNL     1      -1.433   3.544  -0.358  0.00  0.00    -0.316 N 
ATOM     14  C   UNL     1       0.334   0.347   0.011  0.00  0.00    +0.163 C 
ATOM     15  O   UNL     1       0.078  -0.836   0.116  0.00  0.00    -0.292 OA
ATOM     16  C   UNL     1       1.770   0.779   0.000  0.00  0.00    +0.088 C 
ATOM     17  H   UNL     1      -3.726   1.312  -1.165  0.00  0.00    +0.147 HD
ATOM     18  H   UNL     1      -1.323   4.203  -1.061  0.00  0.00    +0.152 HD
ENDROOT
BRANCH   1  22
ATOM     19  C   UNL     1       5.885   3.615   0.316  0.00  0.00    +0.162 A 
ATOM     20  C   UNL     1       5.211   3.239  -0.835  0.00  0.00    +0.050 A 
ATOM     21  C   UNL     1       3.908   2.784  -0.756  0.00  0.00    +0.008 A 
ATOM     22  C   UNL     1       3.274   2.703   0.470  0.00  0.00    -0.040 A 
ATOM     23  C   UNL     1       3.939   3.082   1.622  0.00  0.00    +0.053 A 
ATOM     24  C   UNL     1       5.247   3.533   1.550  0.00  0.00    +0.162 A 
BRANCH  24  25
ATOM     25  O   UNL     1       5.904   3.901   2.683  0.00  0.00    -0.491 OA
ATOM     26  C   UNL     1       5.186   3.791   3.914  0.00  0.00    +0.277 C 
ENDBRANCH  24  25
BRANCH  19  27
ATOM     27  O   UNL     1       7.167   4.063   0.240  0.00  0.00    -0.489 OA
BRANCH  27  29
ATOM     28  C   UNL     1       9.191   4.645  -0.945  0.00  0.00    +0.048 C 
ATOM     29  C   UNL     1       7.758   4.121  -1.060  0.00  0.00    +0.226 C 
ENDBRANCH  27  29
ENDBRANCH  19  27
ENDBRANCH   1  22
BRANCH   5  30
ATOM     30  C   UNL     1      -2.320   0.150   1.391  0.00  0.00    +0.007 A 
ATOM     31  C   UNL     1      -1.564   0.671   2.425  0.00  0.00    +0.008 A 
ATOM     32  C   UNL     1      -1.769   0.232   3.720  0.00  0.00    +0.000 A 
ATOM     33  C   UNL     1      -2.722  -0.736   3.979  0.00  0.00    +0.002 A 
ATOM     34  C   UNL     1      -3.474  -1.260   2.945  0.00  0.00    +0.033 A 
ATOM     35  C   UNL     1      -3.273  -0.817   1.651  0.00  0.00    +0.131 A 
BRANCH  35  36
ATOM     36  N   UNL     1      -4.078  -1.379   0.542  0.00  0.00    +0.057 N 
ATOM     37  O   UNL     1      -4.839  -2.306   0.752  0.00  0.00    -0.126 OA
ATOM     38  O   UNL     1      -3.978  -0.913  -0.579  0.00  0.00    -0.126 OA
ENDBRANCH  35  36
ENDBRANCH   5  30
TORSDOF 6
