REMARK  Name = ZINC59167526
REMARK  10 active torsions:
REMARK  status: ('A' for Active; 'I' for Inactive)
REMARK    1  A    between atoms: C_1  and  C_2
REMARK    2  A    between atoms: C_2  and  N_3
REMARK    3  A    between atoms: N_3  and  C_4
REMARK    4  A    between atoms: C_4  and  C_5
REMARK    5  A    between atoms: C_6  and  C_8
REMARK    6  A    between atoms: C_8  and  N_9
REMARK    7  A    between atoms: N_17  and  N_18
REMARK    8  A    between atoms: C_19  and  C_21
REMARK    9  A    between atoms: C_30  and  O_31
REMARK   10  A    between atoms: O_31  and  C_32
REMARK                            x       y       z     vdW  Elec       q    Type
REMARK                         _______ _______ _______ _____ _____    ______ ____
ROOT
ATOM      1  N   UNL     1       4.209  -0.744   0.164  0.00  0.00    -0.257 N 
ATOM      2  C   UNL     1       5.183   0.234   0.334  0.00  0.00    +0.047 A 
ATOM      3  C   UNL     1       5.091   1.613   0.489  0.00  0.00    +0.024 A 
ATOM      4  C   UNL     1       6.234   2.371   0.642  0.00  0.00    +0.002 A 
ATOM      5  C   UNL     1       7.483   1.772   0.642  0.00  0.00    +0.001 A 
ATOM      6  C   UNL     1       7.594   0.405   0.488  0.00  0.00    +0.012 A 
ATOM      7  C   UNL     1       6.448  -0.367   0.334  0.00  0.00    +0.028 A 
ATOM      8  C   UNL     1       6.221  -1.820   0.152  0.00  0.00    +0.153 C 
ATOM      9  N   UNL     1       7.124  -2.768   0.092  0.00  0.00    -0.174 NA
ATOM     10  C   UNL     1       4.755  -1.967   0.058  0.00  0.00    +0.272 C 
ATOM     11  O   UNL     1       4.148  -3.011  -0.092  0.00  0.00    -0.268 OA
ENDROOT
BRANCH   9  12
ATOM     12  N   UNL     1       8.471  -2.470   0.339  0.00  0.00    -0.202 N 
ATOM     13  C   UNL     1       9.414  -3.415   0.159  0.00  0.00    +0.267 C 
ATOM     14  O   UNL     1       9.097  -4.527  -0.218  0.00  0.00    -0.268 OA
ATOM     15  H   UNL     1       8.723  -1.583   0.640  0.00  0.00    +0.178 HD
BRANCH  13  16
ATOM     16  C   UNL     1      10.829  -3.102   0.418  0.00  0.00    +0.081 A 
ATOM     17  C   UNL     1      11.191  -1.815   0.861  0.00  0.00    +0.017 A 
ATOM     18  C   UNL     1      12.487  -1.502   1.106  0.00  0.00    +0.009 A 
ATOM     19  C   UNL     1      13.497  -2.467   0.921  0.00  0.00    -0.014 A 
ATOM     20  C   UNL     1      14.844  -2.160   1.172  0.00  0.00    +0.008 A 
ATOM     21  C   UNL     1      15.800  -3.112   0.985  0.00  0.00    +0.001 A 
ATOM     22  C   UNL     1      15.462  -4.391   0.548  0.00  0.00    +0.001 A 
ATOM     23  C   UNL     1      14.166  -4.724   0.296  0.00  0.00    +0.012 A 
ATOM     24  C   UNL     1      13.154  -3.767   0.478  0.00  0.00    +0.025 A 
ATOM     25  C   UNL     1      11.802  -4.082   0.231  0.00  0.00    +0.140 A 
BRANCH  25  26
ATOM     26  O   UNL     1      11.453  -5.321  -0.189  0.00  0.00    -0.494 OA
ATOM     27  C   UNL     1      11.425  -5.545  -1.600  0.00  0.00    +0.277 C 
ENDBRANCH  25  26
ENDBRANCH  13  16
ENDBRANCH   9  12
BRANCH   1  28
ATOM     28  C   UNL     1       2.770  -0.475   0.115  0.00  0.00    +0.209 C 
BRANCH  28  30
ATOM     29  N   UNL     1       0.883  -0.325   1.707  0.00  0.00    -0.301 N 
ATOM     30  C   UNL     1       2.198  -0.541   1.508  0.00  0.00    +0.233 C 
ATOM     31  O   UNL     1       2.922  -0.788   2.449  0.00  0.00    -0.274 OA
BRANCH  29  33
ATOM     32  C   UNL     1      -0.038   1.487   0.347  0.00  0.00    +0.024 C 
ATOM     33  C   UNL     1       0.009  -0.026   0.570  0.00  0.00    +0.104 C 
ENDBRANCH  29  33
BRANCH  29  34
ATOM     34  C   UNL     1       0.327  -0.389   3.061  0.00  0.00    +0.104 C 
ATOM     35  C   UNL     1      -0.123  -1.820   3.360  0.00  0.00    +0.024 C 
ENDBRANCH  29  34
ENDBRANCH  28  30
ENDBRANCH   1  28
TORSDOF 7
