REMARK  Name = ZINC55896829
REMARK  5 active torsions:
REMARK  status: ('A' for Active; 'I' for Inactive)
REMARK    1  A    between atoms: C_4  and  C_7
REMARK    2  A    between atoms: C_10  and  N_17
REMARK    3  A    between atoms: C_12  and  C_13
REMARK    4  A    between atoms: N_17  and  C_18
REMARK    5  A    between atoms: C_18  and  C_19
REMARK                            x       y       z     vdW  Elec       q    Type
REMARK                         _______ _______ _______ _____ _____    ______ ____
ROOT
ATOM      1  C   UNL     1       3.614  -0.884  -0.170  0.00  0.00    -0.006 A 
ATOM      2  C   UNL     1       4.552  -0.608  -1.164  0.00  0.00    +0.011 A 
ATOM      3  C   UNL     1       5.840  -1.086  -1.046  0.00  0.00    +0.023 A 
ATOM      4  C   UNL     1       6.203  -1.842   0.062  0.00  0.00    +0.028 A 
ATOM      5  C   UNL     1       5.269  -2.119   1.054  0.00  0.00    +0.036 A 
ATOM      6  C   UNL     1       3.982  -1.638   0.943  0.00  0.00    +0.064 A 
ENDROOT
BRANCH   1  10
ATOM      7  C   UNL     1      -0.359   0.588  -0.528  0.00  0.00    +0.000 A 
ATOM      8  C   UNL     1       0.407   0.933   0.571  0.00  0.00    +0.001 A 
ATOM      9  C   UNL     1       1.697   0.458   0.692  0.00  0.00    +0.008 A 
ATOM     10  C   UNL     1       2.228  -0.371  -0.295  0.00  0.00    -0.017 A 
ATOM     11  C   UNL     1       1.451  -0.715  -1.399  0.00  0.00    +0.008 A 
ATOM     12  C   UNL     1       0.162  -0.235  -1.510  0.00  0.00    +0.001 A 
ENDBRANCH   1  10
BRANCH   6  13
ATOM     13  C   UNL     1       2.971  -1.933   2.021  0.00  0.00    +0.418 C 
ATOM     14  F   UNL     1       3.522  -2.827   2.945  0.00  0.00    -0.166 F 
ATOM     15  F   UNL     1       2.624  -0.744   2.673  0.00  0.00    -0.166 F 
ATOM     16  F   UNL     1       1.828  -2.500   1.447  0.00  0.00    -0.166 F 
ENDBRANCH   6  13
BRANCH   4  17
ATOM     17  N   UNL     1       7.507  -2.325   0.180  0.00  0.00    -0.335 N 
ATOM     18  H   UNL     1       7.761  -2.853   0.953  0.00  0.00    +0.147 HD
BRANCH  17  19
ATOM     19  C   UNL     1       8.492  -2.035  -0.865  0.00  0.00    +0.198 C 
BRANCH  19  20
ATOM     20  C   UNL     1       9.812  -2.665  -0.500  0.00  0.00    +0.237 C 
ATOM     21  O   UNL     1       9.918  -3.295   0.530  0.00  0.00    -0.274 OA
ATOM     22  N   UNL     1      10.873  -2.529  -1.320  0.00  0.00    -0.239 N 
ATOM     23  C   UNL     1      12.053  -3.093  -0.994  0.00  0.00    +0.303 C 
ATOM     24  O   UNL     1      12.160  -3.724   0.039  0.00  0.00    -0.253 OA
ATOM     25  N   UNL     1      13.114  -2.957  -1.813  0.00  0.00    -0.313 N 
ATOM     26  H   UNL     1      10.788  -2.025  -2.144  0.00  0.00    +0.159 HD
ATOM     27  H   UNL     1      13.029  -2.453  -2.638  0.00  0.00    +0.146 HD
ATOM     28  H   UNL     1      13.963  -3.362  -1.579  0.00  0.00    +0.146 HD
ENDBRANCH  19  20
ENDBRANCH  17  19
ENDBRANCH   4  17
TORSDOF 5
