REMARK  Name = ZINC20035964
REMARK  8 active torsions:
REMARK  status: ('A' for Active; 'I' for Inactive)
REMARK    1  A    between atoms: C_1  and  C_2
REMARK    2  A    between atoms: C_5  and  C_16
REMARK    3  A    between atoms: C_5  and  C_31
REMARK    4  A    between atoms: C_7  and  C_9
REMARK    5  A    between atoms: N_18  and  N_19
REMARK    6  A    between atoms: C_20  and  C_21
REMARK    7  A    between atoms: C_24  and  C_28
REMARK    8  A    between atoms: C_24  and  C_29
REMARK                            x       y       z     vdW  Elec       q    Type
REMARK                         _______ _______ _______ _____ _____    ______ ____
ROOT
ATOM      1  C   UNL     1       0.110   1.413   0.808  0.00  0.00    +0.039 C 
ATOM      2  C   UNL     1       0.086  -0.067   0.523  0.00  0.00    -0.069 C 
ATOM      3  C   UNL     1       0.105  -0.447  -0.714  0.00  0.00    -0.026 C 
ATOM      4  C   UNL     1       0.094  -1.882  -1.154  0.00  0.00    +0.055 C 
ATOM      5  C   UNL     1      -0.364  -2.781  -0.004  0.00  0.00    +0.153 C 
ATOM      6  C   UNL     1       0.443  -2.417   1.249  0.00  0.00    +0.040 C 
ATOM      7  C   UNL     1       0.046  -1.008   1.691  0.00  0.00    +0.046 C 
ENDROOT
BRANCH   7   8
ATOM      8  C   UNL     1       1.001  -0.527   2.753  0.00  0.00    -0.040 A 
ATOM      9  C   UNL     1       2.347  -0.399   2.465  0.00  0.00    +0.005 A 
ATOM     10  C   UNL     1       3.223   0.043   3.439  0.00  0.00    +0.020 A 
ATOM     11  C   UNL     1       2.753   0.355   4.702  0.00  0.00    +0.041 A 
ATOM     12  C   UNL     1       1.405   0.226   4.989  0.00  0.00    +0.020 A 
ATOM     13  C   UNL     1       0.529  -0.209   4.013  0.00  0.00    +0.005 A 
ATOM     14 CL   UNL     1       3.853   0.909   5.925  0.00  0.00    -0.084 Cl
ENDBRANCH   7   8
BRANCH   5  15
ATOM     15  C   UNL     1      -1.832  -2.562   0.258  0.00  0.00    +0.250 C 
ATOM     16  O   UNL     1      -2.478  -1.845  -0.477  0.00  0.00    -0.273 OA
ATOM     17  N   UNL     1      -2.426  -3.163   1.307  0.00  0.00    -0.206 N 
ATOM     18  H   UNL     1      -1.910  -3.736   1.895  0.00  0.00    +0.177 HD
BRANCH  17  19
ATOM     19  N   UNL     1      -3.791  -2.959   1.550  0.00  0.00    -0.187 NA
ATOM     20  C   UNL     1      -4.364  -3.537   2.561  0.00  0.00    +0.145 C 
BRANCH  20  21
ATOM     21  C   UNL     1      -5.800  -3.323   2.817  0.00  0.00    +0.079 C 
ATOM     22  C   UNL     1      -6.531  -2.501   1.963  0.00  0.00    +0.169 C 
ATOM     23  C   UNL     1      -8.000  -2.263   2.196  0.00  0.00    +0.086 C 
ATOM     24  C   UNL     1      -8.298  -2.366   3.695  0.00  0.00    -0.021 C 
ATOM     25  C   UNL     1      -7.865  -3.747   4.196  0.00  0.00    +0.086 C 
ATOM     26  C   UNL     1      -6.401  -3.950   3.905  0.00  0.00    +0.169 C 
ATOM     27  O   UNL     1      -5.734  -4.668   4.635  0.00  0.00    -0.292 OA
ATOM     28  C   UNL     1      -9.798  -2.182   3.932  0.00  0.00    +0.012 C 
ATOM     29  C   UNL     1      -7.522  -1.283   4.447  0.00  0.00    +0.012 C 
ATOM     30  O   UNL     1      -5.975  -1.968   1.014  0.00  0.00    -0.292 OA
ENDBRANCH  20  21
ENDBRANCH  17  19
ENDBRANCH   5  15
BRANCH   5  31
ATOM     31  C   UNL     1      -0.119  -4.225  -0.362  0.00  0.00    +0.371 C 
ATOM     32  O   UNL     1       0.377  -4.510  -1.438  0.00  0.00    -0.245 OA
ATOM     33  O   UNL     1      -0.416  -5.107   0.426  0.00  0.00    -0.245 OA
ENDBRANCH   5  31
TORSDOF 5
