REMARK  Name = ZINC01902322
REMARK  3 active torsions:
REMARK  status: ('A' for Active; 'I' for Inactive)
REMARK    1  A    between atoms: C_1  and  C_2
REMARK    2  A    between atoms: C_2  and  C_28
REMARK    3  A    between atoms: C_12  and  C_14
REMARK                            x       y       z     vdW  Elec       q    Type
REMARK                         _______ _______ _______ _____ _____    ______ ____
ROOT
ATOM      1  C   UNL     1       0.763  -0.511   1.229  0.00  0.00    +0.041 C 
ATOM      2  C   UNL     1       0.002  -0.004   0.002  0.00  0.00    +0.069 C 
ATOM      3  C   UNL     1       0.431  -0.804  -1.231  0.00  0.00    +0.101 C 
ATOM      4  C   UNL     1       1.928  -0.580  -1.478  0.00  0.00    +0.185 C 
ATOM      5  C   UNL     1       2.177   0.924  -1.650  0.00  0.00    +0.094 C 
ATOM      6  C   UNL     1       1.683   1.659  -0.402  0.00  0.00    +0.166 C 
ATOM      7  O   UNL     1       0.296   1.379  -0.203  0.00  0.00    -0.374 OA
ATOM      8  N   UNL     1       2.361  -1.303  -2.647  0.00  0.00    -0.177 NA
ATOM      9  C   UNL     1       3.850  -1.254  -2.766  0.00  0.00    +0.138 C 
ATOM     10  C   UNL     1       4.056  -1.796  -4.153  0.00  0.00    +0.023 C 
ATOM     11  C   UNL     1       2.871  -1.642  -4.776  0.00  0.00    +0.047 C 
ATOM     12  N   UNL     1       1.945  -1.036  -3.903  0.00  0.00    -0.273 N 
ATOM     13  C   UNL     1       4.315  -2.140  -1.649  0.00  0.00    +0.017 A 
ATOM     14  C   UNL     1       5.317  -3.065  -1.773  0.00  0.00    +0.009 A 
ATOM     15  C   UNL     1       5.648  -3.867  -0.691  0.00  0.00    +0.001 A 
ATOM     16  C   UNL     1       4.965  -3.726   0.503  0.00  0.00    +0.004 A 
ATOM     17  C   UNL     1       3.961  -2.788   0.632  0.00  0.00    +0.046 A 
ATOM     18  C   UNL     1       3.626  -1.976  -0.441  0.00  0.00    +0.128 A 
ATOM     19  O   UNL     1       2.655  -1.038  -0.329  0.00  0.00    -0.469 OA
ATOM     20  C   UNL     1      -1.501  -0.179   0.226  0.00  0.00    +0.041 C 
ATOM     21  H   UNL     1       1.163  -0.519  -4.154  0.00  0.00    +0.167 HD
ENDROOT
BRANCH  11  22
ATOM     22  C   UNL     1       2.584  -2.050  -6.170  0.00  0.00    -0.003 A 
ATOM     23  C   UNL     1       3.582  -2.639  -6.946  0.00  0.00    +0.012 A 
ATOM     24  C   UNL     1       3.309  -3.022  -8.243  0.00  0.00    +0.039 A 
ATOM     25  C   UNL     1       2.048  -2.812  -8.778  0.00  0.00    +0.123 A 
ATOM     26  C   UNL     1       1.055  -2.222  -8.013  0.00  0.00    +0.039 A 
ATOM     27  C   UNL     1       1.317  -1.841  -6.714  0.00  0.00    +0.012 A 
ATOM     28  F   UNL     1       1.787  -3.183 -10.051  0.00  0.00    -0.205 F 
ENDBRANCH  11  22
TORSDOF 1
