REMARK  Name = ZINC08613386
REMARK  8 active torsions:
REMARK  status: ('A' for Active; 'I' for Inactive)
REMARK    1  A    between atoms: C_1  and  C_2
REMARK    2  A    between atoms: C_10  and  C_11
REMARK    3  A    between atoms: N_13  and  C_14
REMARK    4  A    between atoms: C_14  and  C_15
REMARK    5  A    between atoms: C_15  and  C_17
REMARK    6  A    between atoms: C_15  and  N_25
REMARK    7  A    between atoms: C_20  and  O_23
REMARK    8  A    between atoms: O_23  and  C_24
REMARK                            x       y       z     vdW  Elec       q    Type
REMARK                         _______ _______ _______ _____ _____    ______ ____
ROOT
ATOM      1  C   UNL     1       0.156  -0.745   5.001  0.00  0.00    +0.094 C 
ENDROOT
BRANCH   1   4
ATOM      2  C   UNL     1      -1.264   1.195   4.611  0.00  0.00    +0.280 C 
ATOM      3  O   UNL     1      -0.386   1.660   3.909  0.00  0.00    -0.267 OA
ATOM      4  N   UNL     1      -1.090  -0.003   5.203  0.00  0.00    -0.310 N 
ATOM      5  H   UNL     1      -1.791  -0.374   5.762  0.00  0.00    +0.149 HD
BRANCH   2  15
ATOM      6  C   UNL     1      -1.915   3.969   3.364  0.00  0.00    +0.048 C 
ATOM      7  C   UNL     1      -2.800   3.151   4.269  0.00  0.00    +0.008 A 
ATOM      8  C   UNL     1      -4.142   3.499   4.734  0.00  0.00    +0.024 A 
ATOM      9  C   UNL     1      -4.990   4.590   4.531  0.00  0.00    +0.013 A 
ATOM     10  C   UNL     1      -6.219   4.613   5.127  0.00  0.00    +0.016 A 
ATOM     11  C   UNL     1      -6.630   3.558   5.932  0.00  0.00    +0.021 A 
ATOM     12  C   UNL     1      -5.807   2.472   6.145  0.00  0.00    +0.062 A 
ATOM     13  C   UNL     1      -4.553   2.427   5.548  0.00  0.00    +0.137 A 
ATOM     14  O   UNL     1      -3.553   1.525   5.569  0.00  0.00    -0.450 OA
ATOM     15  C   UNL     1      -2.515   1.940   4.813  0.00  0.00    +0.193 A 
ATOM     16 BR   UNL     1      -8.336   3.612   6.746  0.00  0.00    -0.050 Br
ENDBRANCH   2  15
ENDBRANCH   1   4
BRANCH   1  17
ATOM     17  C   UNL     1       0.151  -1.998   5.880  0.00  0.00    -0.020 C 
BRANCH  17  18
ATOM     18  N   UNL     1       1.359  -2.790   5.610  0.00  0.00    +0.385 N 
ATOM     19  C   UNL     1       1.355  -3.225   4.209  0.00  0.00    -0.078 C 
ATOM     20  C   UNL     1       2.649  -3.981   3.901  0.00  0.00    -0.019 C 
ATOM     21  C   UNL     1       2.749  -5.204   4.817  0.00  0.00    -0.004 C 
ATOM     22  C   UNL     1       2.678  -4.745   6.276  0.00  0.00    -0.019 C 
ATOM     23  C   UNL     1       1.383  -3.960   6.496  0.00  0.00    -0.078 C 
ATOM     24  H   UNL     1       2.176  -2.223   5.782  0.00  0.00    -0.081 HD
ENDBRANCH  17  18
BRANCH  17  25
ATOM     25  C   UNL     1       0.129  -1.594   7.331  0.00  0.00    -0.059 A 
ATOM     26  C   UNL     1       1.296  -1.196   7.955  0.00  0.00    +0.005 A 
ATOM     27  C   UNL     1       1.278  -0.826   9.286  0.00  0.00    +0.046 A 
ATOM     28  C   UNL     1       0.087  -0.853   9.996  0.00  0.00    +0.120 A 
ATOM     29  C   UNL     1      -1.084  -1.252   9.367  0.00  0.00    +0.046 A 
ATOM     30  C   UNL     1      -1.061  -1.616   8.035  0.00  0.00    +0.005 A 
BRANCH  28  31
ATOM     31  O   UNL     1       0.067  -0.489  11.305  0.00  0.00    -0.495 OA
ATOM     32  C   UNL     1      -1.196  -0.541  11.974  0.00  0.00    +0.277 C 
ENDBRANCH  28  31
ENDBRANCH  17  25
ENDBRANCH   1  17
TORSDOF 6
