REMARK  Name = ZINC41585930
REMARK  10 active torsions:
REMARK  status: ('A' for Active; 'I' for Inactive)
REMARK    1  A    between atoms: C_1  and  C_2
REMARK    2  A    between atoms: C_2  and  O_3
REMARK    3  A    between atoms: O_3  and  C_4
REMARK    4  A    between atoms: C_4  and  C_6
REMARK    5  A    between atoms: C_9  and  O_12
REMARK    6  A    between atoms: O_12  and  C_13
REMARK    7  A    between atoms: C_13  and  C_14
REMARK    8  A    between atoms: C_18  and  O_36
REMARK    9  A    between atoms: C_19  and  C_23
REMARK   10  A    between atoms: C_23  and  N_24
REMARK                            x       y       z     vdW  Elec       q    Type
REMARK                         _______ _______ _______ _____ _____    ______ ____
ROOT
ATOM      1  C   UNL     1      -8.188  -5.864   0.034  0.00  0.00    +0.128 A 
ATOM      2  C   UNL     1      -9.005  -6.079   1.230  0.00  0.00    +0.048 A 
ATOM      3  C   UNL     1      -8.752  -5.985   2.602  0.00  0.00    +0.017 A 
ATOM      4  C   UNL     1      -9.746  -6.256   3.497  0.00  0.00    +0.046 A 
ATOM      5  C   UNL     1     -11.014  -6.627   3.053  0.00  0.00    +0.125 A 
ATOM      6  C   UNL     1     -11.283  -6.726   1.699  0.00  0.00    +0.053 A 
ATOM      7  C   UNL     1     -10.282  -6.453   0.776  0.00  0.00    +0.175 A 
ATOM      8  O   UNL     1     -10.237  -6.461  -0.571  0.00  0.00    -0.354 OA
ATOM      9  N   UNL     1      -8.941  -6.092  -0.998  0.00  0.00    -0.079 NA
ENDROOT
BRANCH   5  10
ATOM     10  O   UNL     1     -11.993  -6.894   3.955  0.00  0.00    -0.506 OA
ATOM     11  H   UNL     1     -12.520  -6.122   4.204  0.00  0.00    +0.292 HD
ENDBRANCH   5  10
BRANCH   1  12
ATOM     12  C   UNL     1      -6.739  -5.448   0.007  0.00  0.00    +0.288 C 
BRANCH  12  13
ATOM     13  O   UNL     1      -6.653  -4.022  -0.017  0.00  0.00    -0.486 OA
BRANCH  13  17
ATOM     14  C   UNL     1      -2.870  -2.374  -0.095  0.00  0.00    +0.059 A 
ATOM     15  C   UNL     1      -3.995  -1.545  -0.092  0.00  0.00    +0.018 A 
ATOM     16  C   UNL     1      -5.256  -2.099  -0.067  0.00  0.00    +0.046 A 
ATOM     17  C   UNL     1      -5.410  -3.480  -0.043  0.00  0.00    +0.121 A 
ATOM     18  C   UNL     1      -4.293  -4.308  -0.046  0.00  0.00    +0.046 A 
ATOM     19  C   UNL     1      -3.029  -3.763  -0.077  0.00  0.00    +0.018 A 
BRANCH  14  20
ATOM     20  C   UNL     1      -1.518  -1.785  -0.123  0.00  0.00    +0.339 C 
ATOM     21  O   UNL     1      -0.541  -2.507  -0.131  0.00  0.00    -0.245 OA
BRANCH  20  22
ATOM     22  O   UNL     1      -1.367  -0.446  -0.141  0.00  0.00    -0.461 OA
BRANCH  22  24
ATOM     23  C   UNL     1      -0.058   1.585  -0.184  0.00  0.00    +0.048 C 
ATOM     24  C   UNL     1      -0.029   0.055  -0.168  0.00  0.00    +0.229 C 
ENDBRANCH  22  24
ENDBRANCH  20  22
ENDBRANCH  14  20
ENDBRANCH  13  17
ENDBRANCH  12  13
ENDBRANCH   1  12
BRANCH   6  25
ATOM     25  C   UNL     1     -12.656  -7.128   1.228  0.00  0.00    +0.127 C 
BRANCH  25  26
ATOM     26  N   UNL     1     -13.485  -5.928   1.054  0.00  0.00    -0.295 NA
ATOM     27  C   UNL     1     -13.730  -5.266   2.342  0.00  0.00    +0.103 C 
ATOM     28  C   UNL     1     -14.440  -3.930   2.099  0.00  0.00    +0.122 C 
ATOM     29  N   UNL     1     -15.642  -4.179   1.290  0.00  0.00    -0.314 N 
ATOM     30  C   UNL     1     -15.497  -4.958   0.050  0.00  0.00    +0.122 C 
ATOM     31  C   UNL     1     -14.746  -6.254   0.374  0.00  0.00    +0.103 C 
ATOM     32  C   UNL     1     -16.882  -3.693   1.685  0.00  0.00    +0.099 A 
ATOM     33  C   UNL     1     -17.014  -3.064   2.920  0.00  0.00    +0.042 A 
ATOM     34  C   UNL     1     -18.254  -2.584   3.301  0.00  0.00    +0.005 A 
ATOM     35  C   UNL     1     -19.325  -2.750   2.432  0.00  0.00    +0.018 A 
ATOM     36  C   UNL     1     -19.122  -3.383   1.223  0.00  0.00    +0.084 A 
ATOM     37  N   UNL     1     -17.926  -3.826   0.883  0.00  0.00    -0.350 N 
ATOM     38  H   UNL     1     -17.811  -4.265   0.025  0.00  0.00    +0.166 HD
ENDBRANCH  25  26
ENDBRANCH   6  25
TORSDOF 9
