REMARK  Name = ZINC64651127
REMARK  4 active torsions:
REMARK  status: ('A' for Active; 'I' for Inactive)
REMARK    1  A    between atoms: C_1  and  N_2
REMARK    2  A    between atoms: C_10  and  C_12
REMARK    3  A    between atoms: N_26  and  C_27
REMARK    4  A    between atoms: C_27  and  C_28
REMARK                            x       y       z     vdW  Elec       q    Type
REMARK                         _______ _______ _______ _____ _____    ______ ____
ROOT
ATOM      1  C   UNL     1      -1.226  -0.651   2.032  0.00  0.00    +0.122 C 
ATOM      2  C   UNL     1      -1.196  -1.579   3.249  0.00  0.00    +0.127 C 
ATOM      3  C   UNL     1      -2.544  -1.415   3.943  0.00  0.00    -0.036 C 
ATOM      4  C   UNL     1      -2.281  -1.107   5.205  0.00  0.00    -0.001 A 
ATOM      5  C   UNL     1      -3.158  -0.913   6.372  0.00  0.00    +0.010 A 
ATOM      6  C   UNL     1      -2.541  -0.584   7.537  0.00  0.00    +0.001 A 
ATOM      7  C   UNL     1      -1.157  -0.429   7.658  0.00  0.00    +0.002 A 
ATOM      8  C   UNL     1      -0.275  -0.594   6.640  0.00  0.00    +0.026 A 
ATOM      9  C   UNL     1      -0.803  -0.947   5.365  0.00  0.00    +0.043 A 
ATOM     10  N   UNL     1      -0.181  -1.192   4.228  0.00  0.00    -0.376 N 
ATOM     11  C   UNL     1      -3.844  -1.513   3.181  0.00  0.00    +0.049 C 
ATOM     12  C   UNL     1      -3.677  -0.630   1.931  0.00  0.00    +0.090 C 
ATOM     13  N   UNL     1      -2.427  -0.962   1.241  0.00  0.00    -0.288 NA
ATOM     14  H   UNL     1       0.772  -1.125   4.060  0.00  0.00    +0.160 HD
ENDROOT
BRANCH   1  24
ATOM     15  C   UNL     1      -0.784  -3.121   0.105  0.00  0.00    +0.131 C 
ATOM     16  N   UNL     1       0.168  -2.301   0.859  0.00  0.00    -0.312 N 
ATOM     17  C   UNL     1       1.387  -2.732   1.400  0.00  0.00    +0.052 A 
ATOM     18  C   UNL     1       1.996  -3.981   1.375  0.00  0.00    +0.025 A 
ATOM     19  C   UNL     1       3.219  -4.170   1.988  0.00  0.00    +0.002 A 
ATOM     20  C   UNL     1       3.843  -3.117   2.631  0.00  0.00    +0.002 A 
ATOM     21  C   UNL     1       3.247  -1.871   2.661  0.00  0.00    +0.025 A 
ATOM     22  C   UNL     1       2.016  -1.671   2.046  0.00  0.00    +0.050 A 
ATOM     23  N   UNL     1       1.226  -0.518   1.946  0.00  0.00    -0.323 N 
ATOM     24  C   UNL     1       0.025  -0.876   1.181  0.00  0.00    +0.178 C 
ATOM     25  H   UNL     1       1.435   0.356   2.311  0.00  0.00    +0.148 HD
ENDBRANCH   1  24
BRANCH  13  26
ATOM     26  C   UNL     1      -2.368  -0.322  -0.080  0.00  0.00    +0.147 C 
BRANCH  26  27
ATOM     27  C   UNL     1      -3.552  -0.759  -0.903  0.00  0.00    +0.092 A 
ATOM     28  N   UNL     1      -4.732  -0.199  -0.992  0.00  0.00    -0.251 NA
ATOM     29  C   UNL     1      -5.675  -0.704  -1.763  0.00  0.00    +0.119 A 
ATOM     30  C   UNL     1      -5.364  -1.828  -2.458  0.00  0.00    +0.066 A 
ATOM     31  S   UNL     1      -3.675  -2.081  -1.937  0.00  0.00    -0.079 S 
ENDBRANCH  26  27
ENDBRANCH  13  26
TORSDOF 3
