REMARK  Name = ZINC21247493
REMARK  9 active torsions:
REMARK  status: ('A' for Active; 'I' for Inactive)
REMARK    1  A    between atoms: C_1  and  C_2
REMARK    2  A    between atoms: C_2  and  C_3
REMARK    3  A    between atoms: C_2  and  C_4
REMARK    4  A    between atoms: C_4  and  O_5
REMARK    5  A    between atoms: O_5  and  C_6
REMARK    6  A    between atoms: C_9  and  C_12
REMARK    7  A    between atoms: C_17  and  C_27
REMARK    8  A    between atoms: C_30  and  O_36
REMARK    9  A    between atoms: C_31  and  N_33
REMARK                            x       y       z     vdW  Elec       q    Type
REMARK                         _______ _______ _______ _____ _____    ______ ____
ROOT
ATOM      1  C   UNL     1      -0.272   1.355  -0.883  0.00  0.00    +0.032 C 
ATOM      2  C   UNL     1      -1.728   0.900  -0.964  0.00  0.00    +0.059 C 
ATOM      3  C   UNL     1      -2.527   1.519   0.170  0.00  0.00    +0.017 C 
ATOM      4  C   UNL     1      -1.948   1.766   1.357  0.00  0.00    +0.036 C 
ATOM      5  C   UNL     1      -2.624   2.370   2.564  0.00  0.00    +0.136 C 
ATOM      6  N   UNL     1      -4.066   2.451   2.469  0.00  0.00    -0.331 N 
ATOM      7  C   UNL     1      -4.678   3.261   1.514  0.00  0.00    +0.049 A 
ATOM      8  C   UNL     1      -5.445   4.356   1.878  0.00  0.00    +0.025 A 
ATOM      9  C   UNL     1      -5.995   5.158   0.893  0.00  0.00    +0.002 A 
ATOM     10  C   UNL     1      -5.779   4.874  -0.443  0.00  0.00    +0.002 A 
ATOM     11  C   UNL     1      -5.027   3.771  -0.810  0.00  0.00    +0.025 A 
ATOM     12  C   UNL     1      -4.496   2.955   0.174  0.00  0.00    +0.052 A 
ATOM     13  N   UNL     1      -3.829   1.771  -0.122  0.00  0.00    -0.316 N 
ATOM     14  C   UNL     1      -0.575   1.468   1.560  0.00  0.00    +0.163 C 
ATOM     15  O   UNL     1      -0.079   1.679   2.649  0.00  0.00    -0.292 OA
ATOM     16  C   UNL     1       0.285   0.901   0.471  0.00  0.00    +0.088 C 
ATOM     17  H   UNL     1      -4.696   1.867   3.156  0.00  0.00    +0.147 HD
ATOM     18  H   UNL     1      -4.436   1.008  -0.632  0.00  0.00    +0.152 HD
ENDROOT
BRANCH   1  22
ATOM     19  C   UNL     1       1.983  -0.424  -4.047  0.00  0.00    +0.121 A 
ATOM     20  C   UNL     1       1.920   0.956  -3.931  0.00  0.00    +0.046 A 
ATOM     21  C   UNL     1       1.190   1.529  -2.907  0.00  0.00    +0.007 A 
ATOM     22  C   UNL     1       0.523   0.728  -1.999  0.00  0.00    -0.043 A 
ATOM     23  C   UNL     1       0.590  -0.649  -2.110  0.00  0.00    +0.007 A 
ATOM     24  C   UNL     1       1.314  -1.227  -3.135  0.00  0.00    +0.046 A 
BRANCH  19  25
ATOM     25  O   UNL     1       2.700  -0.991  -5.053  0.00  0.00    -0.492 OA
BRANCH  25  26
ATOM     26  C   UNL     1       2.721  -2.418  -5.112  0.00  0.00    +0.232 C 
BRANCH  26  28
ATOM     27  C   UNL     1       5.026  -2.450  -6.075  0.00  0.00    +0.010 C 
ATOM     28  C   UNL     1       3.572  -2.868  -6.301  0.00  0.00    +0.020 C 
ATOM     29  C   UNL     1       3.493  -4.390  -6.438  0.00  0.00    +0.010 C 
ENDBRANCH  26  28
ENDBRANCH  25  26
ENDBRANCH  19  25
ENDBRANCH   1  22
BRANCH   5  30
ATOM     30  C   UNL     1      -2.081   3.761   2.769  0.00  0.00    -0.020 A 
ATOM     31  C   UNL     1      -2.287   4.731   1.805  0.00  0.00    +0.009 A 
ATOM     32  C   UNL     1      -1.795   6.009   1.993  0.00  0.00    +0.048 A 
ATOM     33  C   UNL     1      -1.084   6.315   3.144  0.00  0.00    +0.147 A 
ATOM     34  C   UNL     1      -0.874   5.338   4.107  0.00  0.00    +0.168 A 
ATOM     35  C   UNL     1      -1.373   4.064   3.917  0.00  0.00    +0.042 A 
BRANCH  34  36
ATOM     36  N   UNL     1      -0.115   5.662   5.336  0.00  0.00    +0.060 N 
ATOM     37  O   UNL     1       0.070   4.804   6.181  0.00  0.00    -0.126 OA
ATOM     38  O   UNL     1       0.324   6.785   5.503  0.00  0.00    -0.126 OA
ENDBRANCH  34  36
BRANCH  33  39
ATOM     39  O   UNL     1      -0.595   7.569   3.329  0.00  0.00    -0.504 OA
ATOM     40  H   UNL     1      -0.031   7.811   4.242  0.00  0.00    +0.292 HD
ENDBRANCH  33  39
ENDBRANCH   5  30
TORSDOF 7
