REMARK  Name = ZINC01961418
REMARK  10 active torsions:
REMARK  status: ('A' for Active; 'I' for Inactive)
REMARK    1  A    between atoms: C_1  and  C_2
REMARK    2  A    between atoms: C_2  and  C_3
REMARK    3  A    between atoms: C_2  and  C_4
REMARK    4  A    between atoms: C_2  and  C_5
REMARK    5  A    between atoms: N_16  and  C_19
REMARK    6  A    between atoms: C_19  and  C_20
REMARK    7  A    between atoms: N_22  and  C_23
REMARK    8  A    between atoms: C_28  and  C_29
REMARK    9  A    between atoms: C_29  and  O_31
REMARK   10  A    between atoms: O_31  and  C_32
REMARK                            x       y       z     vdW  Elec       q    Type
REMARK                         _______ _______ _______ _____ _____    ______ ____
ROOT
ATOM      1  C   UNL     1       0.780  -0.551  -1.215  0.00  0.00    -0.000 C 
ATOM      2  C   UNL     1       0.821  -2.082  -1.229  0.00  0.00    +0.009 C 
ATOM      3  C   UNL     1       1.298  -2.577  -2.594  0.00  0.00    +0.037 C 
ATOM      4  C   UNL     1       2.611  -1.882  -2.944  0.00  0.00    -0.023 A 
ATOM      5  C   UNL     1       2.976  -0.742  -2.310  0.00  0.00    -0.004 A 
ATOM      6  S   UNL     1       4.541  -0.296  -3.020  0.00  0.00    -0.073 S 
ATOM      7  C   UNL     1       4.701  -1.633  -4.161  0.00  0.00    +0.116 A 
ATOM      8  C   UNL     1       3.526  -2.387  -3.951  0.00  0.00    +0.076 A 
ATOM      9  C   UNL     1       3.358  -3.568  -4.750  0.00  0.00    +0.263 A 
ATOM     10  O   UNL     1       2.380  -4.288  -4.646  0.00  0.00    -0.267 OA
ATOM     11  N   UNL     1       4.356  -3.832  -5.626  0.00  0.00    -0.290 N 
ATOM     12  C   UNL     1       5.451  -3.045  -5.758  0.00  0.00    +0.203 A 
ATOM     13  N   UNL     1       5.641  -1.956  -5.045  0.00  0.00    -0.230 NA
ATOM     14  C   UNL     1       2.220  -0.018  -1.240  0.00  0.00    +0.046 C 
ENDROOT
BRANCH   1  16
ATOM     15  C   UNL     1       0.044   1.462   0.069  0.00  0.00    +0.011 C 
ATOM     16  C   UNL     1       0.075  -0.068   0.054  0.00  0.00    -0.035 C 
ATOM     17  C   UNL     1       0.833  -0.574   1.283  0.00  0.00    +0.011 C 
ATOM     18  C   UNL     1      -1.356  -0.608   0.079  0.00  0.00    +0.011 C 
ENDBRANCH   1  16
BRANCH  11  19
ATOM     19  C   UNL     1       4.247  -5.023  -6.472  0.00  0.00    +0.222 C 
BRANCH  19  20
ATOM     20  C   UNL     1       3.541  -4.665  -7.754  0.00  0.00    +0.237 C 
ATOM     21  O   UNL     1       3.166  -3.528  -7.943  0.00  0.00    -0.274 OA
ATOM     22  N   UNL     1       3.326  -5.610  -8.691  0.00  0.00    -0.283 N 
ATOM     23  H   UNL     1       3.682  -6.504  -8.570  0.00  0.00    +0.155 HD
BRANCH  22  24
ATOM     24  C   UNL     1       2.592  -5.303  -9.835  0.00  0.00    +0.047 A 
ATOM     25  C   UNL     1       2.690  -4.042 -10.408  0.00  0.00    +0.024 A 
ATOM     26  C   UNL     1       1.965  -3.741 -11.543  0.00  0.00    +0.002 A 
ATOM     27  C   UNL     1       1.129  -4.688 -12.114  0.00  0.00    +0.001 A 
ATOM     28  C   UNL     1       1.016  -5.942 -11.556  0.00  0.00    +0.017 A 
ATOM     29  C   UNL     1       1.747  -6.264 -10.409  0.00  0.00    +0.080 A 
BRANCH  29  30
ATOM     30  C   UNL     1       1.630  -7.604  -9.807  0.00  0.00    +0.341 C 
ATOM     31  O   UNL     1       2.189  -7.849  -8.756  0.00  0.00    -0.245 OA
BRANCH  30  32
ATOM     32  O   UNL     1       0.902  -8.557 -10.421  0.00  0.00    -0.464 OA
ATOM     33  C   UNL     1       0.831  -9.854  -9.770  0.00  0.00    +0.280 C 
ENDBRANCH  30  32
ENDBRANCH  29  30
ENDBRANCH  22  24
ENDBRANCH  19  20
ENDBRANCH  11  19
TORSDOF 6
