REMARK  Name = ZINC39490848
REMARK  12 active torsions:
REMARK  status: ('A' for Active; 'I' for Inactive)
REMARK    1  A    between atoms: C_1  and  C_2
REMARK    2  A    between atoms: C_2  and  C_3
REMARK    3  A    between atoms: C_2  and  S_4
REMARK    4  A    between atoms: S_4  and  C_7
REMARK    5  A    between atoms: C_7  and  C_35
REMARK    6  A    between atoms: N_9  and  S_33
REMARK    7  A    between atoms: N_12  and  C_13
REMARK    8  A    between atoms: C_13  and  C_14
REMARK    9  A    between atoms: C_14  and  C_27
REMARK   10  A    between atoms: N_17  and  C_20
REMARK   11  A    between atoms: C_20  and  C_21
REMARK   12  A    between atoms: S_33  and  C_34
REMARK                            x       y       z     vdW  Elec       q    Type
REMARK                         _______ _______ _______ _____ _____    ______ ____
ROOT
ATOM      1  C   UNL     1      -4.103  -4.100  -1.333  0.00  0.00    -0.014 C 
ATOM      2  C   UNL     1      -2.665  -4.221  -1.845  0.00  0.00    -0.010 C 
ATOM      3  C   UNL     1      -1.751  -4.630  -0.688  0.00  0.00    -0.078 C 
ATOM      4  N   UNL     1      -2.189  -5.922  -0.146  0.00  0.00    +0.382 N 
ATOM      5  C   UNL     1      -3.542  -5.795   0.411  0.00  0.00    -0.078 C 
ATOM      6  C   UNL     1      -4.524  -5.431  -0.704  0.00  0.00    -0.010 C 
ATOM      7  H   UNL     1      -2.194  -6.611  -0.884  0.00  0.00    -0.081 HD
ENDROOT
BRANCH   1   8
ATOM      8  C   UNL     1      -5.036  -3.767  -2.500  0.00  0.00    -0.003 C 
ATOM      9  C   UNL     1      -6.488  -3.816  -2.021  0.00  0.00    +0.004 C 
ATOM     10  C   UNL     1      -7.421  -3.484  -3.187  0.00  0.00    +0.000 C 
ATOM     11  C   UNL     1      -7.219  -4.505  -4.309  0.00  0.00    +0.000 C 
ATOM     12  C   UNL     1      -5.767  -4.455  -4.788  0.00  0.00    +0.000 C 
ATOM     13  C   UNL     1      -4.834  -4.788  -3.621  0.00  0.00    +0.004 C 
ENDBRANCH   1   8
BRANCH   1  14
ATOM     14  C   UNL     1      -4.181  -2.990  -0.283  0.00  0.00    +0.118 C 
BRANCH  14  20
ATOM     15  C   UNL     1      -4.536  -0.587  -1.235  0.00  0.00    +0.170 C 
ATOM     16  C   UNL     1      -3.530   0.444  -1.784  0.00  0.00    +0.172 C 
ATOM     17  N   UNL     1      -2.230  -0.233  -1.662  0.00  0.00    -0.226 N 
ATOM     18  C   UNL     1      -2.416  -1.450  -1.135  0.00  0.00    +0.316 C 
ATOM     19  O   UNL     1      -1.504  -2.227  -0.925  0.00  0.00    -0.251 OA
ATOM     20  N   UNL     1      -3.696  -1.735  -0.862  0.00  0.00    -0.259 N 
ATOM     21  C   UNL     1      -5.543  -0.988  -2.315  0.00  0.00    +0.059 C 
BRANCH  15  22
ATOM     22  S   UNL     1      -5.394   0.073   0.220  0.00  0.00    -0.006 S 
ATOM     23  O   UNL     1      -4.458   0.804   1.001  0.00  0.00    -0.172 OA
ATOM     24  O   UNL     1      -6.127  -0.982   0.827  0.00  0.00    -0.172 OA
BRANCH  22  26
ATOM     25  C   UNL     1      -7.347   1.949   0.609  0.00  0.00    +0.031 C 
ATOM     26  C   UNL     1      -6.573   1.245  -0.508  0.00  0.00    +0.127 C 
ATOM     27  C   UNL     1      -5.814   2.284  -1.335  0.00  0.00    +0.031 C 
ENDBRANCH  22  26
ENDBRANCH  15  22
BRANCH  17  28
ATOM     28  S   UNL     1      -0.770   0.409  -2.105  0.00  0.00    -0.059 S 
ATOM     29  C   UNL     1      -0.186   1.248  -0.607  0.00  0.00    +0.107 C 
ENDBRANCH  17  28
ENDBRANCH  14  20
ENDBRANCH   1  14
BRANCH   4  30
ATOM     30  C   UNL     1      -1.264  -6.348   0.912  0.00  0.00    -0.043 C 
BRANCH  30  31
ATOM     31  C   UNL     1      -1.616  -7.744   1.356  0.00  0.00    -0.064 A 
ATOM     32  C   UNL     1      -2.521  -7.935   2.383  0.00  0.00    +0.002 A 
ATOM     33  C   UNL     1      -2.845  -9.215   2.791  0.00  0.00    +0.000 A 
ATOM     34  C   UNL     1      -2.264 -10.306   2.170  0.00  0.00    +0.000 A 
ATOM     35  C   UNL     1      -1.360 -10.115   1.142  0.00  0.00    +0.000 A 
ATOM     36  C   UNL     1      -1.039  -8.834   0.732  0.00  0.00    +0.002 A 
ENDBRANCH  30  31
ENDBRANCH   4  30
TORSDOF 8
