REMARK  Name = ZINC59446996
REMARK  4 active torsions:
REMARK  status: ('A' for Active; 'I' for Inactive)
REMARK    1  A    between atoms: N_9  and  O_18
REMARK    2  A    between atoms: C_10  and  C_13
REMARK    3  A    between atoms: O_18  and  C_19
REMARK    4  A    between atoms: N_21  and  C_22
REMARK                            x       y       z     vdW  Elec       q    Type
REMARK                         _______ _______ _______ _____ _____    ______ ____
ROOT
ATOM      1  C   UNL     1       0.005   1.385  -0.045  0.00  0.00    +0.001 A 
ATOM      2  C   UNL     1       1.191   2.101  -0.067  0.00  0.00    +0.002 A 
ATOM      3  C   UNL     1       2.407   1.445  -0.077  0.00  0.00    +0.024 A 
ATOM      4  C   UNL     1       2.439   0.062  -0.064  0.00  0.00    +0.041 A 
ATOM      5  C   UNL     1       1.238  -0.668  -0.038  0.00  0.00    +0.061 A 
ATOM      6  C   UNL     1       0.019   0.005  -0.030  0.00  0.00    +0.015 A 
ATOM      7  C   UNL     1       1.311  -2.141  -0.014  0.00  0.00    +0.282 C 
ATOM      8  O   UNL     1       0.326  -2.802   0.258  0.00  0.00    -0.267 OA
ATOM      9  N   UNL     1       2.482  -2.747  -0.298  0.00  0.00    -0.097 N 
ATOM     10  C   UNL     1       3.656  -1.974  -0.705  0.00  0.00    +0.268 C 
ATOM     11  N   UNL     1       3.635  -0.648  -0.078  0.00  0.00    -0.317 N 
ATOM     12  H   UNL     1       4.438  -0.274   0.319  0.00  0.00    +0.148 HD
ENDROOT
BRANCH  10  13
ATOM     13  C   UNL     1       3.653  -1.814  -2.204  0.00  0.00    +0.146 A 
ATOM     14  C   UNL     1       4.256  -0.827  -2.890  0.00  0.00    +0.048 A 
ATOM     15  C   UNL     1       3.998  -1.064  -4.260  0.00  0.00    +0.041 A 
ATOM     16  C   UNL     1       3.253  -2.182  -4.328  0.00  0.00    +0.195 A 
ATOM     17  O   UNL     1       3.052  -2.635  -3.080  0.00  0.00    -0.464 OA
ENDBRANCH  10  13
BRANCH   9  18
ATOM     18  O   UNL     1       2.578  -4.156  -0.200  0.00  0.00    -0.326 OA
BRANCH  18  19
ATOM     19  C   UNL     1       3.054  -4.591   0.978  0.00  0.00    +0.427 C 
ATOM     20  O   UNL     1       3.273  -3.800   1.875  0.00  0.00    -0.224 OA
ATOM     21  N   UNL     1       3.291  -5.905   1.166  0.00  0.00    -0.250 N 
ATOM     22  H   UNL     1       3.054  -6.544   0.476  0.00  0.00    +0.158 HD
BRANCH  21  23
ATOM     23  C   UNL     1       3.878  -6.347   2.358  0.00  0.00    +0.038 A 
ATOM     24  C   UNL     1       4.761  -7.418   2.342  0.00  0.00    +0.025 A 
ATOM     25  C   UNL     1       5.340  -7.853   3.518  0.00  0.00    +0.023 A 
ATOM     26  C   UNL     1       5.040  -7.222   4.713  0.00  0.00    +0.059 A 
ATOM     27  C   UNL     1       4.159  -6.153   4.732  0.00  0.00    +0.061 A 
ATOM     28  C   UNL     1       3.582  -5.712   3.556  0.00  0.00    +0.044 A 
ATOM     29 CL   UNL     1       3.785  -5.364   6.232  0.00  0.00    -0.082 Cl
ATOM     30 CL   UNL     1       5.769  -7.771   6.189  0.00  0.00    -0.082 Cl
ENDBRANCH  21  23
ENDBRANCH  18  19
ENDBRANCH   9  18
TORSDOF 4
