REMARK  Name = ZINC12895941
REMARK  17 active torsions:
REMARK  status: ('A' for Active; 'I' for Inactive)
REMARK    1  A    between atoms: C_1  and  C_2
REMARK    2  A    between atoms: C_2  and  C_3
REMARK    3  A    between atoms: C_2  and  C_4
REMARK    4  A    between atoms: C_4  and  C_5
REMARK    5  A    between atoms: C_5  and  C_7
REMARK    6  A    between atoms: C_5  and  N_11
REMARK    7  A    between atoms: C_7  and  O_9
REMARK    8  A    between atoms: O_9  and  C_10
REMARK    9  A    between atoms: C_19  and  O_37
REMARK   10  A    between atoms: C_20  and  O_35
REMARK   11  A    between atoms: C_23  and  C_25
REMARK   12  A    between atoms: C_28  and  O_33
REMARK   13  A    between atoms: C_29  and  O_31
REMARK   14  A    between atoms: O_31  and  C_32
REMARK   15  A    between atoms: O_33  and  C_34
REMARK   16  A    between atoms: O_35  and  C_36
REMARK   17  A    between atoms: O_37  and  C_38
REMARK                            x       y       z     vdW  Elec       q    Type
REMARK                         _______ _______ _______ _____ _____    ______ ____
ROOT
ATOM      1  N   UNL     1      -3.170   3.872   1.028  0.00  0.00    -0.286 N 
ATOM      2  C   UNL     1      -2.014   4.356   0.532  0.00  0.00    +0.304 C 
ATOM      3  O   UNL     1      -1.144   3.592   0.163  0.00  0.00    -0.253 OA
ATOM      4  N   UNL     1      -1.824   5.687   0.444  0.00  0.00    -0.274 N 
ATOM      5  C   UNL     1      -0.618   6.248  -0.186  0.00  0.00    +0.115 C 
ATOM      6  C   UNL     1      -1.062   7.021  -1.433  0.00  0.00    +0.054 C 
ATOM      7  C   UNL     1      -2.223   7.927  -1.116  0.00  0.00    -0.037 A 
ATOM      8  C   UNL     1      -2.473   8.980  -1.989  0.00  0.00    +0.053 A 
ATOM      9  C   UNL     1      -3.529   9.843  -1.767  0.00  0.00    +0.162 A 
ATOM     10  C   UNL     1      -4.350   9.657  -0.658  0.00  0.00    +0.162 A 
ATOM     11  C   UNL     1      -4.096   8.611   0.210  0.00  0.00    +0.055 A 
ATOM     12  C   UNL     1      -3.032   7.748  -0.016  0.00  0.00    -0.016 A 
ATOM     13  C   UNL     1      -2.808   6.635   0.977  0.00  0.00    +0.139 C 
ATOM     14  H   UNL     1      -3.841   4.479   1.377  0.00  0.00    +0.151 HD
ENDROOT
BRANCH  13  15
ATOM     15  C   UNL     1      -2.297   7.213   2.272  0.00  0.00    -0.019 A 
ATOM     16  C   UNL     1      -2.964   6.953   3.454  0.00  0.00    +0.009 A 
ATOM     17  C   UNL     1      -2.496   7.476   4.645  0.00  0.00    +0.050 A 
ATOM     18  C   UNL     1      -1.362   8.273   4.654  0.00  0.00    +0.162 A 
ATOM     19  C   UNL     1      -0.694   8.540   3.462  0.00  0.00    +0.162 A 
ATOM     20  C   UNL     1      -1.165   8.008   2.273  0.00  0.00    +0.055 A 
BRANCH  19  21
ATOM     21  O   UNL     1       0.419   9.322   3.465  0.00  0.00    -0.491 OA
ATOM     22  C   UNL     1       1.052   9.553   2.206  0.00  0.00    +0.277 C 
ENDBRANCH  19  21
BRANCH  18  23
ATOM     23  O   UNL     1      -0.904   8.793   5.823  0.00  0.00    -0.491 OA
ATOM     24  C   UNL     1      -1.640   8.477   7.007  0.00  0.00    +0.277 C 
ENDBRANCH  18  23
ENDBRANCH  13  15
BRANCH  10  25
ATOM     25  O   UNL     1      -5.395  10.496  -0.432  0.00  0.00    -0.491 OA
ATOM     26  C   UNL     1      -6.193  10.242   0.726  0.00  0.00    +0.277 C 
ENDBRANCH  10  25
BRANCH   9  27
ATOM     27  O   UNL     1      -3.765  10.870  -2.627  0.00  0.00    -0.491 OA
ATOM     28  C   UNL     1      -2.881  10.999  -3.742  0.00  0.00    +0.277 C 
ENDBRANCH   9  27
BRANCH   1  29
ATOM     29  C   UNL     1      -3.413   2.427   1.042  0.00  0.00    +0.183 C 
BRANCH  29  30
ATOM     30  C   UNL     1      -4.897   2.167   1.043  0.00  0.00    +0.327 C 
ATOM     31  O   UNL     1      -5.673   3.094   1.038  0.00  0.00    -0.249 OA
BRANCH  30  32
ATOM     32  O   UNL     1      -5.358   0.906   1.054  0.00  0.00    -0.467 OA
ATOM     33  C   UNL     1      -6.800   0.732   1.060  0.00  0.00    +0.280 C 
ENDBRANCH  30  32
ENDBRANCH  29  30
BRANCH  29  34
ATOM     34  C   UNL     1      -2.788   1.816   2.298  0.00  0.00    +0.036 C 
BRANCH  34  36
ATOM     35  C   UNL     1      -0.651   1.473   3.546  0.00  0.00    +0.007 C 
ATOM     36  C   UNL     1      -1.267   1.970   2.237  0.00  0.00    -0.015 C 
ATOM     37  C   UNL     1      -0.717   1.147   1.070  0.00  0.00    +0.007 C 
ENDBRANCH  34  36
ENDBRANCH  29  34
ENDBRANCH   1  29
TORSDOF 10
