REMARK  Name = ZINC00861693
REMARK  7 active torsions:
REMARK  status: ('A' for Active; 'I' for Inactive)
REMARK    1  A    between atoms: C_4  and  C_7
REMARK    2  A    between atoms: C_8  and  C_18
REMARK    3  A    between atoms: N_10  and  C_12
REMARK    4  A    between atoms: C_21  and  C_31
REMARK    5  A    between atoms: C_24  and  C_26
REMARK    6  A    between atoms: C_26  and  C_27
REMARK    7  A    between atoms: C_27  and  C_28
REMARK                            x       y       z     vdW  Elec       q    Type
REMARK                         _______ _______ _______ _____ _____    ______ ____
ROOT
ATOM      1  C   UNL     1       3.069  -2.603   1.604  0.00  0.00    +0.140 C 
ATOM      2  C   UNL     1       2.950  -1.875   2.957  0.00  0.00    +0.087 C 
ATOM      3  C   UNL     1       3.472  -2.881   3.959  0.00  0.00    +0.069 C 
ATOM      4  N   UNL     1       3.821  -3.958   3.345  0.00  0.00    -0.181 NA
ATOM      5  N   UNL     1       3.629  -3.916   1.962  0.00  0.00    -0.185 N 
ATOM      6  C   UNL     1       3.911  -4.910   1.097  0.00  0.00    +0.236 C 
ATOM      7  O   UNL     1       3.703  -4.760  -0.089  0.00  0.00    -0.274 OA
ENDROOT
BRANCH   3   8
ATOM      8  C   UNL     1       3.568  -2.661   5.414  0.00  0.00    -0.002 A 
ATOM      9  C   UNL     1       3.154  -1.448   5.969  0.00  0.00    +0.011 A 
ATOM     10  C   UNL     1       3.247  -1.250   7.331  0.00  0.00    +0.016 A 
ATOM     11  C   UNL     1       3.749  -2.249   8.147  0.00  0.00    +0.018 A 
ATOM     12  C   UNL     1       4.162  -3.454   7.603  0.00  0.00    +0.016 A 
ATOM     13  C   UNL     1       4.069  -3.668   6.243  0.00  0.00    +0.011 A 
ATOM     14 BR   UNL     1       3.873  -1.968  10.013  0.00  0.00    -0.050 Br
ENDBRANCH   3   8
BRANCH   1  16
ATOM     15  C   UNL     1       3.632  -0.884  -0.262  0.00  0.00    +0.098 A 
ATOM     16  C   UNL     1       4.002  -1.861   0.682  0.00  0.00    +0.021 A 
ATOM     17  C   UNL     1       5.343  -2.016   0.616  0.00  0.00    +0.120 A 
ATOM     18  N   UNL     1       5.813  -1.168  -0.336  0.00  0.00    -0.239 N 
ATOM     19  N   UNL     1       4.722  -0.474  -0.876  0.00  0.00    -0.166 NA
BRANCH  15  23
ATOM     20  C   UNL     1      -0.321   0.492  -1.013  0.00  0.00    +0.000 A 
ATOM     21  C   UNL     1       0.103   0.290   0.288  0.00  0.00    +0.001 A 
ATOM     22  C   UNL     1       1.384  -0.157   0.537  0.00  0.00    +0.010 A 
ATOM     23  C   UNL     1       2.252  -0.404  -0.524  0.00  0.00    +0.002 A 
ATOM     24  C   UNL     1       1.820  -0.199  -1.833  0.00  0.00    +0.010 A 
ATOM     25  C   UNL     1       0.536   0.248  -2.071  0.00  0.00    +0.001 A 
ENDBRANCH  15  23
BRANCH  18  26
ATOM     26  C   UNL     1       7.153  -1.019  -0.716  0.00  0.00    +0.065 A 
ATOM     27  C   UNL     1       8.139  -1.782  -0.104  0.00  0.00    +0.028 A 
ATOM     28  C   UNL     1       9.459  -1.632  -0.480  0.00  0.00    +0.002 A 
ATOM     29  C   UNL     1       9.800  -0.723  -1.465  0.00  0.00    +0.000 A 
ATOM     30  C   UNL     1       8.821   0.039  -2.076  0.00  0.00    +0.002 A 
ATOM     31  C   UNL     1       7.498  -0.111  -1.709  0.00  0.00    +0.028 A 
ENDBRANCH  18  26
ENDBRANCH   1  16
BRANCH   6  32
ATOM     32  C   UNL     1       4.484  -6.209   1.603  0.00  0.00    +0.109 C 
BRANCH  32  33
ATOM     33  C   UNL     1       4.710  -7.160   0.426  0.00  0.00    +0.134 C 
BRANCH  33  34
ATOM     34  C   UNL     1       5.283  -8.459   0.932  0.00  0.00    +0.356 C 
ATOM     35  O   UNL     1       5.492  -8.609   2.123  0.00  0.00    -0.246 OA
ATOM     36  O   UNL     1       5.538  -9.358   0.149  0.00  0.00    -0.246 OA
ENDBRANCH  33  34
ENDBRANCH  32  33
ENDBRANCH   6  32
TORSDOF 7
