REMARK  Name = ZINC11363180
REMARK  8 active torsions:
REMARK  status: ('A' for Active; 'I' for Inactive)
REMARK    1  A    between atoms: C_1  and  C_2
REMARK    2  A    between atoms: C_5  and  N_8
REMARK    3  A    between atoms: C_9  and  C_30
REMARK    4  A    between atoms: C_11  and  C_16
REMARK    5  A    between atoms: N_18  and  C_19
REMARK    6  A    between atoms: C_22  and  N_25
REMARK    7  A    between atoms: N_25  and  S_26
REMARK    8  A    between atoms: S_26  and  C_29
REMARK                            x       y       z     vdW  Elec       q    Type
REMARK                         _______ _______ _______ _____ _____    ______ ____
ROOT
ATOM      1  N   UNL     1       0.815   5.889  -0.779  0.00  0.00    -0.263 N 
ATOM      2  C   UNL     1       0.829   5.476   0.629  0.00  0.00    +0.130 C 
ATOM      3  C   UNL     1       1.023   3.943   0.607  0.00  0.00    +0.110 C 
ATOM      4  C   UNL     1       1.741   3.736  -0.747  0.00  0.00    +0.111 C 
ATOM      5  C   UNL     1       1.327   4.933  -1.574  0.00  0.00    +0.221 C 
ATOM      6  O   UNL     1       1.439   5.018  -2.778  0.00  0.00    -0.275 OA
ENDROOT
BRANCH   1  11
ATOM      7  C   UNL     1      -1.146  10.880  -2.631  0.00  0.00    +0.044 C 
ATOM      8  C   UNL     1      -0.625   9.554  -2.139  0.00  0.00    -0.050 A 
ATOM      9  C   UNL     1      -0.550   9.303  -0.781  0.00  0.00    +0.005 A 
ATOM     10  C   UNL     1      -0.074   8.089  -0.327  0.00  0.00    +0.024 A 
ATOM     11  C   UNL     1       0.331   7.120  -1.236  0.00  0.00    +0.037 A 
ATOM     12  C   UNL     1       0.260   7.377  -2.599  0.00  0.00    +0.024 A 
ATOM     13  C   UNL     1      -0.223   8.591  -3.046  0.00  0.00    +0.005 A 
ENDBRANCH   1  11
BRANCH   2  14
ATOM     14  C   UNL     1      -0.479   5.826   1.290  0.00  0.00    +0.011 A 
ATOM     15  C   UNL     1      -0.706   6.281   2.547  0.00  0.00    +0.013 A 
ATOM     16  C   UNL     1      -2.004   6.542   2.941  0.00  0.00    +0.008 A 
ATOM     17  C   UNL     1      -3.014   6.326   2.064  0.00  0.00    +0.045 A 
ATOM     18  S   UNL     1      -2.134   5.742   0.625  0.00  0.00    -0.100 S 
ENDBRANCH   2  14
BRANCH   3  19
ATOM     19  C   UNL     1      -0.305   3.231   0.628  0.00  0.00    +0.223 C 
ATOM     20  O   UNL     1      -0.830   2.897  -0.413  0.00  0.00    -0.275 OA
ATOM     21  N   UNL     1      -0.906   2.960   1.803  0.00  0.00    -0.285 N 
ATOM     22  H   UNL     1      -0.452   3.158   2.637  0.00  0.00    +0.155 HD
BRANCH  21  23
ATOM     23  C   UNL     1      -2.188   2.393   1.821  0.00  0.00    +0.034 A 
ATOM     24  C   UNL     1      -3.072   2.644   0.780  0.00  0.00    +0.025 A 
ATOM     25  C   UNL     1      -4.333   2.082   0.794  0.00  0.00    +0.026 A 
ATOM     26  C   UNL     1      -4.720   1.273   1.855  0.00  0.00    +0.048 A 
ATOM     27  C   UNL     1      -3.838   1.027   2.899  0.00  0.00    +0.026 A 
ATOM     28  C   UNL     1      -2.575   1.586   2.881  0.00  0.00    +0.025 A 
BRANCH  26  29
ATOM     29  N   UNL     1      -5.999   0.707   1.872  0.00  0.00    -0.221 N 
ATOM     30  H   UNL     1      -6.203  -0.049   1.299  0.00  0.00    +0.173 HD
BRANCH  29  31
ATOM     31  S   UNL     1      -7.166   1.326   2.871  0.00  0.00    +0.040 S 
ATOM     32  O   UNL     1      -8.308   0.512   2.643  0.00  0.00    -0.155 OA
ATOM     33  O   UNL     1      -6.556   1.377   4.153  0.00  0.00    -0.155 OA
ATOM     34  C   UNL     1      -7.464   3.006   2.254  0.00  0.00    +0.218 C 
ENDBRANCH  29  31
ENDBRANCH  26  29
ENDBRANCH  21  23
ENDBRANCH   3  19
TORSDOF 6
