REMARK  Name = ZINC39007063
REMARK  7 active torsions:
REMARK  status: ('A' for Active; 'I' for Inactive)
REMARK    1  A    between atoms: C_4  and  O_36
REMARK    2  A    between atoms: C_5  and  C_7
REMARK    3  A    between atoms: C_10  and  C_12
REMARK    4  A    between atoms: N_14  and  C_15
REMARK    5  A    between atoms: C_17  and  C_26
REMARK    6  A    between atoms: N_28  and  C_29
REMARK    7  A    between atoms: C_29  and  C_30
REMARK                            x       y       z     vdW  Elec       q    Type
REMARK                         _______ _______ _______ _____ _____    ______ ____
ROOT
ATOM      1  C   UNL     1       0.281  -8.210  -0.053  0.00  0.00    +0.167 C 
ATOM      2  C   UNL     1       1.002  -9.153  -0.999  0.00  0.00    +0.045 C 
ATOM      3  C   UNL     1       1.801 -10.060  -0.499  0.00  0.00    -0.046 C 
ATOM      4  C   UNL     1       2.509 -11.152  -1.302  0.00  0.00    +0.032 C 
ATOM      5  C   UNL     1       3.546 -11.777  -0.364  0.00  0.00    +0.004 C 
ATOM      6  C   UNL     1       2.901 -12.396   0.867  0.00  0.00    +0.002 C 
ATOM      7  C   UNL     1       1.772 -11.543   1.440  0.00  0.00    +0.018 C 
ATOM      8  C   UNL     1       1.974 -10.084   1.027  0.00  0.00    +0.075 C 
ATOM      9  S   UNL     1       0.533  -9.072   1.560  0.00  0.00    -0.126 S 
ENDROOT
BRANCH   1  12
ATOM     10  C   UNL     1       0.140  -5.778  -0.038  0.00  0.00    +0.261 C 
ATOM     11  O   UNL     1      -1.073  -5.878  -0.034  0.00  0.00    -0.269 OA
ATOM     12  N   UNL     1       0.907  -6.886  -0.048  0.00  0.00    -0.294 N 
ATOM     13  H   UNL     1       1.874  -6.806  -0.051  0.00  0.00    +0.150 HD
BRANCH  10  17
ATOM     14  C   UNL     1       1.257  -2.150  -0.022  0.00  0.00    +0.080 C 
ATOM     15  N   UNL     1       2.314  -2.930  -0.032  0.00  0.00    -0.153 NA
ATOM     16  N   UNL     1       2.044  -4.176  -0.038  0.00  0.00    -0.148 NA
ATOM     17  C   UNL     1       0.766  -4.453  -0.034  0.00  0.00    +0.131 C 
ATOM     18  C   UNL     1       0.071  -3.101  -0.016  0.00  0.00    +0.120 C 
BRANCH  14  23
ATOM     19  C   UNL     1      -0.017   1.372   0.010  0.00  0.00    +0.001 A 
ATOM     20  C   UNL     1       1.170   2.089   0.002  0.00  0.00    +0.004 A 
ATOM     21  C   UNL     1       2.385   1.433  -0.013  0.00  0.00    +0.046 A 
ATOM     22  C   UNL     1       2.428   0.047  -0.022  0.00  0.00    +0.126 A 
ATOM     23  C   UNL     1       1.227  -0.685  -0.014  0.00  0.00    +0.040 A 
ATOM     24  C   UNL     1       0.002  -0.004   0.002  0.00  0.00    +0.013 A 
BRANCH  22  25
ATOM     25  O   UNL     1       3.621  -0.598  -0.038  0.00  0.00    -0.506 OA
ATOM     26  H   UNL     1       3.976  -0.790   0.841  0.00  0.00    +0.292 HD
ENDBRANCH  22  25
ENDBRANCH  14  23
ENDBRANCH  10  17
ENDBRANCH   1  12
BRANCH   2  27
ATOM     27  C   UNL     1       0.805  -9.049  -2.453  0.00  0.00    +0.243 C 
ATOM     28  O   UNL     1       1.387  -9.810  -3.202  0.00  0.00    -0.270 OA
ATOM     29  N   UNL     1      -0.021  -8.110  -2.956  0.00  0.00    -0.307 N 
ATOM     30  H   UNL     1      -0.486  -7.503  -2.358  0.00  0.00    +0.149 HD
BRANCH  29  31
ATOM     31  C   UNL     1      -0.217  -8.006  -4.404  0.00  0.00    +0.141 C 
BRANCH  31  32
ATOM     32  C   UNL     1      -1.180  -6.886  -4.701  0.00  0.00    -0.012 A 
ATOM     33  C   UNL     1      -2.544  -7.130  -4.765  0.00  0.00    +0.008 A 
ATOM     34  C   UNL     1      -3.392  -6.069  -5.042  0.00  0.00    +0.020 A 
ATOM     35  C   UNL     1      -2.854  -4.812  -5.243  0.00  0.00    +0.111 A 
ATOM     36  N   UNL     1      -1.552  -4.616  -5.175  0.00  0.00    -0.263 NA
ATOM     37  C   UNL     1      -0.716  -5.600  -4.908  0.00  0.00    +0.115 A 
ENDBRANCH  31  32
ENDBRANCH  29  31
ENDBRANCH   2  27
TORSDOF 7
