REMARK  Name = ZINC35050981
REMARK  16 active torsions:
REMARK  status: ('A' for Active; 'I' for Inactive)
REMARK    1  A    between atoms: C_1  and  C_2
REMARK    2  A    between atoms: C_2  and  C_4
REMARK    3  A    between atoms: C_2  and  N_30
REMARK    4  A    between atoms: N_6  and  C_7
REMARK    5  A    between atoms: C_7  and  C_9
REMARK    6  A    between atoms: C_7  and  C_10
REMARK    7  A    between atoms: C_13  and  C_15
REMARK    8  A    between atoms: C_15  and  C_17
REMARK    9  A    between atoms: C_15  and  N_20
REMARK   10  A    between atoms: C_17  and  C_18
REMARK   11  A    between atoms: C_17  and  C_19
REMARK   12  A    between atoms: N_20  and  C_21
REMARK   13  A    between atoms: C_24  and  N_27
REMARK   14  A    between atoms: C_31  and  C_33
REMARK   15  A    between atoms: C_33  and  C_34
REMARK   16  A    between atoms: C_34  and  C_35
REMARK                            x       y       z     vdW  Elec       q    Type
REMARK                         _______ _______ _______ _____ _____    ______ ____
ROOT
ATOM      1  C   UNL     1       2.993  -0.141   5.461  0.00  0.00    +0.239 C 
ATOM      2  O   UNL     1       2.979   0.987   5.015  0.00  0.00    -0.273 OA
ATOM      3  N   UNL     1       2.410  -0.404   6.647  0.00  0.00    -0.253 N 
ATOM      4  C   UNL     1       1.811   0.587   7.338  0.00  0.00    +0.240 C 
ATOM      5  O   UNL     1       1.867   1.728   6.933  0.00  0.00    -0.273 OA
ATOM      6  H   UNL     1       2.420  -1.306   7.003  0.00  0.00    +0.158 HD
ENDROOT
BRANCH   1   7
ATOM      7  C   UNL     1       3.662  -1.248   4.688  0.00  0.00    +0.156 C 
ATOM      8  C   UNL     1       2.636  -2.335   4.362  0.00  0.00    +0.038 C 
BRANCH   7  11
ATOM      9  C   UNL     1       5.252  -1.328   2.843  0.00  0.00    +0.234 C 
ATOM     10  O   UNL     1       5.727  -2.330   3.334  0.00  0.00    -0.274 OA
ATOM     11  N   UNL     1       4.215  -0.710   3.443  0.00  0.00    -0.303 N 
ATOM     12  H   UNL     1       3.835   0.092   3.050  0.00  0.00    +0.149 HD
BRANCH   9  14
ATOM     13  C   UNL     1       6.328   0.649   1.803  0.00  0.00    +0.038 C 
ATOM     14  C   UNL     1       5.821  -0.774   1.562  0.00  0.00    +0.156 C 
BRANCH  14  15
ATOM     15  N   UNL     1       6.931  -1.619   1.115  0.00  0.00    -0.304 N 
ATOM     16  C   UNL     1       7.266  -1.656  -0.190  0.00  0.00    +0.214 C 
ATOM     17  O   UNL     1       6.649  -0.990  -0.994  0.00  0.00    -0.276 OA
ATOM     18  H   UNL     1       7.424  -2.151   1.758  0.00  0.00    +0.149 HD
BRANCH  16  19
ATOM     19  C   UNL     1       8.408  -2.525  -0.649  0.00  0.00    +0.107 C 
BRANCH  19  20
ATOM     20  C   UNL     1       8.578  -2.385  -2.163  0.00  0.00    +0.134 C 
BRANCH  20  21
ATOM     21  C   UNL     1       9.720  -3.255  -2.623  0.00  0.00    +0.356 C 
ATOM     22  O   UNL     1      10.341  -3.924  -1.815  0.00  0.00    -0.246 OA
ATOM     23  O   UNL     1      10.024  -3.288  -3.804  0.00  0.00    -0.246 OA
ENDBRANCH  20  21
ENDBRANCH  19  20
ENDBRANCH  16  19
ENDBRANCH  14  15
ENDBRANCH   9  14
ENDBRANCH   7  11
ENDBRANCH   1   7
BRANCH   4  24
ATOM     24  C   UNL     1       1.073   0.275   8.614  0.00  0.00    +0.160 C 
BRANCH  24  25
ATOM     25  C   UNL     1      -0.073  -0.694   8.316  0.00  0.00    +0.012 C 
ATOM     26  C   UNL     1      -0.769  -1.078   9.624  0.00  0.00    +0.009 C 
ATOM     27  C   UNL     1      -1.081  -0.021   7.382  0.00  0.00    +0.009 C 
ENDBRANCH  24  25
BRANCH  24  28
ATOM     28  N   UNL     1       0.531   1.514   9.179  0.00  0.00    -0.333 N 
ATOM     29  H   UNL     1      -0.030   2.089   8.636  0.00  0.00    +0.147 HD
BRANCH  28  30
ATOM     30  C   UNL     1       0.822   1.865  10.499  0.00  0.00    +0.028 A 
ATOM     31  C   UNL     1       1.994   1.417  11.096  0.00  0.00    +0.025 A 
ATOM     32  C   UNL     1       2.279   1.767  12.402  0.00  0.00    +0.034 A 
ATOM     33  C   UNL     1       1.399   2.561  13.114  0.00  0.00    +0.126 A 
ATOM     34  C   UNL     1       0.232   3.009  12.523  0.00  0.00    +0.034 A 
ATOM     35  C   UNL     1      -0.057   2.667  11.216  0.00  0.00    +0.025 A 
BRANCH  33  36
ATOM     36  N   UNL     1       1.708   2.933  14.513  0.00  0.00    +0.056 N 
ATOM     37  O   UNL     1       2.728   2.543  15.031  0.00  0.00    -0.126 OA
ATOM     38  O   UNL     1       0.940   3.628  15.137  0.00  0.00    -0.126 OA
ENDBRANCH  33  36
ENDBRANCH  28  30
ENDBRANCH  24  28
ENDBRANCH   4  24
TORSDOF 12
