REMARK  Name = ZINC10045123
REMARK  13 active torsions:
REMARK  status: ('A' for Active; 'I' for Inactive)
REMARK    1  A    between atoms: C_1  and  C_2
REMARK    2  A    between atoms: C_5  and  C_8
REMARK    3  A    between atoms: C_11  and  C_13
REMARK    4  A    between atoms: C_13  and  C_14
REMARK    5  A    between atoms: C_14  and  C_15
REMARK    6  A    between atoms: C_15  and  O_17
REMARK    7  A    between atoms: O_17  and  C_18
REMARK    8  A    between atoms: C_18  and  C_20
REMARK    9  A    between atoms: C_18  and  C_21
REMARK   10  A    between atoms: N_23  and  C_24
REMARK   11  A    between atoms: C_26  and  N_32
REMARK   12  A    between atoms: C_29  and  O_30
REMARK   13  A    between atoms: O_30  and  C_31
REMARK                            x       y       z     vdW  Elec       q    Type
REMARK                         _______ _______ _______ _____ _____    ______ ____
ROOT
ATOM      1  O   UNL     1      -2.468  -9.734  -3.165  0.00  0.00    -0.452 OA
ENDROOT
BRANCH   1   2
ATOM      2  C   UNL     1      -1.311  -9.171  -2.781  0.00  0.00    +0.308 C 
ATOM      3  O   UNL     1      -0.260  -9.646  -3.141  0.00  0.00    -0.251 OA
BRANCH   2   4
ATOM      4  C   UNL     1      -1.323  -7.948  -1.902  0.00  0.00    +0.130 C 
BRANCH   4   5
ATOM      5  C   UNL     1       0.115  -7.512  -1.614  0.00  0.00    +0.105 C 
BRANCH   5   9
ATOM      6  C   UNL     1       0.076  -4.216  -0.081  0.00  0.00    +0.153 A 
ATOM      7  C   UNL     1       0.096  -5.026   1.009  0.00  0.00    +0.132 A 
ATOM      8  N   UNL     1       0.111  -6.293   0.569  0.00  0.00    -0.333 N 
ATOM      9  C   UNL     1       0.102  -6.288  -0.735  0.00  0.00    +0.175 A 
ATOM     10  O   UNL     1       0.075  -5.020  -1.167  0.00  0.00    -0.442 OA
ATOM     11  H   UNL     1       0.127  -7.084   1.130  0.00  0.00    +0.168 HD
BRANCH   6  16
ATOM     12  C   UNL     1      -0.016   1.538  -0.074  0.00  0.00    +0.044 C 
ATOM     13  C   UNL     1       0.008   0.031  -0.076  0.00  0.00    -0.050 A 
ATOM     14  C   UNL     1       0.006  -0.656  -1.277  0.00  0.00    +0.004 A 
ATOM     15  C   UNL     1       0.028  -2.036  -1.285  0.00  0.00    +0.012 A 
ATOM     16  C   UNL     1       0.053  -2.738  -0.079  0.00  0.00    +0.019 A 
ATOM     17  C   UNL     1       0.056  -2.038   1.129  0.00  0.00    +0.012 A 
ATOM     18  C   UNL     1       0.039  -0.658   1.123  0.00  0.00    +0.004 A 
ENDBRANCH   6  16
ENDBRANCH   5   9
ENDBRANCH   4   5
ENDBRANCH   2   4
ENDBRANCH   1   2
BRANCH   1  19
ATOM     19  C   UNL     1      -2.381 -10.892  -3.998  0.00  0.00    +0.259 C 
ATOM     20  C   UNL     1      -2.329 -12.147  -3.124  0.00  0.00    +0.062 C 
BRANCH  19  21
ATOM     21  C   UNL     1      -3.589 -10.955  -4.897  0.00  0.00    +0.258 C 
ATOM     22  O   UNL     1      -4.440 -10.094  -4.830  0.00  0.00    -0.271 OA
ATOM     23  N   UNL     1      -3.723 -11.969  -5.775  0.00  0.00    -0.279 N 
ATOM     24  H   UNL     1      -3.013 -12.622  -5.874  0.00  0.00    +0.155 HD
BRANCH  23  25
ATOM     25  C   UNL     1      -4.889 -12.080  -6.544  0.00  0.00    +0.078 A 
ATOM     26  C   UNL     1      -5.544 -10.938  -6.983  0.00  0.00    +0.059 A 
ATOM     27  C   UNL     1      -6.694 -11.050  -7.741  0.00  0.00    +0.128 A 
ATOM     28  C   UNL     1      -7.194 -12.298  -8.065  0.00  0.00    +0.036 A 
ATOM     29  C   UNL     1      -6.547 -13.440  -7.631  0.00  0.00    +0.050 A 
ATOM     30  C   UNL     1      -5.391 -13.337  -6.875  0.00  0.00    +0.141 A 
BRANCH  27  31
ATOM     31  N   UNL     1      -7.392  -9.831  -8.208  0.00  0.00    +0.056 N 
ATOM     32  O   UNL     1      -6.956  -8.739  -7.926  0.00  0.00    -0.126 OA
ATOM     33  O   UNL     1      -8.398  -9.927  -8.872  0.00  0.00    -0.126 OA
ENDBRANCH  27  31
BRANCH  30  34
ATOM     34  O   UNL     1      -4.750 -14.459  -6.452  0.00  0.00    -0.493 OA
ATOM     35  C   UNL     1      -5.321 -15.713  -6.830  0.00  0.00    +0.277 C 
ENDBRANCH  30  34
ENDBRANCH  23  25
ENDBRANCH  19  21
ENDBRANCH   1  19
TORSDOF 10
