REMARK  Name = ZINC39930660
REMARK  10 active torsions:
REMARK  status: ('A' for Active; 'I' for Inactive)
REMARK    1  A    between atoms: C_1  and  O_2
REMARK    2  A    between atoms: O_2  and  C_3
REMARK    3  A    between atoms: C_9  and  C_13
REMARK    4  A    between atoms: C_13  and  C_15
REMARK    5  A    between atoms: C_13  and  O_28
REMARK    6  A    between atoms: C_24  and  C_26
REMARK    7  A    between atoms: O_28  and  C_29
REMARK    8  A    between atoms: C_29  and  C_31
REMARK    9  A    between atoms: C_33  and  N_40
REMARK   10  A    between atoms: C_35  and  N_37
REMARK                            x       y       z     vdW  Elec       q    Type
REMARK                         _______ _______ _______ _____ _____    ______ ____
ROOT
ATOM      1  C   UNL     1      -1.248  -4.990   0.217  0.00  0.00    +0.194 C 
ENDROOT
BRANCH   1   8
ATOM      2  C   UNL     1      -0.311  -0.849   0.757  0.00  0.00    +0.121 A 
ATOM      3  C   UNL     1      -1.246   0.143   0.446  0.00  0.00    +0.048 A 
ATOM      4  C   UNL     1      -2.476  -0.179  -0.036  0.00  0.00    +0.032 A 
ATOM      5  C   UNL     1      -2.821  -1.529  -0.227  0.00  0.00    +0.072 A 
ATOM      6  C   UNL     1      -1.873  -2.535   0.089  0.00  0.00    +0.010 A 
ATOM      7  C   UNL     1      -0.610  -2.170   0.579  0.00  0.00    +0.056 A 
ATOM      8  C   UNL     1      -2.222  -3.885  -0.104  0.00  0.00    +0.002 A 
ATOM      9  C   UNL     1      -3.468  -4.166  -0.589  0.00  0.00    +0.027 A 
ATOM     10  C   UNL     1      -4.351  -3.129  -0.879  0.00  0.00    +0.112 A 
ATOM     11  N   UNL     1      -4.023  -1.873  -0.699  0.00  0.00    -0.255 NA
BRANCH   2  13
ATOM     12  C   UNL     1       1.162   0.902   1.401  0.00  0.00    +0.277 C 
ATOM     13  O   UNL     1       0.910  -0.495   1.236  0.00  0.00    -0.495 OA
ENDBRANCH   2  13
ENDBRANCH   1   8
BRANCH   1  14
ATOM     14  C   UNL     1      -1.343  -5.338   1.704  0.00  0.00    -0.022 C 
ATOM     15  C   UNL     1      -0.478  -6.566   1.994  0.00  0.00    -0.008 C 
ATOM     16  C   UNL     1      -1.372  -7.681   2.553  0.00  0.00    -0.009 C 
ATOM     17  C   UNL     1      -2.445  -8.011   1.507  0.00  0.00    -0.015 C 
ATOM     18  C   UNL     1      -3.251  -6.745   1.209  0.00  0.00    -0.078 C 
ATOM     19  N   UNL     1      -2.739  -5.617   2.049  0.00  0.00    +0.385 N 
ATOM     20  C   UNL     1      -2.866  -5.917   3.477  0.00  0.00    -0.070 C 
ATOM     21  C   UNL     1      -2.052  -7.162   3.827  0.00  0.00    -0.003 C 
ATOM     22  H   UNL     1      -3.288  -4.794   1.853  0.00  0.00    -0.081 HD
BRANCH  21  23
ATOM     23  C   UNL     1      -1.004  -6.811   4.852  0.00  0.00    -0.033 C 
ATOM     24  C   UNL     1      -0.995  -7.418   6.013  0.00  0.00    +0.004 C 
ENDBRANCH  21  23
ENDBRANCH   1  14
BRANCH   1  25
ATOM     25  O   UNL     1      -1.564  -6.144  -0.564  0.00  0.00    -0.455 OA
BRANCH  25  26
ATOM     26  C   UNL     1      -0.548  -6.732  -1.225  0.00  0.00    +0.340 C 
ATOM     27  O   UNL     1       0.556  -6.225  -1.217  0.00  0.00    -0.245 OA
BRANCH  26  28
ATOM     28  C   UNL     1      -0.776  -7.994  -1.959  0.00  0.00    +0.063 A 
ATOM     29  C   UNL     1      -2.045  -8.576  -1.975  0.00  0.00    +0.047 A 
ATOM     30  C   UNL     1      -2.250  -9.754  -2.662  0.00  0.00    +0.129 A 
ATOM     31  C   UNL     1      -1.203 -10.358  -3.335  0.00  0.00    +0.065 A 
ATOM     32  C   UNL     1       0.057  -9.787  -3.323  0.00  0.00    +0.129 A 
ATOM     33  C   UNL     1       0.275  -8.606  -2.645  0.00  0.00    +0.047 A 
BRANCH  32  34
ATOM     34  N   UNL     1       1.171 -10.441  -4.045  0.00  0.00    +0.057 N 
ATOM     35  O   UNL     1       0.980 -11.473  -4.644  0.00  0.00    -0.126 OA
ATOM     36  O   UNL     1       2.273  -9.943  -4.035  0.00  0.00    -0.126 OA
ENDBRANCH  32  34
BRANCH  30  37
ATOM     37  N   UNL     1      -3.595 -10.374  -2.680  0.00  0.00    +0.057 N 
ATOM     38  O   UNL     1      -4.511  -9.847  -2.092  0.00  0.00    -0.126 OA
ATOM     39  O   UNL     1      -3.777 -11.406  -3.282  0.00  0.00    -0.126 OA
ENDBRANCH  30  37
ENDBRANCH  26  28
ENDBRANCH  25  26
ENDBRANCH   1  25
TORSDOF 9
