REMARK  Name = ZINC12309824
REMARK  10 active torsions:
REMARK  status: ('A' for Active; 'I' for Inactive)
REMARK    1  A    between atoms: C_1  and  C_2
REMARK    2  A    between atoms: C_2  and  C_3
REMARK    3  A    between atoms: C_3  and  C_4
REMARK    4  A    between atoms: C_4  and  C_5
REMARK    5  A    between atoms: C_11  and  N_12
REMARK    6  A    between atoms: N_12  and  O_13
REMARK    7  A    between atoms: O_13  and  C_14
REMARK    8  A    between atoms: C_14  and  C_15
REMARK    9  A    between atoms: N_27  and  C_32
REMARK   10  A    between atoms: N_30  and  C_31
REMARK                            x       y       z     vdW  Elec       q    Type
REMARK                         _______ _______ _______ _____ _____    ______ ____
ROOT
ATOM      1  C   UNL     1       4.770  -7.175   0.138  0.00  0.00    -0.005 A 
ATOM      2  C   UNL     1       4.638  -8.487   0.399  0.00  0.00    +0.090 A 
ATOM      3  N   UNL     1       3.419  -9.051   0.667  0.00  0.00    -0.347 N 
ATOM      4  H   UNL     1       3.364 -10.062   1.098  0.00  0.00    +0.167 HD
ATOM      5  C   UNL     1       2.252  -8.401   0.417  0.00  0.00    +0.129 A 
ATOM      6  C   UNL     1       2.262  -7.034   0.156  0.00  0.00    +0.106 A 
ATOM      7  C   UNL     1       3.559  -6.330   0.148  0.00  0.00    +0.082 A 
ATOM      8  C   UNL     1       1.043  -6.363  -0.093  0.00  0.00    +0.268 A 
ATOM      9  O   UNL     1       1.028  -5.167  -0.320  0.00  0.00    -0.267 OA
ATOM     10  N   UNL     1      -0.105  -7.074  -0.073  0.00  0.00    -0.263 N 
ATOM     11  C   UNL     1      -0.092  -8.395   0.177  0.00  0.00    +0.333 A 
ATOM     12  O   UNL     1      -1.144  -9.004   0.184  0.00  0.00    -0.246 OA
ATOM     13  N   UNL     1       1.051  -9.063   0.419  0.00  0.00    -0.282 N 
ATOM     14  C   UNL     1       1.011 -10.502   0.687  0.00  0.00    +0.155 C 
ATOM     15  C   UNL     1      -1.380  -6.398  -0.327  0.00  0.00    +0.157 C 
ENDROOT
BRANCH   7  16
ATOM     16  N   UNL     1       3.633  -5.019   0.145  0.00  0.00    -0.264 N 
ATOM     17  H   UNL     1       4.535  -4.519  -0.236  0.00  0.00    +0.194 HD
BRANCH  16  18
ATOM     18  O   UNL     1       2.550  -4.248   0.633  0.00  0.00    -0.269 OA
BRANCH  18  19
ATOM     19  C   UNL     1       2.719  -2.838   0.468  0.00  0.00    +0.228 C 
BRANCH  19  20
ATOM     20  C   UNL     1       1.575  -2.114   1.131  0.00  0.00    -0.012 A 
ATOM     21  C   UNL     1       0.542  -2.817   1.672  0.00  0.00    +0.006 A 
ATOM     22  C   UNL     1      -0.523  -2.164   2.288  0.00  0.00    +0.001 A 
ATOM     23  C   UNL     1      -0.562  -0.806   2.368  0.00  0.00    +0.008 A 
ATOM     24  C   UNL     1       0.486  -0.047   1.821  0.00  0.00    -0.018 A 
ATOM     25  C   UNL     1       1.570  -0.711   1.194  0.00  0.00    -0.012 A 
ATOM     26  C   UNL     1       2.619   0.048   0.646  0.00  0.00    +0.009 A 
ATOM     27  C   UNL     1       2.579   1.406   0.725  0.00  0.00    +0.001 A 
ATOM     28  C   UNL     1       1.513   2.059   1.342  0.00  0.00    +0.001 A 
ATOM     29  C   UNL     1       0.480   1.357   1.883  0.00  0.00    +0.008 A 
ENDBRANCH  19  20
ENDBRANCH  18  19
ENDBRANCH  16  18
ENDBRANCH   7  16
BRANCH   1  30
ATOM     30  C   UNL     1       6.123  -6.579  -0.154  0.00  0.00    +0.039 C 
BRANCH  30  31
ATOM     31  C   UNL     1       6.771  -6.121   1.154  0.00  0.00    +0.004 C 
BRANCH  31  33
ATOM     32  C   UNL     1       8.793  -5.058   2.166  0.00  0.00    +0.004 C 
ATOM     33  C   UNL     1       8.145  -5.515   0.858  0.00  0.00    -0.003 C 
ENDBRANCH  31  33
ENDBRANCH  30  31
ENDBRANCH   1  30
TORSDOF 7
