REMARK  Name = ZINC23410970
REMARK  11 active torsions:
REMARK  status: ('A' for Active; 'I' for Inactive)
REMARK    1  A    between atoms: C_1  and  C_2
REMARK    2  A    between atoms: C_2  and  C_3
REMARK    3  A    between atoms: C_2  and  C_4
REMARK    4  A    between atoms: C_2  and  C_5
REMARK    5  A    between atoms: C_8  and  O_11
REMARK    6  A    between atoms: O_11  and  C_12
REMARK    7  A    between atoms: C_12  and  C_13
REMARK    8  A    between atoms: N_15  and  N_16
REMARK    9  A    between atoms: C_17  and  C_18
REMARK   10  A    between atoms: C_23  and  O_24
REMARK   11  A    between atoms: O_24  and  C_25
REMARK                            x       y       z     vdW  Elec       q    Type
REMARK                         _______ _______ _______ _____ _____    ______ ____
ROOT
ATOM      1  C   UNL     1      -3.765  -0.474  -0.891  0.00  0.00    +0.270 C 
ATOM      2  O   UNL     1      -2.806  -1.070  -0.449  0.00  0.00    -0.270 OA
ATOM      3  N   UNL     1      -3.865   0.860  -0.725  0.00  0.00    -0.204 N 
ATOM      4  H   UNL     1      -4.735   1.401  -1.126  0.00  0.00    +0.177 HD
ENDROOT
BRANCH   3   5
ATOM      5  N   UNL     1      -2.859   1.558  -0.043  0.00  0.00    -0.188 NA
ATOM      6  C   UNL     1      -2.955   2.842   0.117  0.00  0.00    +0.142 C 
BRANCH   6   7
ATOM      7  C   UNL     1      -1.897   3.576   0.834  0.00  0.00    +0.038 A 
ATOM      8  C   UNL     1      -1.996   4.959   1.008  0.00  0.00    +0.028 A 
ATOM      9  C   UNL     1      -1.002   5.641   1.680  0.00  0.00    +0.020 A 
ATOM     10  C   UNL     1       0.093   4.959   2.184  0.00  0.00    +0.034 A 
ATOM     11  C   UNL     1       0.199   3.590   2.024  0.00  0.00    +0.061 A 
ATOM     12  C   UNL     1      -0.787   2.891   1.346  0.00  0.00    +0.143 A 
ATOM     13 BR   UNL     1       1.696   2.670   2.724  0.00  0.00    -0.046 Br
ATOM     14 BR   UNL     1      -1.137   7.512   1.914  0.00  0.00    -0.050 Br
BRANCH  12  15
ATOM     15  O   UNL     1      -0.682   1.547   1.184  0.00  0.00    -0.493 OA
ATOM     16  C   UNL     1      -0.013   1.086   0.008  0.00  0.00    +0.277 C 
ENDBRANCH  12  15
ENDBRANCH   6   7
ENDBRANCH   3   5
BRANCH   1  17
ATOM     17  C   UNL     1      -4.847  -1.224  -1.625  0.00  0.00    +0.326 C 
BRANCH  17  18
ATOM     18  O   UNL     1      -4.516  -2.614  -1.669  0.00  0.00    -0.483 OA
BRANCH  18  22
ATOM     19  C   UNL     1      -7.181  -5.113  -3.585  0.00  0.00    -0.042 A 
ATOM     20  C   UNL     1      -6.029  -5.633  -3.023  0.00  0.00    +0.008 A 
ATOM     21  C   UNL     1      -5.136  -4.798  -2.380  0.00  0.00    +0.046 A 
ATOM     22  C   UNL     1      -5.394  -3.437  -2.300  0.00  0.00    +0.121 A 
ATOM     23  C   UNL     1      -6.552  -2.919  -2.860  0.00  0.00    +0.046 A 
ATOM     24  C   UNL     1      -7.440  -3.757  -3.507  0.00  0.00    +0.008 A 
BRANCH  19  26
ATOM     25  C   UNL     1      -8.666  -7.078  -3.300  0.00  0.00    +0.015 C 
ATOM     26  C   UNL     1      -8.154  -6.026  -4.285  0.00  0.00    -0.013 C 
ATOM     27  C   UNL     1      -9.333  -5.206  -4.814  0.00  0.00    +0.015 C 
ATOM     28  C   UNL     1      -7.452  -6.721  -5.454  0.00  0.00    +0.015 C 
ENDBRANCH  19  26
ENDBRANCH  18  22
ENDBRANCH  17  18
ENDBRANCH   1  17
TORSDOF 7
