REMARK  Name = ZINC64227710
REMARK  11 active torsions:
REMARK  status: ('A' for Active; 'I' for Inactive)
REMARK    1  A    between atoms: C_1  and  C_2
REMARK    2  A    between atoms: C_4  and  C_37
REMARK    3  A    between atoms: N_6  and  C_32
REMARK    4  A    between atoms: C_7  and  N_20
REMARK    5  A    between atoms: C_9  and  C_11
REMARK    6  A    between atoms: C_21  and  C_23
REMARK    7  A    between atoms: C_27  and  N_29
REMARK    8  A    between atoms: C_32  and  C_33
REMARK    9  A    between atoms: C_33  and  C_34
REMARK   10  A    between atoms: C_34  and  O_35
REMARK   11  A    between atoms: O_35  and  C_36
REMARK                            x       y       z     vdW  Elec       q    Type
REMARK                         _______ _______ _______ _____ _____    ______ ____
ROOT
ATOM      1  C   UNL     1      -0.418   1.659   0.072  0.00  0.00    +0.009 C 
ATOM      2  C   UNL     1      -0.099   0.173   0.252  0.00  0.00    +0.013 C 
ATOM      3  C   UNL     1      -1.402  -0.651   0.318  0.00  0.00    +0.059 C 
ATOM      4  N   UNL     1      -1.125  -1.709   1.323  0.00  0.00    -0.281 NA
ATOM      5  C   UNL     1      -0.346  -1.014   2.380  0.00  0.00    +0.151 C 
ATOM      6  C   UNL     1       0.599  -0.065   1.607  0.00  0.00    +0.071 C 
ATOM      7  C   UNL     1      -1.710  -1.274  -1.046  0.00  0.00    +0.024 C 
ENDROOT
BRANCH   6   8
ATOM      8  C   UNL     1       0.760   1.256   2.361  0.00  0.00    +0.180 C 
ATOM      9  N   UNL     1       1.783   2.086   1.712  0.00  0.00    -0.363 N 
ATOM     10  C   UNL     1       2.730   2.288   2.581  0.00  0.00    +0.060 A 
ATOM     11  C   UNL     1       3.998   3.029   2.523  0.00  0.00    +0.027 A 
ATOM     12  C   UNL     1       4.798   3.066   3.607  0.00  0.00    +0.002 A 
ATOM     13  C   UNL     1       4.471   2.417   4.812  0.00  0.00    +0.002 A 
ATOM     14  C   UNL     1       3.335   1.711   4.972  0.00  0.00    +0.027 A 
ATOM     15  C   UNL     1       2.385   1.603   3.857  0.00  0.00    +0.060 A 
ATOM     16  N   UNL     1       1.237   1.002   3.726  0.00  0.00    -0.363 N 
ATOM     17  H   UNL     1       1.758   2.421   0.802  0.00  0.00    +0.162 HD
ATOM     18  H   UNL     1       0.781   0.482   4.407  0.00  0.00    +0.162 HD
ENDBRANCH   6   8
BRANCH   5  19
ATOM     19  N   UNL     1      -1.240  -0.250   3.254  0.00  0.00    -0.295 N 
ATOM     20  C   UNL     1      -1.500  -0.690   4.501  0.00  0.00    +0.245 C 
ATOM     21  O   UNL     1      -0.994  -1.720   4.901  0.00  0.00    -0.270 OA
ATOM     22  H   UNL     1      -1.644   0.572   2.936  0.00  0.00    +0.151 HD
BRANCH  20  23
ATOM     23  C   UNL     1      -2.402   0.081   5.384  0.00  0.00    +0.039 A 
ATOM     24  C   UNL     1      -2.990   1.261   4.926  0.00  0.00    +0.013 A 
ATOM     25  C   UNL     1      -3.831   1.976   5.754  0.00  0.00    +0.003 A 
ATOM     26  C   UNL     1      -4.091   1.524   7.036  0.00  0.00    +0.033 A 
ATOM     27  C   UNL     1      -3.512   0.355   7.496  0.00  0.00    +0.127 A 
ATOM     28  C   UNL     1      -2.674  -0.372   6.676  0.00  0.00    +0.045 A 
BRANCH  27  29
ATOM     29  N   UNL     1      -3.796  -0.119   8.869  0.00  0.00    +0.056 N 
ATOM     30  O   UNL     1      -4.534   0.514   9.587  0.00  0.00    -0.126 OA
ATOM     31  O   UNL     1      -3.290  -1.141   9.272  0.00  0.00    -0.126 OA
ENDBRANCH  27  29
ENDBRANCH  20  23
ENDBRANCH   5  19
BRANCH   4  32
ATOM     32  C   UNL     1      -2.374  -2.260   1.866  0.00  0.00    +0.089 C 
BRANCH  32  33
ATOM     33  C   UNL     1      -2.081  -3.578   2.584  0.00  0.00    +0.043 C 
BRANCH  33  34
ATOM     34  C   UNL     1      -3.357  -4.087   3.258  0.00  0.00    +0.160 C 
BRANCH  34  35
ATOM     35  O   UNL     1      -3.083  -5.318   3.929  0.00  0.00    -0.383 OA
ATOM     36  C   UNL     1      -4.215  -5.882   4.595  0.00  0.00    +0.193 C 
ENDBRANCH  34  35
ENDBRANCH  33  34
ENDBRANCH  32  33
ENDBRANCH   4  32
TORSDOF 8
