REMARK  Name = ZINC15441575
REMARK  11 active torsions:
REMARK  status: ('A' for Active; 'I' for Inactive)
REMARK    1  A    between atoms: C_1  and  C_2
REMARK    2  A    between atoms: C_2  and  O_3
REMARK    3  A    between atoms: O_3  and  C_4
REMARK    4  A    between atoms: C_4  and  C_6
REMARK    5  A    between atoms: C_7  and  C_34
REMARK    6  A    between atoms: C_11  and  C_20
REMARK    7  A    between atoms: C_12  and  O_19
REMARK    8  A    between atoms: C_20  and  C_22
REMARK    9  A    between atoms: C_20  and  N_63
REMARK   10  A    between atoms: C_25  and  O_28
REMARK   11  A    between atoms: O_28  and  C_29
REMARK                            x       y       z     vdW  Elec       q    Type
REMARK                         _______ _______ _______ _____ _____    ______ ____
ROOT
ATOM      1  C   UNL     1       2.562  -0.505   1.845  0.00  0.00    +0.108 A 
ATOM      2  C   UNL     1       3.209  -1.049   2.913  0.00  0.00    +0.117 A 
ATOM      3  O   UNL     1       2.314  -1.466   3.815  0.00  0.00    -0.459 OA
ATOM      4  C   UNL     1       1.054  -1.227   3.401  0.00  0.00    +0.144 A 
ATOM      5  C   UNL     1       1.122  -0.615   2.151  0.00  0.00    +0.040 A 
ATOM      6  C   UNL     1      -0.044  -0.245   1.466  0.00  0.00    -0.003 A 
ATOM      7  C   UNL     1      -1.272  -0.472   2.010  0.00  0.00    +0.127 A 
ATOM      8  C   UNL     1      -1.381  -1.095   3.273  0.00  0.00    +0.027 A 
ATOM      9  C   UNL     1      -0.212  -1.473   3.976  0.00  0.00    +0.029 A 
ATOM     10  C   UNL     1      -0.330  -2.087   5.232  0.00  0.00    +0.012 A 
ATOM     11  C   UNL     1      -1.566  -2.312   5.760  0.00  0.00    +0.001 A 
ATOM     12  C   UNL     1      -2.716  -1.939   5.070  0.00  0.00    +0.001 A 
ATOM     13  C   UNL     1      -2.638  -1.341   3.848  0.00  0.00    +0.012 A 
ATOM     14  C   UNL     1       4.705  -1.162   3.058  0.00  0.00    +0.087 C 
ENDROOT
BRANCH   1  15
ATOM     15  C   UNL     1       3.171   0.071   0.638  0.00  0.00    +0.343 C 
ATOM     16  O   UNL     1       3.450   1.253   0.603  0.00  0.00    -0.245 OA
BRANCH  15  17
ATOM     17  O   UNL     1       3.421  -0.713  -0.431  0.00  0.00    -0.461 OA
BRANCH  17  19
ATOM     18  C   UNL     1       4.229  -1.115  -2.692  0.00  0.00    +0.048 C 
ATOM     19  C   UNL     1       4.023  -0.076  -1.589  0.00  0.00    +0.229 C 
ENDBRANCH  17  19
ENDBRANCH  15  17
ENDBRANCH   1  15
BRANCH   7  20
ATOM     20  O   UNL     1      -2.392  -0.103   1.335  0.00  0.00    -0.506 OA
ATOM     21  H   UNL     1      -2.787  -0.812   0.810  0.00  0.00    +0.292 HD
ENDBRANCH   7  20
BRANCH   6  22
ATOM     22  C   UNL     1       0.062   0.415   0.115  0.00  0.00    -0.002 C 
BRANCH  22  23
ATOM     23  C   UNL     1      -0.281   1.877   0.242  0.00  0.00    -0.056 A 
ATOM     24  C   UNL     1      -1.598   2.287   0.139  0.00  0.00    +0.006 A 
ATOM     25  C   UNL     1      -1.916   3.626   0.261  0.00  0.00    +0.046 A 
ATOM     26  C   UNL     1      -0.913   4.560   0.474  0.00  0.00    +0.120 A 
ATOM     27  C   UNL     1       0.408   4.146   0.572  0.00  0.00    +0.046 A 
ATOM     28  C   UNL     1       0.720   2.805   0.456  0.00  0.00    +0.006 A 
BRANCH  26  29
ATOM     29  O   UNL     1      -1.223   5.878   0.588  0.00  0.00    -0.495 OA
ATOM     30  C   UNL     1      -2.603   6.232   0.478  0.00  0.00    +0.277 C 
ENDBRANCH  26  29
ENDBRANCH  22  23
BRANCH  22  35
ATOM     31  C   UNL     1      -0.769   0.375  -2.173  0.00  0.00    -0.078 C 
ATOM     32  C   UNL     1      -1.376  -0.713  -3.093  0.00  0.00    -0.020 C 
ATOM     33  C   UNL     1      -0.877  -2.027  -2.450  0.00  0.00    -0.020 C 
ATOM     34  C   UNL     1      -0.545  -1.661  -0.992  0.00  0.00    -0.078 C 
ATOM     35  N   UNL     1      -0.877  -0.243  -0.842  0.00  0.00    +0.387 N 
ATOM     36  H   UNL     1      -1.837  -0.147  -0.492  0.00  0.00    -0.080 HD
ENDBRANCH  22  35
ENDBRANCH   6  22
TORSDOF 8
