REMARK  Name = ZINC39663664
REMARK  13 active torsions:
REMARK  status: ('A' for Active; 'I' for Inactive)
REMARK    1  A    between atoms: C_1  and  C_2
REMARK    2  A    between atoms: C_2  and  C_3
REMARK    3  A    between atoms: C_3  and  C_4
REMARK    4  A    between atoms: C_4  and  C_5
REMARK    5  A    between atoms: C_9  and  C_18
REMARK    6  A    between atoms: N_20  and  C_21
REMARK    7  A    between atoms: C_21  and  C_22
REMARK    8  A    between atoms: C_22  and  C_24
REMARK    9  A    between atoms: C_22  and  N_32
REMARK   10  A    between atoms: C_27  and  O_30
REMARK   11  A    between atoms: O_30  and  C_31
REMARK   12  A    between atoms: N_32  and  C_33
REMARK   13  A    between atoms: N_32  and  C_34
REMARK                            x       y       z     vdW  Elec       q    Type
REMARK                         _______ _______ _______ _____ _____    ______ ____
ROOT
ATOM      1  C   UNL     1      -3.034  -3.786  -0.779  0.00  0.00    +0.216 C 
ATOM      2  O   UNL     1      -3.945  -2.995  -0.902  0.00  0.00    -0.276 OA
ATOM      3  N   UNL     1      -3.297  -5.085  -0.537  0.00  0.00    -0.300 N 
ATOM      4  C   UNL     1      -2.327  -6.190  -0.352  0.00  0.00    +0.121 C 
ATOM      5  C   UNL     1      -2.929  -7.053   0.779  0.00  0.00    +0.100 C 
ATOM      6  C   UNL     1      -4.436  -6.750   0.745  0.00  0.00    -0.004 C 
ATOM      7  C   UNL     1      -4.624  -5.731  -0.389  0.00  0.00    +0.115 C 
ATOM      8  C   UNL     1      -4.884  -6.143   2.071  0.00  0.00    -0.010 C 
ATOM      9  C   UNL     1      -6.396  -5.903   2.033  0.00  0.00    -0.082 C 
ATOM     10  N   UNL     1      -7.089  -7.175   1.795  0.00  0.00    +0.379 N 
ATOM     11  C   UNL     1      -6.723  -7.707   0.477  0.00  0.00    -0.082 C 
ATOM     12  C   UNL     1      -5.225  -8.022   0.449  0.00  0.00    -0.010 C 
ATOM     13  H   UNL     1      -6.825  -7.839   2.508  0.00  0.00    -0.086 HD
ATOM     14  H   UNL     1      -8.086  -7.025   1.831  0.00  0.00    -0.086 HD
ENDROOT
BRANCH   5  15
ATOM     15  C   UNL     1      -2.342  -6.658   2.110  0.00  0.00    +0.218 C 
ATOM     16  O   UNL     1      -1.951  -5.523   2.287  0.00  0.00    -0.275 OA
ATOM     17  N   UNL     1      -2.252  -7.564   3.103  0.00  0.00    -0.316 N 
ATOM     18  H   UNL     1      -2.564  -8.472   2.961  0.00  0.00    +0.149 HD
BRANCH  17  19
ATOM     19  C   UNL     1      -1.682  -7.180   4.396  0.00  0.00    +0.093 C 
BRANCH  19  20
ATOM     20  C   UNL     1      -1.582  -8.413   5.297  0.00  0.00    -0.021 C 
BRANCH  20  21
ATOM     21  C   UNL     1      -0.613  -9.398   4.694  0.00  0.00    -0.059 A 
ATOM     22  C   UNL     1       0.748  -9.216   4.859  0.00  0.00    +0.005 A 
ATOM     23  C   UNL     1       1.638 -10.117   4.308  0.00  0.00    +0.046 A 
ATOM     24  C   UNL     1       1.166 -11.205   3.588  0.00  0.00    +0.120 A 
ATOM     25  C   UNL     1      -0.200 -11.385   3.425  0.00  0.00    +0.046 A 
ATOM     26  C   UNL     1      -1.086 -10.484   3.983  0.00  0.00    +0.005 A 
BRANCH  24  27
ATOM     27  O   UNL     1       2.039 -12.092   3.044  0.00  0.00    -0.495 OA
ATOM     28  C   UNL     1       1.482 -13.189   2.317  0.00  0.00    +0.277 C 
ENDBRANCH  24  27
ENDBRANCH  20  21
BRANCH  20  29
ATOM     29  N   UNL     1      -1.107  -8.011   6.627  0.00  0.00    +0.382 N 
ATOM     30  C   UNL     1      -2.075  -7.087   7.234  0.00  0.00    -0.096 C 
ATOM     31  C   UNL     1      -0.967  -9.200   7.478  0.00  0.00    -0.096 C 
ATOM     32  H   UNL     1      -0.213  -7.552   6.541  0.00  0.00    -0.082 HD
ENDBRANCH  20  29
ENDBRANCH  19  20
ENDBRANCH  17  19
ENDBRANCH   5  15
BRANCH   1  33
ATOM     33  C   UNL     1      -1.607  -3.316  -0.897  0.00  0.00    +0.096 C 
BRANCH  33  34
ATOM     34  C   UNL     1      -1.587  -1.811  -1.171  0.00  0.00    +0.009 C 
BRANCH  34  36
ATOM     35  C   UNL     1      -0.118   0.172  -1.566  0.00  0.00    +0.004 C 
ATOM     36  C   UNL     1      -0.138  -1.334  -1.292  0.00  0.00    -0.003 C 
ENDBRANCH  34  36
ENDBRANCH  33  34
ENDBRANCH   1  33
TORSDOF 9
