REMARK  Name = ZINC39533354
REMARK  12 active torsions:
REMARK  status: ('A' for Active; 'I' for Inactive)
REMARK    1  A    between atoms: C_1  and  C_2
REMARK    2  A    between atoms: C_2  and  C_3
REMARK    3  A    between atoms: C_2  and  C_4
REMARK    4  A    between atoms: C_4  and  C_5
REMARK    5  A    between atoms: C_8  and  C_11
REMARK    6  A    between atoms: C_11  and  C_13
REMARK    7  A    between atoms: C_11  and  N_22
REMARK    8  A    between atoms: C_13  and  N_14
REMARK    9  A    between atoms: N_14  and  C_15
REMARK   10  A    between atoms: C_20  and  O_21
REMARK   11  A    between atoms: C_26  and  O_29
REMARK   12  A    between atoms: O_29  and  C_30
REMARK                            x       y       z     vdW  Elec       q    Type
REMARK                         _______ _______ _______ _____ _____    ______ ____
ROOT
ATOM      1  C   UNL     1      -1.398  -6.245  -0.498  0.00  0.00    -0.020 C 
ENDROOT
BRANCH   1   2
ATOM      2  N   UNL     1      -2.205  -6.712   0.637  0.00  0.00    +0.389 N 
ATOM      3  C   UNL     1      -2.130  -8.176   0.722  0.00  0.00    -0.062 C 
ATOM      4  C   UNL     1      -2.956  -8.661   1.915  0.00  0.00    +0.065 C 
ATOM      5  N   UNL     1      -4.352  -8.233   1.748  0.00  0.00    -0.295 NA
ATOM      6  C   UNL     1      -4.440  -6.770   1.636  0.00  0.00    +0.169 C 
ATOM      7  C   UNL     1      -3.602  -6.301   0.445  0.00  0.00    -0.030 C 
ATOM      8  H   UNL     1      -4.775  -8.682   0.950  0.00  0.00    +0.124 HD
ATOM      9  H   UNL     1      -1.850  -6.307   1.490  0.00  0.00    -0.081 HD
BRANCH   6  10
ATOM     10  O   UNL     1      -5.803  -6.388   1.441  0.00  0.00    -0.367 OA
ATOM     11  C   UNL     1      -6.605  -6.471   2.621  0.00  0.00    +0.196 C 
ENDBRANCH   6  10
ENDBRANCH   1   2
BRANCH   1  15
ATOM     12  C   UNL     1      -1.713  -1.998  -0.819  0.00  0.00    -0.047 A 
ATOM     13  C   UNL     1      -1.710  -2.779  -1.960  0.00  0.00    +0.004 A 
ATOM     14  C   UNL     1      -1.608  -4.153  -1.856  0.00  0.00    +0.002 A 
ATOM     15  C   UNL     1      -1.508  -4.747  -0.612  0.00  0.00    -0.059 A 
ATOM     16  C   UNL     1      -1.510  -3.966   0.529  0.00  0.00    +0.002 A 
ATOM     17  C   UNL     1      -1.608  -2.591   0.425  0.00  0.00    +0.004 A 
BRANCH  12  18
ATOM     18  C   UNL     1      -1.824  -0.499  -0.932  0.00  0.00    +0.038 C 
BRANCH  18  20
ATOM     19  C   UNL     1      -0.542   1.616  -1.284  0.00  0.00    +0.007 C 
ATOM     20  C   UNL     1      -0.425   0.110  -1.044  0.00  0.00    -0.013 C 
ATOM     21  C   UNL     1       0.346  -0.142   0.253  0.00  0.00    +0.007 C 
ENDBRANCH  18  20
ENDBRANCH  12  18
ENDBRANCH   1  15
BRANCH   1  22
ATOM     22  C   UNL     1       0.066  -6.634  -0.277  0.00  0.00    +0.091 C 
BRANCH  22  23
ATOM     23  N   UNL     1       0.857  -6.242  -1.446  0.00  0.00    -0.342 N 
ATOM     24  H   UNL     1       0.439  -5.755  -2.173  0.00  0.00    +0.146 HD
BRANCH  23  25
ATOM     25  C   UNL     1       2.216  -6.570  -1.513  0.00  0.00    +0.069 A 
ATOM     26  C   UNL     1       2.814  -7.271  -0.476  0.00  0.00    +0.026 A 
ATOM     27  C   UNL     1       4.156  -7.594  -0.545  0.00  0.00    +0.002 A 
ATOM     28  C   UNL     1       4.905  -7.220  -1.645  0.00  0.00    +0.004 A 
ATOM     29  C   UNL     1       4.316  -6.521  -2.682  0.00  0.00    +0.047 A 
ATOM     30  C   UNL     1       2.970  -6.198  -2.624  0.00  0.00    +0.138 A 
BRANCH  30  31
ATOM     31  O   UNL     1       2.388  -5.514  -3.645  0.00  0.00    -0.505 OA
ATOM     32  H   UNL     1       2.424  -4.553  -3.546  0.00  0.00    +0.292 HD
ENDBRANCH  30  31
ENDBRANCH  23  25
ENDBRANCH  22  23
ENDBRANCH   1  22
TORSDOF 9
