REMARK  Name = ZINC19943793
REMARK  9 active torsions:
REMARK  status: ('A' for Active; 'I' for Inactive)
REMARK    1  A    between atoms: C_1  and  C_2
REMARK    2  A    between atoms: C_3  and  C_32
REMARK    3  A    between atoms: C_4  and  C_20
REMARK    4  A    between atoms: C_10  and  C_15
REMARK    5  A    between atoms: C_22  and  N_29
REMARK    6  A    between atoms: C_24  and  O_26
REMARK    7  A    between atoms: O_26  and  C_27
REMARK    8  A    between atoms: C_32  and  O_34
REMARK    9  A    between atoms: O_34  and  C_35
REMARK                            x       y       z     vdW  Elec       q    Type
REMARK                         _______ _______ _______ _____ _____    ______ ____
ROOT
ATOM      1  C   UNL     1       5.335   6.201  -2.610  0.00  0.00    +0.061 C 
ATOM      2  C   UNL     1       5.442   4.842  -1.967  0.00  0.00    +0.016 C 
ATOM      3  C   UNL     1       5.022   4.667  -0.703  0.00  0.00    +0.065 C 
ATOM      4  C   UNL     1       5.106   3.326  -0.034  0.00  0.00    +0.092 C 
ATOM      5  C   UNL     1       6.064   2.418  -0.761  0.00  0.00    +0.024 C 
ATOM      6  C   UNL     1       6.440   2.685  -2.030  0.00  0.00    +0.016 C 
ATOM      7  N   UNL     1       5.966   3.797  -2.675  0.00  0.00    -0.321 N 
ATOM      8  C   UNL     1       7.389   1.774  -2.768  0.00  0.00    +0.060 C 
ATOM      9  C   UNL     1       8.350   1.118  -1.774  0.00  0.00    +0.039 C 
ATOM     10  C   UNL     1       7.525   0.345  -0.739  0.00  0.00    +0.088 C 
ATOM     11  C   UNL     1       6.555   1.289  -0.082  0.00  0.00    +0.162 C 
ATOM     12  O   UNL     1       6.189   1.071   1.056  0.00  0.00    -0.292 OA
ATOM     13  H   UNL     1       6.011   3.843  -3.773  0.00  0.00    +0.152 HD
ENDROOT
BRANCH   4  14
ATOM     14  C   UNL     1       3.738   2.694  -0.020  0.00  0.00    -0.029 A 
ATOM     15  C   UNL     1       3.098   2.410  -1.212  0.00  0.00    +0.041 A 
ATOM     16  C   UNL     1       1.843   1.830  -1.205  0.00  0.00    +0.177 A 
ATOM     17  C   UNL     1       1.224   1.533  -0.001  0.00  0.00    +0.250 A 
ATOM     18  C   UNL     1       1.866   1.824   1.198  0.00  0.00    +0.169 A 
ATOM     19  C   UNL     1       3.126   2.400   1.184  0.00  0.00    +0.054 A 
ATOM     20  O   UNL     1      -0.011   0.963   0.007  0.00  0.00    -0.282 OA
BRANCH  16  21
ATOM     21  N   UNL     1       1.160   1.527  -2.483  0.00  0.00    +0.060 N 
ATOM     22  O   UNL     1       1.704   1.789  -3.541  0.00  0.00    -0.126 OA
ATOM     23  O   UNL     1       0.054   1.016  -2.477  0.00  0.00    -0.126 OA
ENDBRANCH  16  21
BRANCH  18  24
ATOM     24  O   UNL     1       1.260   1.539   2.382  0.00  0.00    -0.491 OA
ATOM     25  C   UNL     1       1.978   1.865   3.574  0.00  0.00    +0.277 C 
ENDBRANCH  18  24
ENDBRANCH   4  14
BRANCH   9  26
ATOM     26  C   UNL     1       9.264   0.169  -2.505  0.00  0.00    -0.006 A 
ATOM     27  C   UNL     1      10.617   0.176  -2.581  0.00  0.00    +0.011 A 
ATOM     28  C   UNL     1      11.252  -0.806  -3.317  0.00  0.00    +0.008 A 
ATOM     29  C   UNL     1      10.503  -1.747  -3.942  0.00  0.00    +0.045 A 
ATOM     30  S   UNL     1       8.846  -1.261  -3.489  0.00  0.00    -0.101 S 
ENDBRANCH   9  26
BRANCH   3  31
ATOM     31  C   UNL     1       4.491   5.767   0.011  0.00  0.00    +0.337 C 
ATOM     32  O   UNL     1       4.418   6.859  -0.521  0.00  0.00    -0.245 OA
BRANCH  31  33
ATOM     33  O   UNL     1       4.065   5.605   1.281  0.00  0.00    -0.465 OA
ATOM     34  C   UNL     1       3.540   6.758   1.941  0.00  0.00    +0.280 C 
ENDBRANCH  31  33
ENDBRANCH   3  31
TORSDOF 6
