REMARK  Name = ZINC09060704
REMARK  8 active torsions:
REMARK  status: ('A' for Active; 'I' for Inactive)
REMARK    1  A    between atoms: C_1  and  C_2
REMARK    2  A    between atoms: C_3  and  C_32
REMARK    3  A    between atoms: C_4  and  C_26
REMARK    4  A    between atoms: C_7  and  N_25
REMARK    5  A    between atoms: C_8  and  C_12
REMARK    6  A    between atoms: N_14  and  C_15
REMARK    7  A    between atoms: C_32  and  O_34
REMARK    8  A    between atoms: O_34  and  C_35
REMARK                            x       y       z     vdW  Elec       q    Type
REMARK                         _______ _______ _______ _____ _____    ______ ____
ROOT
ATOM      1  C   UNL     1       0.922   0.202   4.681  0.00  0.00    +0.061 C 
ATOM      2  C   UNL     1      -0.263   1.131   4.724  0.00  0.00    +0.016 C 
ATOM      3  C   UNL     1      -0.755   1.615   3.575  0.00  0.00    +0.065 C 
ATOM      4  C   UNL     1      -1.918   2.556   3.474  0.00  0.00    +0.092 C 
ATOM      5  C   UNL     1      -2.641   2.625   4.814  0.00  0.00    +0.014 A 
ATOM      6  C   UNL     1      -3.885   3.202   5.001  0.00  0.00    +0.050 A 
ATOM      7  C   UNL     1      -4.445   3.208   6.279  0.00  0.00    +0.096 A 
ATOM      8  S   UNL     1      -3.185   2.379   7.238  0.00  0.00    -0.067 S 
ATOM      9  C   UNL     1      -2.034   2.085   5.928  0.00  0.00    +0.076 A 
ATOM     10  N   UNL     1      -0.808   1.465   5.941  0.00  0.00    -0.312 N 
ATOM     11  H   UNL     1      -0.349   1.269   6.772  0.00  0.00    +0.152 HD
ENDROOT
BRANCH   4  12
ATOM     12  C   UNL     1      -1.421   3.929   3.101  0.00  0.00    -0.032 A 
ATOM     13  C   UNL     1      -0.530   4.608   3.918  0.00  0.00    +0.024 A 
ATOM     14  C   UNL     1      -0.093   5.864   3.541  0.00  0.00    +0.111 A 
ATOM     15  N   UNL     1      -0.521   6.420   2.425  0.00  0.00    -0.263 NA
ATOM     16  C   UNL     1      -1.373   5.806   1.626  0.00  0.00    +0.111 A 
ATOM     17  C   UNL     1      -1.849   4.547   1.935  0.00  0.00    +0.024 A 
ENDBRANCH   4  12
BRANCH   7  18
ATOM     18  C   UNL     1      -5.683   3.733   6.703  0.00  0.00    +0.253 C 
ATOM     19  O   UNL     1      -6.423   4.273   5.900  0.00  0.00    -0.270 OA
ATOM     20  N   UNL     1      -6.047   3.638   7.997  0.00  0.00    -0.305 N 
ATOM     21  H   UNL     1      -5.457   3.209   8.637  0.00  0.00    +0.150 HD
BRANCH  20  22
ATOM     22  C   UNL     1      -7.333   4.184   8.438  0.00  0.00    +0.036 C 
ATOM     23  C   UNL     1      -7.375   5.686   8.151  0.00  0.00    +0.029 C 
ATOM     24  C   UNL     1      -8.719   6.255   8.612  0.00  0.00    -0.008 C 
ATOM     25  C   UNL     1      -8.885   6.018  10.114  0.00  0.00    +0.007 C 
ATOM     26  C   UNL     1      -8.843   4.516  10.401  0.00  0.00    -0.008 C 
ATOM     27  C   UNL     1      -7.500   3.946   9.940  0.00  0.00    +0.029 C 
ATOM     28  C   UNL     1      -9.978   3.820   9.645  0.00  0.00    +0.007 C 
ATOM     29  C   UNL     1      -9.811   4.058   8.143  0.00  0.00    -0.008 C 
ATOM     30  C   UNL     1      -9.853   5.560   7.857  0.00  0.00    +0.007 C 
ATOM     31  C   UNL     1      -8.468   3.488   7.683  0.00  0.00    +0.029 C 
ENDBRANCH  20  22
ENDBRANCH   7  18
BRANCH   6  32
ATOM     32  N   UNL     1      -4.568   3.769   3.929  0.00  0.00    -0.357 N 
ATOM     33  H   UNL     1      -4.173   3.761   3.043  0.00  0.00    +0.142 HD
ATOM     34  H   UNL     1      -5.439   4.171   4.067  0.00  0.00    +0.142 HD
ENDBRANCH   6  32
BRANCH   3  35
ATOM     35  C   UNL     1      -0.137   1.204   2.373  0.00  0.00    +0.337 C 
ATOM     36  O   UNL     1       0.875   0.529   2.409  0.00  0.00    -0.245 OA
BRANCH  35  37
ATOM     37  O   UNL     1      -0.668   1.561   1.185  0.00  0.00    -0.465 OA
ATOM     38  C   UNL     1       0.009   1.111   0.009  0.00  0.00    +0.280 C 
ENDBRANCH  35  37
ENDBRANCH   3  35
TORSDOF 6
