REMARK  Name = ZINC45754675
REMARK  12 active torsions:
REMARK  status: ('A' for Active; 'I' for Inactive)
REMARK    1  A    between atoms: C_1  and  C_2
REMARK    2  A    between atoms: C_3  and  C_12
REMARK    3  A    between atoms: C_4  and  C_11
REMARK    4  A    between atoms: N_5  and  C_7
REMARK    5  A    between atoms: C_7  and  C_8
REMARK    6  A    between atoms: C_8  and  C_9
REMARK    7  A    between atoms: C_8  and  C_10
REMARK    8  A    between atoms: C_12  and  C_13
REMARK    9  A    between atoms: C_18  and  C_21
REMARK   10  A    between atoms: C_21  and  N_22
REMARK   11  A    between atoms: C_24  and  C_31
REMARK   12  A    between atoms: C_27  and  C_30
REMARK                            x       y       z     vdW  Elec       q    Type
REMARK                         _______ _______ _______ _____ _____    ______ ____
ROOT
ATOM      1  C   UNL     1       1.410  -0.165  -3.050  0.00  0.00    +0.223 C 
ATOM      2  O   UNL     1       2.339  -0.400  -2.307  0.00  0.00    -0.275 OA
ATOM      3  N   UNL     1       1.644   0.256  -4.309  0.00  0.00    -0.264 N 
ATOM      4  C   UNL     1       2.950   0.421  -4.755  0.00  0.00    +0.165 A 
ATOM      5  N   UNL     1       3.365   0.824  -5.936  0.00  0.00    -0.231 NA
ATOM      6  C   UNL     1       4.653   0.929  -6.207  0.00  0.00    +0.034 A 
ATOM      7  C   UNL     1       5.520   0.603  -5.217  0.00  0.00    +0.070 A 
ATOM      8  S   UNL     1       4.383   0.159  -3.913  0.00  0.00    -0.060 S 
ATOM      9  H   UNL     1       0.901   0.445  -4.903  0.00  0.00    +0.157 HD
ENDROOT
BRANCH   1  10
ATOM     10  C   UNL     1      -0.006  -0.343  -2.566  0.00  0.00    +0.135 C 
BRANCH  10  13
ATOM     11  C   UNL     1      -0.018   1.503   0.010  0.00  0.00    +0.068 C 
ATOM     12  C   UNL     1       0.002  -0.004   0.002  0.00  0.00    +0.064 A 
ATOM     13  C   UNL     1       0.008  -0.818  -1.135  0.00  0.00    +0.005 A 
ATOM     14  C   UNL     1       0.028  -2.107  -0.725  0.00  0.00    +0.040 A 
ATOM     15  N   UNL     1       0.034  -2.109   0.625  0.00  0.00    -0.268 N 
ATOM     16  N   UNL     1       0.023  -0.777   1.058  0.00  0.00    -0.176 NA
ATOM     17  C   UNL     1       0.040  -3.323  -1.615  0.00  0.00    +0.065 C 
BRANCH  15  18
ATOM     18  C   UNL     1       0.055  -3.295   1.485  0.00  0.00    +0.146 C 
BRANCH  18  19
ATOM     19  C   UNL     1       1.504  -3.688   1.777  0.00  0.00    +0.004 C 
ATOM     20  C   UNL     1       2.177  -2.583   2.595  0.00  0.00    +0.009 C 
ATOM     21  C   UNL     1       1.528  -4.995   2.571  0.00  0.00    +0.009 C 
ENDBRANCH  18  19
ENDBRANCH  15  18
ENDBRANCH  10  13
ENDBRANCH   1  10
BRANCH   6  22
ATOM     22  C   UNL     1       5.138   1.389  -7.558  0.00  0.00    -0.022 C 
BRANCH  22  23
ATOM     23  N   UNL     1       5.194   0.243  -8.475  0.00  0.00    +0.384 N 
ATOM     24  C   UNL     1       6.199  -0.714  -7.998  0.00  0.00    -0.075 C 
ATOM     25  C   UNL     1       6.205  -1.947  -8.904  0.00  0.00    -0.031 C 
ATOM     26  C   UNL     1       6.543  -1.521 -10.335  0.00  0.00    +0.003 C 
ATOM     27  C   UNL     1       5.532  -0.467 -10.796  0.00  0.00    -0.031 C 
ATOM     28  C   UNL     1       5.551   0.711  -9.820  0.00  0.00    -0.075 C 
ATOM     29  C   UNL     1       5.906   0.023 -12.196  0.00  0.00    +0.005 C 
ATOM     30  C   UNL     1       7.255  -2.943  -8.405  0.00  0.00    +0.005 C 
ATOM     31  H   UNL     1       4.292  -0.207  -8.505  0.00  0.00    -0.081 HD
ENDBRANCH  22  23
ENDBRANCH   6  22
TORSDOF 6
