REMARK  Name = ZINC39559983
REMARK  3 active torsions:
REMARK  status: ('A' for Active; 'I' for Inactive)
REMARK    1  A    between atoms: C_16  and  O_29
REMARK    2  A    between atoms: C_21  and  O_28
REMARK    3  A    between atoms: C_25  and  O_27
REMARK                            x       y       z     vdW  Elec       q    Type
REMARK                         _______ _______ _______ _____ _____    ______ ____
ROOT
ATOM      1  C   UNL     1      -0.017   1.390   0.010  0.00  0.00    +0.004 A 
ATOM      2  C   UNL     1       1.135   2.118   0.003  0.00  0.00    +0.009 A 
ATOM      3  C   UNL     1       2.377   1.460  -0.015  0.00  0.00    -0.011 A 
ATOM      4  C   UNL     1       3.596   2.160  -0.029  0.00  0.00    +0.009 A 
ATOM      5  C   UNL     1       4.772   1.473  -0.049  0.00  0.00    +0.004 A 
ATOM      6  C   UNL     1       4.801   0.079  -0.054  0.00  0.00    +0.046 A 
ATOM      7  C   UNL     1       3.632  -0.639  -0.040  0.00  0.00    +0.137 A 
ATOM      8  C   UNL     1       2.402   0.049  -0.021  0.00  0.00    +0.066 A 
ATOM      9  C   UNL     1       1.196  -0.681  -0.012  0.00  0.00    +0.137 A 
ATOM     10  C   UNL     1       0.002  -0.004   0.002  0.00  0.00    +0.046 A 
ATOM     11  O   UNL     1       1.264  -2.038  -0.013  0.00  0.00    -0.448 OA
ATOM     12  C   UNL     1       2.441  -2.610  -0.604  0.00  0.00    +0.288 C 
ATOM     13  O   UNL     1       3.610  -1.998  -0.040  0.00  0.00    -0.448 OA
ATOM     14  C   UNL     1       2.420  -2.350  -2.110  0.00  0.00    +0.099 C 
ATOM     15  C   UNL     1       3.625  -3.054  -2.745  0.00  0.00    +0.042 C 
ATOM     16  C   UNL     1       3.340  -4.556  -2.788  0.00  0.00    +0.153 C 
ATOM     17  C   UNL     1       2.977  -5.065  -1.400  0.00  0.00    +0.164 C 
ATOM     18  C   UNL     1       2.470  -4.106  -0.322  0.00  0.00    +0.210 C 
ATOM     19  O   UNL     1       1.595  -4.977  -1.027  0.00  0.00    -0.345 OA
ATOM     20  C   UNL     1       2.836  -4.495   1.122  0.00  0.00    +0.180 C 
ATOM     21  C   UNL     1       2.659  -5.986   1.272  0.00  0.00    +0.005 C 
ATOM     22  C   UNL     1       3.086  -6.808   0.346  0.00  0.00    +0.005 C 
ATOM     23  C   UNL     1       3.766  -6.279  -0.894  0.00  0.00    +0.175 C 
ENDROOT
BRANCH  23  24
ATOM     24  O   UNL     1       5.103  -5.885  -0.578  0.00  0.00    -0.385 OA
ATOM     25  H   UNL     1       5.659  -6.605  -0.251  0.00  0.00    +0.210 HD
ENDBRANCH  23  24
BRANCH  20  26
ATOM     26  O   UNL     1       4.196  -4.143   1.386  0.00  0.00    -0.385 OA
ATOM     27  H   UNL     1       4.492  -4.361   2.280  0.00  0.00    +0.210 HD
ENDBRANCH  20  26
BRANCH  16  28
ATOM     28  O   UNL     1       4.503  -5.245  -3.252  0.00  0.00    -0.389 OA
ATOM     29  H   UNL     1       4.789  -4.981  -4.137  0.00  0.00    +0.210 HD
ENDBRANCH  16  28
TORSDOF 3
