REMARK  Name = ZINC04142572
REMARK  14 active torsions:
REMARK  status: ('A' for Active; 'I' for Inactive)
REMARK    1  A    between atoms: C_1  and  C_2
REMARK    2  A    between atoms: C_2  and  C_3
REMARK    3  A    between atoms: C_2  and  O_4
REMARK    4  A    between atoms: O_4  and  C_5
REMARK    5  A    between atoms: C_5  and  C_7
REMARK    6  A    between atoms: C_9  and  C_25
REMARK    7  A    between atoms: C_11  and  C_19
REMARK    8  A    between atoms: C_13  and  C_17
REMARK    9  A    between atoms: C_13  and  O_18
REMARK   10  A    between atoms: C_19  and  O_21
REMARK   11  A    between atoms: O_21  and  C_22
REMARK   12  A    between atoms: C_22  and  C_23
REMARK   13  A    between atoms: C_22  and  C_24
REMARK   14  A    between atoms: C_29  and  N_31
REMARK                            x       y       z     vdW  Elec       q    Type
REMARK                         _______ _______ _______ _____ _____    ______ ____
ROOT
ATOM      1  C   UNL     1      -2.946  -2.263  -0.619  0.00  0.00    +0.172 C 
ATOM      2  C   UNL     1      -2.926  -3.599  -1.369  0.00  0.00    +0.056 C 
ATOM      3  C   UNL     1      -4.357  -4.119  -1.519  0.00  0.00    +0.138 C 
ATOM      4  C   UNL     1      -5.172  -3.153  -2.381  0.00  0.00    +0.083 C 
ATOM      5  C   UNL     1      -5.277  -1.800  -1.669  0.00  0.00    +0.110 C 
ATOM      6  C   UNL     1      -3.881  -1.317  -1.340  0.00  0.00    +0.150 C 
ATOM      7  O   UNL     1      -3.521  -0.206  -1.648  0.00  0.00    -0.296 OA
ATOM      8  C   UNL     1      -4.480  -2.967  -3.732  0.00  0.00    +0.042 C 
ENDROOT
BRANCH   2   9
ATOM      9  C   UNL     1      -2.107  -4.598  -0.594  0.00  0.00    -0.040 A 
ATOM     10  C   UNL     1      -2.477  -4.948   0.691  0.00  0.00    +0.004 A 
ATOM     11  C   UNL     1      -1.725  -5.864   1.402  0.00  0.00    +0.002 A 
ATOM     12  C   UNL     1      -0.603  -6.432   0.828  0.00  0.00    +0.033 A 
ATOM     13  C   UNL     1      -0.233  -6.083  -0.457  0.00  0.00    +0.126 A 
ATOM     14  C   UNL     1      -0.988  -5.170  -1.170  0.00  0.00    +0.036 A 
BRANCH  13  15
ATOM     15  N   UNL     1       0.969  -6.690  -1.072  0.00  0.00    +0.056 N 
ATOM     16  O   UNL     1       1.627  -7.491  -0.450  0.00  0.00    -0.126 OA
ATOM     17  O   UNL     1       1.292  -6.386  -2.196  0.00  0.00    -0.126 OA
ENDBRANCH  13  15
ENDBRANCH   2   9
BRANCH   1  18
ATOM     18  C   UNL     1      -1.558  -1.678  -0.590  0.00  0.00    +0.318 C 
ATOM     19  O   UNL     1      -0.641  -2.271  -1.109  0.00  0.00    -0.250 OA
BRANCH  18  20
ATOM     20  O   UNL     1      -1.339  -0.499   0.012  0.00  0.00    -0.461 OA
BRANCH  20  22
ATOM     21  C   UNL     1      -0.019   1.526   0.010  0.00  0.00    +0.052 C 
ATOM     22  C   UNL     1       0.002  -0.004   0.002  0.00  0.00    +0.170 C 
ATOM     23  C   UNL     1       0.742  -0.511   1.242  0.00  0.00    +0.052 C 
ENDBRANCH  20  22
ENDBRANCH  18  20
ENDBRANCH   1  18
BRANCH   4  24
ATOM     24  O   UNL     1      -6.482  -3.687  -2.585  0.00  0.00    -0.388 OA
ATOM     25  H   UNL     1      -7.055  -3.125  -3.125  0.00  0.00    +0.210 HD
ENDBRANCH   4  24
BRANCH   3  26
ATOM     26  C   UNL     1      -4.331  -5.475  -2.177  0.00  0.00    +0.314 C 
ATOM     27  O   UNL     1      -3.276  -5.973  -2.493  0.00  0.00    -0.250 OA
BRANCH  26  28
ATOM     28  O   UNL     1      -5.479  -6.129  -2.412  0.00  0.00    -0.462 OA
BRANCH  28  29
ATOM     29  C   UNL     1      -5.380  -7.410  -3.038  0.00  0.00    +0.170 C 
ATOM     30  C   UNL     1      -5.252  -8.493  -1.966  0.00  0.00    +0.052 C 
ATOM     31  C   UNL     1      -6.634  -7.666  -3.876  0.00  0.00    +0.052 C 
ENDBRANCH  28  29
ENDBRANCH  26  28
ENDBRANCH   3  26
TORSDOF 9
