REMARK  Name = ZINC34889294
REMARK  12 active torsions:
REMARK  status: ('A' for Active; 'I' for Inactive)
REMARK    1  A    between atoms: C_1  and  C_2
REMARK    2  A    between atoms: C_2  and  O_3
REMARK    3  A    between atoms: O_3  and  C_4
REMARK    4  A    between atoms: C_11  and  C_35
REMARK    5  A    between atoms: C_12  and  C_15
REMARK    6  A    between atoms: C_15  and  O_17
REMARK    7  A    between atoms: O_17  and  C_18
REMARK    8  A    between atoms: C_18  and  C_20
REMARK    9  A    between atoms: C_18  and  C_21
REMARK   10  A    between atoms: N_23  and  C_24
REMARK   11  A    between atoms: C_29  and  C_34
REMARK   12  A    between atoms: C_31  and  C_33
REMARK                            x       y       z     vdW  Elec       q    Type
REMARK                         _______ _______ _______ _____ _____    ______ ____
ROOT
ATOM      1  C   UNL     1      -0.563  -9.283  -0.665  0.00  0.00    +0.343 C 
ATOM      2  O   UNL     1       0.538  -9.220  -1.177  0.00  0.00    -0.245 OA
ENDROOT
BRANCH   1  11
ATOM      3  C   UNL     1      -1.498  -1.847   0.006  0.00  0.00    +0.234 A 
ATOM      4  C   UNL     1      -2.778  -2.398   0.010  0.00  0.00    +0.072 A 
ATOM      5  C   UNL     1      -2.890  -3.778   0.003  0.00  0.00    +0.055 A 
ATOM      6  C   UNL     1      -1.716  -4.530  -0.006  0.00  0.00    +0.176 A 
ATOM      7  N   UNL     1      -0.543  -3.918  -0.009  0.00  0.00    -0.126 NA
ATOM      8  N   UNL     1      -0.439  -2.639  -0.008  0.00  0.00    -0.110 NA
ATOM      9  N   UNL     1      -1.778  -5.928  -0.013  0.00  0.00    -0.216 N 
ATOM     10  C   UNL     1      -0.824  -6.755  -0.478  0.00  0.00    +0.058 A 
ATOM     11  C   UNL     1      -1.277  -8.048  -0.300  0.00  0.00    +0.100 A 
ATOM     12  C   UNL     1      -2.556  -7.963   0.298  0.00  0.00    +0.150 A 
ATOM     13  N   UNL     1      -2.840  -6.702   0.469  0.00  0.00    -0.172 NA
ATOM     14  C   UNL     1       0.494  -6.347  -1.083  0.00  0.00    +0.066 C 
BRANCH   3  15
ATOM     15  O   UNL     1      -1.339  -0.499   0.012  0.00  0.00    -0.476 OA
BRANCH  15  17
ATOM     16  C   UNL     1      -0.019   1.526   0.010  0.00  0.00    +0.048 C 
ATOM     17  C   UNL     1       0.002  -0.004   0.002  0.00  0.00    +0.227 C 
ENDBRANCH  15  17
ENDBRANCH   3  15
ENDBRANCH   1  11
BRANCH   1  18
ATOM     18  O   UNL     1      -1.129 -10.483  -0.431  0.00  0.00    -0.449 OA
BRANCH  18  19
ATOM     19  C   UNL     1      -0.379 -11.639  -0.811  0.00  0.00    +0.259 C 
ATOM     20  C   UNL     1       0.498 -12.085   0.360  0.00  0.00    +0.062 C 
BRANCH  19  21
ATOM     21  C   UNL     1      -1.325 -12.752  -1.182  0.00  0.00    +0.254 C 
ATOM     22  O   UNL     1      -2.524 -12.573  -1.127  0.00  0.00    -0.272 OA
ATOM     23  N   UNL     1      -0.840 -13.946  -1.575  0.00  0.00    -0.309 N 
ATOM     24  H   UNL     1       0.118 -14.089  -1.619  0.00  0.00    +0.149 HD
BRANCH  23  25
ATOM     25  C   UNL     1      -1.760 -15.028  -1.936  0.00  0.00    +0.076 C 
ATOM     26  C   UNL     1      -2.183 -15.780  -0.672  0.00  0.00    +0.022 C 
ATOM     27  C   UNL     1      -3.143 -16.910  -1.049  0.00  0.00    +0.002 C 
ATOM     28  C   UNL     1      -2.444 -17.876  -2.008  0.00  0.00    +0.003 C 
ATOM     29  C   UNL     1      -2.021 -17.123  -3.271  0.00  0.00    -0.009 C 
ATOM     30  C   UNL     1      -1.060 -15.993  -2.894  0.00  0.00    +0.009 C 
ATOM     31  C   UNL     1       0.177 -16.582  -2.213  0.00  0.00    +0.009 C 
ATOM     32  C   UNL     1      -1.322 -18.089  -4.230  0.00  0.00    +0.008 C 
ENDBRANCH  23  25
ENDBRANCH  19  21
ENDBRANCH  18  19
ENDBRANCH   1  18
TORSDOF 7
