REMARK  Name = ZINC39468659
REMARK  8 active torsions:
REMARK  status: ('A' for Active; 'I' for Inactive)
REMARK    1  A    between atoms: C_1  and  C_2
REMARK    2  A    between atoms: C_2  and  O_3
REMARK    3  A    between atoms: O_3  and  C_4
REMARK    4  A    between atoms: P_13  and  S_32
REMARK    5  A    between atoms: C_21  and  S_22
REMARK    6  A    between atoms: S_22  and  O_25
REMARK    7  A    between atoms: O_25  and  C_26
REMARK    8  A    between atoms: S_32  and  C_33
REMARK                            x       y       z     vdW  Elec       q    Type
REMARK                         _______ _______ _______ _____ _____    ______ ____
ROOT
ATOM      1  C   UNL     1       0.777  -1.810  -1.336  0.00  0.00    +0.145 C 
ATOM      2  C   UNL     1       0.264  -2.642  -0.424  0.00  0.00    +0.024 C 
ATOM      3  C   UNL     1       0.403  -4.128  -0.619  0.00  0.00    +0.019 C 
ATOM      4  C   UNL     1       0.290  -4.857   0.714  0.00  0.00    -0.002 C 
ATOM      5  C   UNL     1       1.458  -4.488   1.637  0.00  0.00    -0.020 C 
ATOM      6  C   UNL     1       1.276  -5.288   2.933  0.00  0.00    +0.157 C 
ATOM      7  O   UNL     1       2.321  -4.945   3.861  0.00  0.00    -0.312 OA
ATOM      8  P   UNL     1       3.855  -4.992   3.321  0.00  0.00    +0.314 P 
ATOM      9  O   UNL     1       4.357  -6.384   3.321  0.00  0.00    -0.262 OA
ATOM     10  N   UNL     1       3.789  -4.407   1.779  0.00  0.00    -0.283 NA
ATOM     11  N   UNL     1       2.732  -4.804   0.988  0.00  0.00    +0.398 N 
ATOM     12  C   UNL     1       2.866  -4.054  -0.271  0.00  0.00    -0.046 C 
ATOM     13  C   UNL     1       1.769  -4.437  -1.238  0.00  0.00    +0.006 C 
ATOM     14  C   UNL     1       1.937  -3.604  -2.487  0.00  0.00    +0.009 C 
ATOM     15  C   UNL     1       1.454  -2.366  -2.524  0.00  0.00    +0.165 C 
ATOM     16  H   UNL     1       4.472  -3.806   1.442  0.00  0.00    +0.112 HD
ATOM     17  H   UNL     1       2.788  -5.797   0.814  0.00  0.00    -0.055 HD
ENDROOT
BRANCH  15  18
ATOM     18  S   UNL     1       1.624  -1.390  -3.981  0.00  0.00    +0.154 S 
ATOM     19  O   UNL     1       2.025  -0.094  -3.557  0.00  0.00    -0.131 OA
ATOM     20  O   UNL     1       2.388  -2.161  -4.899  0.00  0.00    -0.131 OA
BRANCH  18  21
ATOM     21  O   UNL     1       0.237  -1.240  -4.588  0.00  0.00    -0.342 OA
BRANCH  21  22
ATOM     22  C   UNL     1      -0.566  -0.367  -3.924  0.00  0.00    +0.157 A 
ATOM     23  C   UNL     1      -1.371  -0.815  -2.887  0.00  0.00    +0.048 A 
ATOM     24  C   UNL     1      -2.186   0.075  -2.213  0.00  0.00    +0.004 A 
ATOM     25  C   UNL     1      -2.198   1.410  -2.571  0.00  0.00    +0.000 A 
ATOM     26  C   UNL     1      -1.397   1.859  -3.605  0.00  0.00    +0.004 A 
ATOM     27  C   UNL     1      -0.576   0.974  -4.277  0.00  0.00    +0.048 A 
ENDBRANCH  21  22
ENDBRANCH  18  21
ENDBRANCH  15  18
BRANCH   8  28
ATOM     28  S   UNL     1       5.097  -3.765   4.525  0.00  0.00    -0.059 S 
ATOM     29  C   UNL     1       4.945  -4.481   6.184  0.00  0.00    +0.096 C 
ENDBRANCH   8  28
BRANCH   1  30
ATOM     30  O   UNL     1       0.671  -0.465  -1.174  0.00  0.00    -0.491 OA
BRANCH  30  32
ATOM     31  C   UNL     1      -0.019   1.526   0.010  0.00  0.00    +0.048 C 
ATOM     32  C   UNL     1       0.002  -0.004   0.002  0.00  0.00    +0.226 C 
ENDBRANCH  30  32
ENDBRANCH   1  30
TORSDOF 6
