REMARK  Name = ZINC06149573
REMARK  9 active torsions:
REMARK  status: ('A' for Active; 'I' for Inactive)
REMARK    1  A    between atoms: C_1  and  C_2
REMARK    2  A    between atoms: C_2  and  C_3
REMARK    3  A    between atoms: C_3  and  C_4
REMARK    4  A    between atoms: C_3  and  C_5
REMARK    5  A    between atoms: C_3  and  N_6
REMARK    6  A    between atoms: C_7  and  C_11
REMARK    7  A    between atoms: C_11  and  C_13
REMARK    8  A    between atoms: C_11  and  N_72
REMARK    9  A    between atoms: C_18  and  C_25
REMARK                            x       y       z     vdW  Elec       q    Type
REMARK                         _______ _______ _______ _____ _____    ______ ____
ROOT
ATOM      1  C   UNL     1      -4.980   1.003  -0.061  0.00  0.00    +0.039 C 
ENDROOT
BRANCH   1   2
ATOM      2  C   UNL     1      -3.792   1.893  -0.318  0.00  0.00    +0.011 A 
ATOM      3  C   UNL     1      -2.566   1.346  -0.506  0.00  0.00    +0.017 A 
ATOM      4  C   UNL     1      -1.433   2.239  -0.758  0.00  0.00    -0.001 A 
ATOM      5  C   UNL     1      -0.144   1.733  -0.955  0.00  0.00    +0.010 A 
ATOM      6  C   UNL     1       0.893   2.593  -1.185  0.00  0.00    +0.004 A 
ATOM      7  C   UNL     1       0.679   3.965  -1.219  0.00  0.00    -0.048 A 
ATOM      8  C   UNL     1      -0.582   4.485  -1.023  0.00  0.00    +0.029 A 
ATOM      9  C   UNL     1      -1.653   3.629  -0.787  0.00  0.00    +0.049 A 
ATOM     10  N   UNL     1      -2.925   4.122  -0.588  0.00  0.00    -0.322 N 
ATOM     11  H   UNL     1      -3.080   5.109  -0.613  0.00  0.00    +0.169 HD
ATOM     12  C   UNL     1      -3.960   3.294  -0.362  0.00  0.00    +0.251 A 
ATOM     13  O   UNL     1      -5.071   3.765  -0.190  0.00  0.00    -0.268 OA
ATOM     14  C   UNL     1       1.838   4.894  -1.473  0.00  0.00    +0.044 C 
ENDBRANCH   1   2
BRANCH   1  25
ATOM     15  C   UNL     1      -5.526   1.214  -2.410  0.00  0.00    -0.077 C 
ATOM     16  C   UNL     1      -6.608   1.672  -3.390  0.00  0.00    -0.018 C 
ATOM     17  C   UNL     1      -7.845   0.784  -3.228  0.00  0.00    +0.003 C 
ATOM     18  C   UNL     1      -8.329   0.857  -1.777  0.00  0.00    -0.044 C 
ATOM     19  C   UNL     1      -7.197   0.423  -0.843  0.00  0.00    -0.071 C 
ATOM     20  C   UNL     1      -8.739   2.294  -1.448  0.00  0.00    +0.005 C 
ATOM     21  C   UNL     1      -9.225   2.367   0.001  0.00  0.00    +0.000 C 
ATOM     22  C   UNL     1     -10.427   1.439   0.183  0.00  0.00    +0.000 C 
ATOM     23  C   UNL     1     -10.015   0.002  -0.143  0.00  0.00    +0.000 C 
ATOM     24  C   UNL     1      -9.529  -0.073  -1.592  0.00  0.00    +0.005 C 
ATOM     25  N   UNL     1      -6.045   1.331  -1.031  0.00  0.00    +0.390 N 
ATOM     26  H   UNL     1      -6.354   2.297  -0.872  0.00  0.00    -0.080 HD
ENDBRANCH   1  25
BRANCH   1  28
ATOM     27  N   UNL     1      -5.441   0.394   2.373  0.00  0.00    -0.225 N 
ATOM     28  C   UNL     1      -5.499   1.247   1.333  0.00  0.00    +0.143 A 
ATOM     29  N   UNL     1      -6.100   2.328   1.766  0.00  0.00    -0.115 NA
ATOM     30  N   UNL     1      -6.391   2.151   3.009  0.00  0.00    -0.023 NA
ATOM     31  N   UNL     1      -5.991   0.985   3.379  0.00  0.00    -0.043 NA
BRANCH  27  32
ATOM     32  C   UNL     1      -4.859  -0.950   2.364  0.00  0.00    +0.061 C 
ATOM     33  C   UNL     1      -5.628  -1.833   1.379  0.00  0.00    +0.036 C 
ATOM     34  C   UNL     1      -3.392  -0.868   1.938  0.00  0.00    +0.036 C 
BRANCH  32  36
ATOM     35  C   UNL     1      -4.341  -2.958   3.758  0.00  0.00    +0.006 C 
ATOM     36  C   UNL     1      -4.949  -1.554   3.767  0.00  0.00    +0.026 C 
ENDBRANCH  32  36
ENDBRANCH  27  32
ENDBRANCH   1  28
TORSDOF 5
