REMARK  Name = ZINC09459340
REMARK  11 active torsions:
REMARK  status: ('A' for Active; 'I' for Inactive)
REMARK    1  A    between atoms: C_1  and  C_2
REMARK    2  A    between atoms: C_3  and  C_33
REMARK    3  A    between atoms: C_4  and  C_32
REMARK    4  A    between atoms: C_7  and  C_8
REMARK    5  A    between atoms: C_8  and  C_10
REMARK    6  A    between atoms: C_10  and  O_11
REMARK    7  A    between atoms: O_11  and  C_12
REMARK    8  A    between atoms: C_12  and  C_14
REMARK    9  A    between atoms: C_21  and  C_26
REMARK   10  A    between atoms: C_22  and  C_25
REMARK   11  A    between atoms: C_33  and  C_35
REMARK                            x       y       z     vdW  Elec       q    Type
REMARK                         _______ _______ _______ _____ _____    ______ ____
ROOT
ATOM      1  C   UNL     1      -1.322   3.321   0.154  0.00  0.00    +0.102 A 
ATOM      2  C   UNL     1      -1.441   1.956  -0.106  0.00  0.00    +0.019 A 
ATOM      3  C   UNL     1      -0.326   1.201  -0.416  0.00  0.00    +0.002 A 
ATOM      4  C   UNL     1       0.922   1.789  -0.484  0.00  0.00    +0.015 A 
ATOM      5  C   UNL     1       1.061   3.153  -0.233  0.00  0.00    +0.065 A 
ATOM      6  C   UNL     1      -0.060   3.932   0.088  0.00  0.00    +0.153 A 
ATOM      7  O   UNL     1       0.084   5.249   0.328  0.00  0.00    -0.454 OA
ATOM      8  C   UNL     1       1.276   5.863   0.273  0.00  0.00    +0.142 A 
ATOM      9  C   UNL     1       2.426   5.202  -0.028  0.00  0.00    +0.040 A 
ATOM     10  C   UNL     1       2.381   3.813  -0.297  0.00  0.00    +0.196 A 
ATOM     11  O   UNL     1       3.391   3.187  -0.571  0.00  0.00    -0.287 OA
ATOM     12  C   UNL     1       3.737   5.942  -0.076  0.00  0.00    +0.051 C 
ENDROOT
BRANCH   8  13
ATOM     13  C   UNL     1       1.342   7.311   0.551  0.00  0.00    +0.018 A 
ATOM     14  C   UNL     1       2.227   7.802   1.514  0.00  0.00    +0.011 A 
ATOM     15  C   UNL     1       2.288   9.157   1.764  0.00  0.00    +0.001 A 
ATOM     16  C   UNL     1       1.466  10.029   1.071  0.00  0.00    +0.000 A 
ATOM     17  C   UNL     1       0.583   9.550   0.120  0.00  0.00    +0.001 A 
ATOM     18  C   UNL     1       0.516   8.197  -0.145  0.00  0.00    +0.011 A 
ENDBRANCH   8  13
BRANCH   1  19
ATOM     19  C   UNL     1      -2.515   4.120   0.489  0.00  0.00    +0.343 C 
ATOM     20  O   UNL     1      -2.408   5.310   0.709  0.00  0.00    -0.245 OA
BRANCH  19  21
ATOM     21  O   UNL     1      -3.725   3.529   0.551  0.00  0.00    -0.453 OA
BRANCH  21  22
ATOM     22  C   UNL     1      -4.856   4.377   0.886  0.00  0.00    +0.313 C 
BRANCH  22  23
ATOM     23  C   UNL     1      -6.115   3.549   0.908  0.00  0.00    +0.217 C 
ATOM     24  O   UNL     1      -6.064   2.360   0.665  0.00  0.00    -0.287 OA
BRANCH  23  31
ATOM     25  C   UNL     1      -8.841   2.060   1.004  0.00  0.00    +0.047 C 
ATOM     26  C   UNL     1      -8.578   3.521   1.262  0.00  0.00    -0.012 A 
ATOM     27  C   UNL     1      -9.536   4.503   1.603  0.00  0.00    +0.041 A 
ATOM     28  C   UNL     1      -8.857   5.705   1.741  0.00  0.00    +0.024 A 
ATOM     29  N   UNL     1      -7.555   5.491   1.506  0.00  0.00    -0.355 N 
ATOM     30  H   UNL     1      -6.861   6.168   1.538  0.00  0.00    +0.166 HD
ATOM     31  C   UNL     1      -7.357   4.157   1.213  0.00  0.00    +0.090 A 
ATOM     32  C   UNL     1      -9.480   7.031   2.095  0.00  0.00    +0.064 C 
BRANCH  27  33
ATOM     33  C   UNL     1     -10.977   4.292   1.774  0.00  0.00    +0.162 C 
ATOM     34  O   UNL     1     -11.732   4.483   0.844  0.00  0.00    -0.292 OA
ATOM     35  C   UNL     1     -11.519   3.837   3.104  0.00  0.00    +0.091 C 
ENDBRANCH  27  33
ENDBRANCH  23  31
ENDBRANCH  22  23
ENDBRANCH  21  22
ENDBRANCH  19  21
ENDBRANCH   1  19
TORSDOF 7
