REMARK  Name = ZINC08740461
REMARK  8 active torsions:
REMARK  status: ('A' for Active; 'I' for Inactive)
REMARK    1  A    between atoms: C_1  and  C_2
REMARK    2  A    between atoms: C_6  and  N_9
REMARK    3  A    between atoms: C_7  and  C_8
REMARK    4  A    between atoms: C_14  and  C_15
REMARK    5  A    between atoms: C_14  and  N_70
REMARK    6  A    between atoms: C_26  and  C_33
REMARK    7  A    between atoms: C_28  and  C_32
REMARK    8  A    between atoms: C_29  and  O_31
REMARK                            x       y       z     vdW  Elec       q    Type
REMARK                         _______ _______ _______ _____ _____    ______ ____
ROOT
ATOM      1  C   UNL     1      -1.558   0.808   1.855  0.00  0.00    +0.090 C 
ATOM      2  C   UNL     1      -0.237   1.498   1.488  0.00  0.00    +0.071 C 
ATOM      3  C   UNL     1      -0.591   2.984   1.605  0.00  0.00    +0.187 C 
ATOM      4  C   UNL     1      -1.239   3.510   0.320  0.00  0.00    +0.076 C 
ATOM      5  C   UNL     1      -0.350   3.138  -0.851  0.00  0.00    -0.061 C 
ATOM      6  C   UNL     1       0.132   4.096  -1.586  0.00  0.00    -0.027 C 
ATOM      7  C   UNL     1       1.030   3.829  -2.761  0.00  0.00    +0.027 C 
ATOM      8  C   UNL     1       1.832   2.557  -2.474  0.00  0.00    +0.008 C 
ATOM      9  C   UNL     1       0.889   1.397  -2.201  0.00  0.00    -0.001 C 
ATOM     10  C   UNL     1      -0.096   1.678  -1.074  0.00  0.00    +0.018 C 
ATOM     11  C   UNL     1       0.400   1.036   0.215  0.00  0.00    +0.132 C 
ATOM     12  C   UNL     1      -1.420   1.015  -1.483  0.00  0.00    +0.018 C 
ATOM     13  C   UNL     1       0.105   1.048  -3.468  0.00  0.00    +0.008 C 
ATOM     14  O   UNL     1      -1.633   3.015   2.639  0.00  0.00    -0.460 OA
ATOM     15  C   UNL     1      -2.215   1.817   2.786  0.00  0.00    +0.309 C 
ATOM     16  O   UNL     1      -3.128   1.565   3.543  0.00  0.00    -0.251 OA
ENDROOT
BRANCH  11  17
ATOM     17  O   UNL     1       1.817   1.245   0.319  0.00  0.00    -0.391 OA
ATOM     18  H   UNL     1       2.224   0.812   1.082  0.00  0.00    +0.210 HD
ENDBRANCH  11  17
BRANCH   1  19
ATOM     19  C   UNL     1      -1.293  -0.504   2.602  0.00  0.00    -0.064 C 
BRANCH  19  25
ATOM     20  N   UNL     1      -0.211  -3.994   0.481  0.00  0.00    -0.333 N 
ATOM     21  C   UNL     1       0.727  -3.482   1.490  0.00  0.00    +0.086 C 
ATOM     22  C   UNL     1      -0.020  -2.558   2.455  0.00  0.00    -0.060 C 
ATOM     23  C   UNL     1      -1.568  -1.967   0.692  0.00  0.00    -0.060 C 
ATOM     24  C   UNL     1      -0.822  -2.890  -0.274  0.00  0.00    +0.086 C 
ATOM     25  N   UNL     1      -0.609  -1.442   1.686  0.00  0.00    +0.382 N 
ATOM     26  H   UNL     1       0.141  -0.942   1.195  0.00  0.00    -0.082 HD
BRANCH  20  32
ATOM     27  C   UNL     1       0.091  -8.518  -1.415  0.00  0.00    +0.044 C 
ATOM     28  C   UNL     1       0.588  -7.098  -1.315  0.00  0.00    -0.046 A 
ATOM     29  C   UNL     1       1.670  -6.690  -2.074  0.00  0.00    +0.004 A 
ATOM     30  C   UNL     1       2.128  -5.388  -1.986  0.00  0.00    +0.002 A 
ATOM     31  C   UNL     1       1.506  -4.491  -1.139  0.00  0.00    +0.023 A 
ATOM     32  C   UNL     1       0.420  -4.898  -0.376  0.00  0.00    +0.033 A 
ATOM     33  C   UNL     1      -0.035  -6.208  -0.463  0.00  0.00    -0.027 A 
ATOM     34  C   UNL     1      -1.210  -6.655   0.368  0.00  0.00    +0.046 C 
ENDBRANCH  20  32
ENDBRANCH  19  25
ENDBRANCH   1  19
TORSDOF 4
