REMARK  Name = ZINC20881671
REMARK  10 active torsions:
REMARK  status: ('A' for Active; 'I' for Inactive)
REMARK    1  A    between atoms: C_1  and  O_2
REMARK    2  A    between atoms: O_2  and  C_3
REMARK    3  A    between atoms: C_6  and  C_11
REMARK    4  A    between atoms: C_8  and  O_9
REMARK    5  A    between atoms: O_9  and  C_10
REMARK    6  A    between atoms: C_16  and  C_26
REMARK    7  A    between atoms: C_29  and  O_34
REMARK    8  A    between atoms: C_30  and  O_32
REMARK    9  A    between atoms: O_32  and  C_33
REMARK   10  A    between atoms: O_34  and  C_35
REMARK                            x       y       z     vdW  Elec       q    Type
REMARK                         _______ _______ _______ _____ _____    ______ ____
ROOT
ATOM      1  C   UNL     1       5.262   5.088  -1.603  0.00  0.00    +0.032 C 
ATOM      2  C   UNL     1       3.800   5.192  -1.172  0.00  0.00    +0.059 C 
ATOM      3  C   UNL     1       3.262   3.811  -0.834  0.00  0.00    +0.017 C 
ATOM      4  C   UNL     1       3.701   2.730  -1.499  0.00  0.00    +0.036 C 
ATOM      5  C   UNL     1       3.230   1.310  -1.291  0.00  0.00    +0.136 C 
ATOM      6  N   UNL     1       2.421   1.114  -0.106  0.00  0.00    -0.331 N 
ATOM      7  C   UNL     1       1.174   1.723   0.024  0.00  0.00    +0.049 A 
ATOM      8  C   UNL     1       0.004   0.981   0.029  0.00  0.00    +0.025 A 
ATOM      9  C   UNL     1      -1.215   1.635   0.059  0.00  0.00    +0.002 A 
ATOM     10  C   UNL     1      -1.268   3.016   0.093  0.00  0.00    +0.002 A 
ATOM     11  C   UNL     1      -0.101   3.760   0.103  0.00  0.00    +0.025 A 
ATOM     12  C   UNL     1       1.120   3.108   0.084  0.00  0.00    +0.052 A 
ATOM     13  N   UNL     1       2.329   3.791   0.151  0.00  0.00    -0.316 N 
ATOM     14  C   UNL     1       4.697   2.862  -2.495  0.00  0.00    +0.163 C 
ATOM     15  O   UNL     1       5.061   1.869  -3.094  0.00  0.00    -0.292 OA
ATOM     16  C   UNL     1       5.321   4.181  -2.838  0.00  0.00    +0.088 C 
ATOM     17  H   UNL     1       2.788   0.476   0.711  0.00  0.00    +0.147 HD
ATOM     18  H   UNL     1       2.504   4.343   1.086  0.00  0.00    +0.152 HD
ENDROOT
BRANCH   1  22
ATOM     19  C   UNL     1       6.764   8.970  -2.583  0.00  0.00    +0.161 A 
ATOM     20  C   UNL     1       5.664   8.460  -3.254  0.00  0.00    +0.049 A 
ATOM     21  C   UNL     1       5.181   7.204  -2.935  0.00  0.00    +0.008 A 
ATOM     22  C   UNL     1       5.793   6.455  -1.947  0.00  0.00    -0.040 A 
ATOM     23  C   UNL     1       6.887   6.961  -1.270  0.00  0.00    +0.053 A 
ATOM     24  C   UNL     1       7.380   8.216  -1.588  0.00  0.00    +0.162 A 
BRANCH  19  26
ATOM     25  C   UNL     1       6.558  10.922  -3.925  0.00  0.00    +0.277 C 
ATOM     26  O   UNL     1       7.240  10.205  -2.894  0.00  0.00    -0.491 OA
ENDBRANCH  19  26
BRANCH  24  27
ATOM     27  O   UNL     1       8.460   8.712  -0.927  0.00  0.00    -0.491 OA
ATOM     28  C   UNL     1       9.040   7.883   0.081  0.00  0.00    +0.277 C 
ENDBRANCH  24  27
ENDBRANCH   1  22
BRANCH   5  29
ATOM     29  C   UNL     1       2.425   0.892  -2.494  0.00  0.00    -0.019 A 
ATOM     30  C   UNL     1       1.246   1.548  -2.796  0.00  0.00    +0.009 A 
ATOM     31  C   UNL     1       0.503   1.169  -3.899  0.00  0.00    +0.050 A 
ATOM     32  C   UNL     1       0.941   0.130  -4.705  0.00  0.00    +0.162 A 
ATOM     33  C   UNL     1       2.127  -0.530  -4.401  0.00  0.00    +0.162 A 
ATOM     34  C   UNL     1       2.869  -0.142  -3.297  0.00  0.00    +0.055 A 
BRANCH  33  35
ATOM     35  O   UNL     1       2.560  -1.551  -5.188  0.00  0.00    -0.491 OA
ATOM     36  C   UNL     1       3.786  -2.183  -4.815  0.00  0.00    +0.277 C 
ENDBRANCH  33  35
BRANCH  32  37
ATOM     37  O   UNL     1       0.212  -0.244  -5.791  0.00  0.00    -0.491 OA
ATOM     38  C   UNL     1      -0.995   0.479  -6.042  0.00  0.00    +0.277 C 
ENDBRANCH  32  37
ENDBRANCH   5  29
TORSDOF 6
