REMARK  Name = ZINC32535981
REMARK  8 active torsions:
REMARK  status: ('A' for Active; 'I' for Inactive)
REMARK    1  A    between atoms: C_1  and  C_2
REMARK    2  A    between atoms: C_2  and  C_3
REMARK    3  A    between atoms: C_2  and  C_4
REMARK    4  A    between atoms: C_7  and  S_10
REMARK    5  A    between atoms: S_10  and  C_13
REMARK    6  A    between atoms: C_20  and  N_22
REMARK    7  A    between atoms: N_22  and  C_23
REMARK    8  A    between atoms: C_23  and  C_24
REMARK                            x       y       z     vdW  Elec       q    Type
REMARK                         _______ _______ _______ _____ _____    ______ ____
ROOT
ATOM      1  C   UNL     1       1.736   6.000   2.760  0.00  0.00    +0.144 C 
ATOM      2  C   UNL     1       0.786   6.849   3.634  0.00  0.00    +0.190 C 
ATOM      3  S   UNL     1      -0.861   6.337   2.976  0.00  0.00    -0.031 S 
ATOM      4  O   UNL     1      -1.249   5.111   3.580  0.00  0.00    -0.174 OA
ATOM      5  O   UNL     1      -1.746   7.449   3.006  0.00  0.00    -0.174 OA
ATOM      6  C   UNL     1      -0.333   6.021   1.236  0.00  0.00    +0.152 C 
ATOM      7  C   UNL     1       1.123   5.546   1.444  0.00  0.00    -0.024 C 
ENDROOT
BRANCH   1   8
ATOM      8  S   UNL     1       3.220   6.979   2.399  0.00  0.00    -0.000 S 
ATOM      9  O   UNL     1       4.230   6.150   1.841  0.00  0.00    -0.169 OA
ATOM     10  O   UNL     1       2.859   8.203   1.772  0.00  0.00    -0.169 OA
BRANCH   8  14
ATOM     11  C   UNL     1       4.830   8.191   6.453  0.00  0.00    -0.045 A 
ATOM     12  C   UNL     1       5.248   7.011   5.868  0.00  0.00    +0.006 A 
ATOM     13  C   UNL     1       4.757   6.641   4.630  0.00  0.00    +0.027 A 
ATOM     14  C   UNL     1       3.846   7.451   3.977  0.00  0.00    +0.088 A 
ATOM     15  C   UNL     1       3.432   8.634   4.560  0.00  0.00    +0.027 A 
ATOM     16  C   UNL     1       3.920   9.002   5.800  0.00  0.00    +0.006 A 
BRANCH  11  18
ATOM     17  C   UNL     1       6.086   9.939   7.684  0.00  0.00    +0.012 C 
ATOM     18  C   UNL     1       5.365   8.595   7.803  0.00  0.00    +0.013 C 
ATOM     19  C   UNL     1       4.206   8.723   8.793  0.00  0.00    +0.012 C 
ENDBRANCH  11  18
ENDBRANCH   8  14
ENDBRANCH   1   8
BRANCH   7  20
ATOM     20  N   UNL     1       1.148   4.078   1.397  0.00  0.00    +0.386 N 
ATOM     21  H   UNL     1       2.057   3.711   1.896  0.00  0.00    -0.085 HD
ATOM     22  H   UNL     1       0.261   3.680   1.912  0.00  0.00    -0.085 HD
BRANCH  20  23
ATOM     23  C   UNL     1       1.143   3.595   0.010  0.00  0.00    -0.046 C 
BRANCH  23  24
ATOM     24  C   UNL     1       1.169   2.089   0.002  0.00  0.00    -0.061 A 
ATOM     25  C   UNL     1      -0.017   1.378   0.010  0.00  0.00    +0.005 A 
ATOM     26  C   UNL     1       0.002  -0.004   0.002  0.00  0.00    +0.050 A 
ATOM     27  C   UNL     1       1.211  -0.681  -0.013  0.00  0.00    +0.166 A 
ATOM     28  C   UNL     1       2.405   0.035  -0.021  0.00  0.00    +0.166 A 
ATOM     29  C   UNL     1       2.379   1.420  -0.013  0.00  0.00    +0.051 A 
ATOM     30  O   UNL     1       3.444  -0.851  -0.036  0.00  0.00    -0.453 OA
ATOM     31  C   UNL     1       2.881  -2.111   0.375  0.00  0.00    +0.466 C 
ATOM     32  O   UNL     1       1.501  -2.015  -0.024  0.00  0.00    -0.453 OA
ENDBRANCH  23  24
ENDBRANCH  20  23
ENDBRANCH   7  20
TORSDOF 6
