REMARK  Name = ZINC36977039
REMARK  2 active torsions:
REMARK  status: ('A' for Active; 'I' for Inactive)
REMARK    1  A    between atoms: C_8  and  N_13
REMARK    2  A    between atoms: N_13  and  C_14
REMARK                            x       y       z     vdW  Elec       q    Type
REMARK                         _______ _______ _______ _____ _____    ______ ____
ROOT
ATOM      1  C   UNL     1       1.334   2.972  -0.629  0.00  0.00    +0.022 A 
ATOM      2  C   UNL     1       2.140   2.935  -1.748  0.00  0.00    +0.025 A 
ATOM      3  C   UNL     1       3.173   2.004  -1.836  0.00  0.00    +0.039 A 
ATOM      4  C   UNL     1       3.374   1.121  -0.783  0.00  0.00    +0.001 A 
ATOM      5  C   UNL     1       2.569   1.159   0.333  0.00  0.00    +0.027 A 
ATOM      6  C   UNL     1       1.544   2.087   0.414  0.00  0.00    +0.041 A 
ATOM      7 CL   UNL     1       0.526   2.140   1.819  0.00  0.00    -0.084 Cl
ATOM      8  C   UNL     1       4.548   0.253  -1.174  0.00  0.00    +0.174 C 
ATOM      9  C   UNL     1       4.947   0.768  -2.541  0.00  0.00    +0.239 C 
ATOM     10  O   UNL     1       5.854   0.352  -3.230  0.00  0.00    -0.273 OA
ATOM     11  N   UNL     1       4.108   1.772  -2.846  0.00  0.00    -0.284 N 
ATOM     12  H   UNL     1       4.147   2.277  -3.673  0.00  0.00    +0.155 HD
ENDROOT
BRANCH   8  13
ATOM     13  N   UNL     1       4.144  -1.157  -1.250  0.00  0.00    -0.291 NA
ATOM     14  H   UNL     1       3.405  -1.357  -0.592  0.00  0.00    +0.124 HD
BRANCH  13  15
ATOM     15  C   UNL     1       5.293  -2.047  -1.037  0.00  0.00    +0.141 C 
ATOM     16  C   UNL     1       5.883  -2.458  -2.388  0.00  0.00    +0.028 C 
ATOM     17  C   UNL     1       4.788  -2.606  -3.429  0.00  0.00    +0.003 C 
ATOM     18  C   UNL     1       3.838  -3.759  -3.160  0.00  0.00    +0.019 C 
ATOM     19  C   UNL     1       3.009  -3.499  -1.901  0.00  0.00    +0.104 C 
ATOM     20  N   UNL     1       3.769  -3.967  -0.731  0.00  0.00    -0.314 N 
ATOM     21  C   UNL     1       4.843  -3.294  -0.305  0.00  0.00    +0.230 C 
ATOM     22  O   UNL     1       5.461  -3.683   0.663  0.00  0.00    -0.274 OA
ATOM     23  H   UNL     1       3.488  -4.769  -0.263  0.00  0.00    +0.149 HD
ENDBRANCH  13  15
ENDBRANCH   8  13
TORSDOF 2
