REMARK  Name = ZINC12020007
REMARK  7 active torsions:
REMARK  status: ('A' for Active; 'I' for Inactive)
REMARK    1  A    between atoms: C_1  and  C_2
REMARK    2  A    between atoms: C_2  and  C_3
REMARK    3  A    between atoms: C_3  and  C_22
REMARK    4  A    between atoms: N_6  and  C_10
REMARK    5  A    between atoms: C_10  and  C_11
REMARK    6  A    between atoms: C_27  and  C_28
REMARK    7  A    between atoms: C_27  and  N_67
REMARK                            x       y       z     vdW  Elec       q    Type
REMARK                         _______ _______ _______ _____ _____    ______ ____
ROOT
ATOM      1  C   UNL     1      -3.222   3.868   4.111  0.00  0.00    +0.115 C 
ATOM      2  C   UNL     1      -2.971   5.332   4.414  0.00  0.00    +0.247 C 
ATOM      3  O   UNL     1      -3.362   6.288   3.780  0.00  0.00    -0.273 OA
ATOM      4  N   UNL     1      -2.222   5.349   5.535  0.00  0.00    -0.221 N 
ATOM      5  C   UNL     1      -1.967   4.112   5.977  0.00  0.00    +0.309 C 
ATOM      6  O   UNL     1      -1.311   3.872   6.971  0.00  0.00    -0.252 OA
ATOM      7  N   UNL     1      -2.519   3.164   5.198  0.00  0.00    -0.285 N 
ATOM      8  H   UNL     1      -2.464   2.204   5.326  0.00  0.00    +0.151 HD
ENDROOT
BRANCH   1   9
ATOM      9  C   UNL     1      -2.628   3.490   2.753  0.00  0.00    +0.018 C 
ATOM     10  C   UNL     1      -1.143   3.860   2.723  0.00  0.00    -0.013 C 
ATOM     11  C   UNL     1      -0.541   3.426   1.384  0.00  0.00    -0.078 C 
ATOM     12  C   UNL     1      -2.126   1.603   1.197  0.00  0.00    -0.078 C 
ATOM     13  C   UNL     1      -2.775   1.982   2.530  0.00  0.00    -0.013 C 
ATOM     14  N   UNL     1      -0.693   1.962   1.242  0.00  0.00    +0.384 N 
ATOM     15  H   UNL     1      -0.259   1.503   2.051  0.00  0.00    -0.081 HD
BRANCH  14  16
ATOM     16  C   UNL     1      -0.018   1.503   0.010  0.00  0.00    -0.003 C 
BRANCH  16  17
ATOM     17  C   UNL     1       0.002  -0.004   0.002  0.00  0.00    +0.090 A 
ATOM     18  C   UNL     1      -0.947  -0.781  -0.538  0.00  0.00    +0.051 A 
ATOM     19  C   UNL     1      -0.515  -2.167  -0.318  0.00  0.00    +0.020 A 
ATOM     20  C   UNL     1      -1.047  -3.416  -0.635  0.00  0.00    +0.011 A 
ATOM     21  C   UNL     1      -0.376  -4.550  -0.271  0.00  0.00    +0.001 A 
ATOM     22  C   UNL     1       0.829  -4.466   0.411  0.00  0.00    +0.004 A 
ATOM     23  C   UNL     1       1.370  -3.240   0.733  0.00  0.00    +0.047 A 
ATOM     24  C   UNL     1       0.705  -2.074   0.373  0.00  0.00    +0.135 A 
ATOM     25  O   UNL     1       0.972  -0.764   0.540  0.00  0.00    -0.462 OA
ENDBRANCH  16  17
ENDBRANCH  14  16
ENDBRANCH   1   9
BRANCH   1  27
ATOM     26  C   UNL     1      -5.287   3.942   5.515  0.00  0.00    +0.006 C 
ATOM     27  C   UNL     1      -4.719   3.556   4.148  0.00  0.00    +0.032 C 
ENDBRANCH   1  27
BRANCH   4  28
ATOM     28  C   UNL     1      -1.745   6.571   6.187  0.00  0.00    +0.166 C 
BRANCH  28  29
ATOM     29  C   UNL     1      -0.380   6.956   5.613  0.00  0.00    +0.229 C 
ATOM     30  C   UNL     1       0.175   8.171   6.368  0.00  0.00    +0.275 C 
ATOM     31  O   UNL     1       1.443   8.512   5.798  0.00  0.00    -0.485 OA
ATOM     32  C   UNL     1       1.510   8.559   4.439  0.00  0.00    +0.162 A 
ATOM     33  C   UNL     1       2.569   9.217   3.832  0.00  0.00    +0.049 A 
ATOM     34  C   UNL     1       2.652   9.271   2.454  0.00  0.00    +0.004 A 
ATOM     35  C   UNL     1       1.681   8.669   1.676  0.00  0.00    +0.004 A 
ATOM     36  C   UNL     1       0.623   8.011   2.275  0.00  0.00    +0.049 A 
ATOM     37  C   UNL     1       0.532   7.956   3.658  0.00  0.00    +0.163 A 
ATOM     38  O   UNL     1      -0.520   7.311   4.232  0.00  0.00    -0.480 OA
ENDBRANCH  28  29
ENDBRANCH   4  28
TORSDOF 6
