REMARK  Name = ZINC20355909
REMARK  12 active torsions:
REMARK  status: ('A' for Active; 'I' for Inactive)
REMARK    1  A    between atoms: C_1  and  C_2
REMARK    2  A    between atoms: C_5  and  N_9
REMARK    3  A    between atoms: C_6  and  C_8
REMARK    4  A    between atoms: C_10  and  C_12
REMARK    5  A    between atoms: C_12  and  S_13
REMARK    6  A    between atoms: S_13  and  C_14
REMARK    7  A    between atoms: C_19  and  S_22
REMARK    8  A    between atoms: S_22  and  C_25
REMARK    9  A    between atoms: C_28  and  C_31
REMARK   10  A    between atoms: C_31  and  C_32
REMARK   11  A    between atoms: C_31  and  C_33
REMARK   12  A    between atoms: C_31  and  C_34
REMARK                            x       y       z     vdW  Elec       q    Type
REMARK                         _______ _______ _______ _____ _____    ______ ____
ROOT
ATOM      1  C   UNL     1      -6.428   2.048  -0.410  0.00  0.00    +0.169 A 
ATOM      2  N   UNL     1      -7.689   1.548  -0.523  0.00  0.00    -0.300 N 
ATOM      3  H   UNL     1      -7.848   0.460  -0.551  0.00  0.00    +0.171 HD
ATOM      4  C   UNL     1      -8.741   2.391  -0.600  0.00  0.00    +0.277 A 
ATOM      5  O   UNL     1      -9.878   1.960  -0.697  0.00  0.00    -0.266 OA
ATOM      6  C   UNL     1      -8.499   3.776  -0.571  0.00  0.00    +0.176 A 
ATOM      7  C   UNL     1      -7.213   4.220  -0.462  0.00  0.00    +0.146 A 
ATOM      8  N   UNL     1      -6.210   3.349  -0.384  0.00  0.00    -0.230 NA
ENDROOT
BRANCH   6   9
ATOM      9  S   UNL     1      -9.836   4.920  -0.674  0.00  0.00    +0.032 S 
ATOM     10  O   UNL     1     -10.808   4.495   0.272  0.00  0.00    -0.164 OA
ATOM     11  O   UNL     1      -9.262   6.219  -0.645  0.00  0.00    -0.164 OA
BRANCH   9  12
ATOM     12  C   UNL     1     -10.565   4.727  -2.267  0.00  0.00    +0.094 A 
ATOM     13  C   UNL     1     -10.111   5.484  -3.331  0.00  0.00    +0.027 A 
ATOM     14  C   UNL     1     -10.680   5.329  -4.581  0.00  0.00    +0.006 A 
ATOM     15  C   UNL     1     -11.709   4.425  -4.765  0.00  0.00    -0.042 A 
ATOM     16  C   UNL     1     -12.166   3.671  -3.700  0.00  0.00    +0.006 A 
ATOM     17  C   UNL     1     -11.594   3.822  -2.451  0.00  0.00    +0.027 A 
BRANCH  15  18
ATOM     18  C   UNL     1     -12.333   4.260  -6.127  0.00  0.00    -0.013 C 
ATOM     19  C   UNL     1     -13.823   4.595  -6.050  0.00  0.00    +0.015 C 
ATOM     20  C   UNL     1     -11.649   5.203  -7.119  0.00  0.00    +0.015 C 
ATOM     21  C   UNL     1     -12.159   2.814  -6.596  0.00  0.00    +0.015 C 
ENDBRANCH  15  18
ENDBRANCH   9  12
ENDBRANCH   6   9
BRANCH   1  22
ATOM     22  S   UNL     1      -5.062   0.940  -0.304  0.00  0.00    -0.078 S 
BRANCH  22  23
ATOM     23  C   UNL     1      -3.702   2.128  -0.184  0.00  0.00    +0.173 C 
BRANCH  23  25
ATOM     24  N   UNL     1      -1.237   2.069   0.019  0.00  0.00    -0.285 N 
ATOM     25  C   UNL     1      -2.394   1.385  -0.081  0.00  0.00    +0.227 C 
ATOM     26  O   UNL     1      -2.383   0.173  -0.088  0.00  0.00    -0.275 OA
ATOM     27  H   UNL     1      -1.252   3.166   0.100  0.00  0.00    +0.155 HD
BRANCH  24  32
ATOM     28  C   UNL     1       3.704  -0.717   0.009  0.00  0.00    +0.044 C 
ATOM     29  C   UNL     1       2.392   0.024   0.013  0.00  0.00    -0.050 A 
ATOM     30  C   UNL     1       1.282  -0.542   0.613  0.00  0.00    +0.005 A 
ATOM     31  C   UNL     1       0.078   0.134   0.619  0.00  0.00    +0.024 A 
ATOM     32  C   UNL     1      -0.017   1.384   0.021  0.00  0.00    +0.036 A 
ATOM     33  C   UNL     1       1.099   1.949  -0.581  0.00  0.00    -0.029 A 
ATOM     34  C   UNL     1       2.300   1.267  -0.584  0.00  0.00    +0.008 A 
ATOM     35  C   UNL     1       1.000   3.305  -1.231  0.00  0.00    +0.045 C 
ENDBRANCH  24  32
ENDBRANCH  23  25
ENDBRANCH  22  23
ENDBRANCH   1  22
TORSDOF 7
