REMARK  Name = ZINC40948313
REMARK  11 active torsions:
REMARK  status: ('A' for Active; 'I' for Inactive)
REMARK    1  A    between atoms: C_1  and  C_2
REMARK    2  A    between atoms: C_4  and  O_11
REMARK    3  A    between atoms: C_6  and  C_9
REMARK    4  A    between atoms: O_11  and  C_12
REMARK    5  A    between atoms: C_12  and  C_13
REMARK    6  A    between atoms: C_13  and  C_14
REMARK    7  A    between atoms: C_14  and  C_15
REMARK    8  A    between atoms: N_17  and  C_18
REMARK    9  A    between atoms: C_19  and  C_27
REMARK   10  A    between atoms: C_27  and  O_29
REMARK   11  A    between atoms: O_29  and  C_30
REMARK                            x       y       z     vdW  Elec       q    Type
REMARK                         _______ _______ _______ _____ _____    ______ ____
ROOT
ATOM      1  C   UNL     1       0.006  -2.965  -7.278  0.00  0.00    +0.218 C 
ATOM      2  O   UNL     1       0.023  -4.168  -7.125  0.00  0.00    -0.275 OA
ATOM      3  N   UNL     1      -0.008  -2.444  -8.521  0.00  0.00    -0.279 N 
ATOM      4  H   UNL     1      -0.021  -1.482  -8.643  0.00  0.00    +0.155 HD
ENDROOT
BRANCH   3   5
ATOM      5  C   UNL     1      -0.002  -3.283  -9.624  0.00  0.00    +0.086 A 
ATOM      6  C   UNL     1      -0.008  -2.929 -10.965  0.00  0.00    +0.091 A 
ATOM      7  C   UNL     1       0.001  -4.009 -11.937  0.00  0.00    -0.021 A 
ATOM      8  C   UNL     1       0.013  -5.244 -11.390  0.00  0.00    -0.004 A 
ATOM      9  S   UNL     1       0.021  -4.962  -9.644  0.00  0.00    -0.077 S 
ATOM     10  C   UNL     1       0.023  -6.551 -12.121  0.00  0.00    +0.043 C 
ATOM     11  C   UNL     1      -0.364  -6.288 -13.584  0.00  0.00    +0.005 C 
ATOM     12  C   UNL     1       0.460  -5.110 -14.111  0.00  0.00    +0.005 C 
ATOM     13  C   UNL     1      -0.003  -3.812 -13.445  0.00  0.00    +0.037 C 
BRANCH   6  14
ATOM     14  C   UNL     1      -0.023  -1.526 -11.384  0.00  0.00    +0.342 C 
ATOM     15  O   UNL     1       1.024  -0.932 -11.560  0.00  0.00    -0.245 OA
BRANCH  14  16
ATOM     16  O   UNL     1      -1.198  -0.891 -11.574  0.00  0.00    -0.464 OA
ATOM     17  C   UNL     1      -1.137   0.477 -11.982  0.00  0.00    +0.280 C 
ENDBRANCH  14  16
ENDBRANCH   6  14
ENDBRANCH   3   5
BRANCH   1  18
ATOM     18  C   UNL     1      -0.001  -2.052  -6.079  0.00  0.00    +0.099 C 
BRANCH  18  19
ATOM     19  C   UNL     1       0.017  -2.891  -4.799  0.00  0.00    +0.050 C 
BRANCH  19  20
ATOM     20  C   UNL     1       0.011  -1.965  -3.582  0.00  0.00    +0.229 C 
BRANCH  20  21
ATOM     21  O   UNL     1       0.028  -2.749  -2.387  0.00  0.00    -0.491 OA
BRANCH  21  25
ATOM     22  C   UNL     1      -0.018   1.503   0.010  0.00  0.00    +0.045 C 
ATOM     23  C   UNL     1       0.002  -0.004   0.002  0.00  0.00    -0.028 A 
ATOM     24  C   UNL     1       0.006  -0.688  -1.199  0.00  0.00    +0.051 A 
ATOM     25  C   UNL     1       0.025  -2.074  -1.206  0.00  0.00    +0.135 A 
ATOM     26  C   UNL     1       0.040  -2.773  -0.007  0.00  0.00    +0.064 A 
ATOM     27  C   UNL     1       0.036  -2.085   1.192  0.00  0.00    -0.014 A 
ATOM     28  C   UNL     1       0.023  -0.702   1.196  0.00  0.00    +0.048 A 
ATOM     29 CL   UNL     1       0.025   0.160   2.704  0.00  0.00    -0.083 Cl
ATOM     30  C   UNL     1       0.052  -2.843   2.495  0.00  0.00    +0.046 C 
ATOM     31 BR   UNL     1       0.065  -4.664  -0.013  0.00  0.00    -0.046 Br
ENDBRANCH  21  25
ENDBRANCH  20  21
ENDBRANCH  19  20
ENDBRANCH  18  19
ENDBRANCH   1  18
TORSDOF 8
