REMARK  Name = ZINC46567722
REMARK  10 active torsions:
REMARK  status: ('A' for Active; 'I' for Inactive)
REMARK    1  A    between atoms: C_1  and  C_2
REMARK    2  A    between atoms: C_4  and  C_26
REMARK    3  A    between atoms: C_5  and  C_9
REMARK    4  A    between atoms: C_7  and  C_8
REMARK    5  A    between atoms: C_10  and  C_11
REMARK    6  A    between atoms: N_13  and  C_14
REMARK    7  A    between atoms: C_16  and  S_22
REMARK    8  A    between atoms: C_18  and  C_21
REMARK    9  A    between atoms: C_19  and  C_20
REMARK   10  A    between atoms: S_22  and  N_25
REMARK                            x       y       z     vdW  Elec       q    Type
REMARK                         _______ _______ _______ _____ _____    ______ ____
ROOT
ATOM      1  C   UNL     1       0.090  -6.390   1.135  0.00  0.00    +0.241 C 
ATOM      2  O   UNL     1       0.100  -6.992   0.077  0.00  0.00    -0.270 OA
ATOM      3  N   UNL     1       0.108  -7.070   2.298  0.00  0.00    -0.282 N 
ATOM      4  H   UNL     1       0.181  -6.591   3.139  0.00  0.00    +0.155 HD
ENDROOT
BRANCH   3   5
ATOM      5  C   UNL     1       0.021  -8.465   2.293  0.00  0.00    +0.039 A 
ATOM      6  C   UNL     1      -0.582  -9.122   1.227  0.00  0.00    +0.052 A 
ATOM      7  C   UNL     1      -0.666 -10.500   1.226  0.00  0.00    +0.107 A 
ATOM      8  C   UNL     1      -0.151 -11.227   2.284  0.00  0.00    +0.032 A 
ATOM      9  C   UNL     1       0.449 -10.577   3.346  0.00  0.00    -0.044 A 
ATOM     10  C   UNL     1       0.542  -9.199   3.351  0.00  0.00    -0.026 A 
ATOM     11  C   UNL     1       1.202  -8.492   4.506  0.00  0.00    +0.046 C 
ATOM     12  C   UNL     1       1.008 -11.373   4.497  0.00  0.00    +0.044 C 
BRANCH   7  13
ATOM     13  S   UNL     1      -1.431 -11.333  -0.126  0.00  0.00    +0.056 S 
ATOM     14  O   UNL     1      -1.870 -12.591   0.369  0.00  0.00    -0.153 OA
ATOM     15  O   UNL     1      -2.317 -10.400  -0.729  0.00  0.00    -0.153 OA
BRANCH  13  16
ATOM     16  N   UNL     1      -0.247 -11.649  -1.239  0.00  0.00    -0.204 NA
ATOM     17  H   UNL     1       0.667 -11.376  -1.066  0.00  0.00    +0.144 HD
ATOM     18  H   UNL     1      -0.468 -12.108  -2.065  0.00  0.00    +0.144 HD
ENDBRANCH  13  16
ENDBRANCH   7  13
ENDBRANCH   3   5
BRANCH   1  20
ATOM     19  C   UNL     1       0.042  -4.245  -0.021  0.00  0.00    +0.013 C 
ATOM     20  C   UNL     1       0.059  -4.926   1.143  0.00  0.00    +0.068 C 
BRANCH  19  25
ATOM     21  C   UNL     1      -0.081   1.502   0.012  0.00  0.00    +0.044 C 
ATOM     22  C   UNL     1      -0.049  -0.004   0.004  0.00  0.00    -0.047 A 
ATOM     23  C   UNL     1      -0.037  -0.686  -1.201  0.00  0.00    +0.007 A 
ATOM     24  C   UNL     1      -0.008  -2.064  -1.217  0.00  0.00    -0.043 A 
ATOM     25  C   UNL     1       0.011  -2.774  -0.012  0.00  0.00    -0.022 A 
ATOM     26  C   UNL     1      -0.001  -2.078   1.200  0.00  0.00    +0.011 A 
ATOM     27  C   UNL     1      -0.025  -0.699   1.200  0.00  0.00    -0.047 A 
ATOM     28  C   UNL     1      -0.031   0.053   2.506  0.00  0.00    +0.044 C 
ATOM     29  C   UNL     1       0.004  -2.804  -2.530  0.00  0.00    +0.044 C 
ENDBRANCH  19  25
ENDBRANCH   1  20
TORSDOF 5
