REMARK  Name = ZINC39795927
REMARK  12 active torsions:
REMARK  status: ('A' for Active; 'I' for Inactive)
REMARK    1  A    between atoms: C_1  and  C_2
REMARK    2  A    between atoms: C_4  and  C_33
REMARK    3  A    between atoms: C_8  and  C_12
REMARK    4  A    between atoms: C_12  and  S_13
REMARK    5  A    between atoms: S_13  and  C_14
REMARK    6  A    between atoms: C_14  and  C_16
REMARK    7  A    between atoms: C_14  and  C_17
REMARK    8  A    between atoms: N_19  and  C_20
REMARK    9  A    between atoms: C_23  and  O_30
REMARK   10  A    between atoms: C_24  and  O_26
REMARK   11  A    between atoms: O_26  and  C_27
REMARK   12  A    between atoms: O_30  and  C_31
REMARK                            x       y       z     vdW  Elec       q    Type
REMARK                         _______ _______ _______ _____ _____    ______ ____
ROOT
ATOM      1  C   UNL     1       7.558  -5.059  -0.576  0.00  0.00    +0.130 C 
ATOM      2  C   UNL     1       8.500  -4.104   0.158  0.00  0.00    +0.029 C 
ENDROOT
BRANCH   1   3
ATOM      3  C   UNL     1       8.298  -5.725  -1.707  0.00  0.00    +0.230 C 
ATOM      4  O   UNL     1       8.235  -5.264  -2.828  0.00  0.00    -0.274 OA
ATOM      5  N   UNL     1       9.030  -6.832  -1.474  0.00  0.00    -0.284 N 
ATOM      6  H   UNL     1       9.136  -7.162  -0.568  0.00  0.00    +0.155 HD
BRANCH   5   7
ATOM      7  C   UNL     1       9.639  -7.506  -2.541  0.00  0.00    +0.037 A 
ATOM      8  C   UNL     1      10.141  -6.790  -3.619  0.00  0.00    +0.027 A 
ATOM      9  C   UNL     1      10.742  -7.454  -4.672  0.00  0.00    +0.051 A 
ATOM     10  C   UNL     1      10.845  -8.835  -4.653  0.00  0.00    +0.162 A 
ATOM     11  C   UNL     1      10.344  -9.556  -3.574  0.00  0.00    +0.170 A 
ATOM     12  C   UNL     1       9.746  -8.890  -2.516  0.00  0.00    +0.073 A 
BRANCH  10  13
ATOM     13  O   UNL     1      11.437  -9.487  -5.691  0.00  0.00    -0.491 OA
ATOM     14  C   UNL     1      11.929  -8.684  -6.765  0.00  0.00    +0.277 C 
ENDBRANCH  10  13
BRANCH  11  15
ATOM     15  O   UNL     1      10.445 -10.912  -3.555  0.00  0.00    -0.430 OA
BRANCH  15  16
ATOM     16  C   UNL     1       9.908 -11.586  -2.415  0.00  0.00    +0.541 C 
ATOM     17  F   UNL     1      10.562 -11.145  -1.260  0.00  0.00    -0.166 F 
ATOM     18  F   UNL     1       8.540 -11.310  -2.311  0.00  0.00    -0.166 F 
ENDBRANCH  15  16
ENDBRANCH  11  15
ENDBRANCH   5   7
ENDBRANCH   1   3
BRANCH   1  19
ATOM     19  S   UNL     1       6.149  -4.128  -1.240  0.00  0.00    -0.141 S 
BRANCH  19  20
ATOM     20  C   UNL     1       5.287  -3.524   0.237  0.00  0.00    +0.143 C 
BRANCH  20  27
ATOM     21  C   UNL     1      -0.009   1.533   0.030  0.00  0.00    +0.024 C 
ATOM     22  C   UNL     1       0.012   0.003   0.028  0.00  0.00    +0.076 C 
ATOM     23  C   UNL     1       0.772  -0.526  -1.167  0.00  0.00    -0.045 C 
ATOM     24  C   UNL     1       1.872  -1.257  -0.933  0.00  0.00    +0.071 C 
ATOM     25  C   UNL     1       2.255  -1.489   0.476  0.00  0.00    +0.111 C 
ATOM     26  N   UNL     1       3.320  -2.197   0.769  0.00  0.00    -0.227 NA
ATOM     27  C   UNL     1       4.080  -2.723  -0.178  0.00  0.00    +0.133 C 
ATOM     28  N   UNL     1       3.838  -2.584  -1.460  0.00  0.00    -0.161 NA
ATOM     29  C   UNL     1       2.794  -1.892  -1.928  0.00  0.00    +0.271 C 
ATOM     30  O   UNL     1       2.598  -1.782  -3.127  0.00  0.00    -0.268 OA
ATOM     31  S   UNL     1       1.015  -0.644   1.426  0.00  0.00    -0.098 S 
ATOM     32  C   UNL     1       0.310  -0.242  -2.573  0.00  0.00    +0.041 C 
ENDBRANCH  20  27
ENDBRANCH  19  20
ENDBRANCH   1  19
TORSDOF 8
