REMARK  Name = ZINC62883607
REMARK  10 active torsions:
REMARK  status: ('A' for Active; 'I' for Inactive)
REMARK    1  A    between atoms: C_1  and  C_2
REMARK    2  A    between atoms: C_2  and  N_3
REMARK    3  A    between atoms: N_3  and  C_4
REMARK    4  A    between atoms: N_3  and  C_6
REMARK    5  A    between atoms: C_4  and  C_5
REMARK    6  A    between atoms: C_9  and  C_12
REMARK    7  A    between atoms: C_19  and  O_24
REMARK    8  A    between atoms: C_20  and  C_23
REMARK    9  A    between atoms: O_24  and  C_25
REMARK   10  A    between atoms: C_25  and  C_27
REMARK                            x       y       z     vdW  Elec       q    Type
REMARK                         _______ _______ _______ _____ _____    ______ ____
ROOT
ATOM      1  C   UNL     1       0.802  -6.021   1.146  0.00  0.00    +0.058 C 
ATOM      2  C   UNL     1       1.995  -6.663   1.207  0.00  0.00    +0.176 C 
ATOM      3  C   UNL     1       2.226  -8.095   0.957  0.00  0.00    +0.231 C 
ATOM      4  O   UNL     1       1.403  -8.942   0.656  0.00  0.00    -0.283 OA
ATOM      5  C   UNL     1       3.677  -8.274   1.151  0.00  0.00    +0.068 A 
ATOM      6  C   UNL     1       4.521  -9.382   1.064  0.00  0.00    +0.019 A 
ATOM      7  C   UNL     1       5.858  -9.239   1.306  0.00  0.00    +0.047 A 
ATOM      8  C   UNL     1       6.379  -7.992   1.639  0.00  0.00    +0.138 A 
ATOM      9  C   UNL     1       5.553  -6.884   1.730  0.00  0.00    +0.035 A 
ATOM     10  C   UNL     1       4.191  -7.012   1.486  0.00  0.00    +0.146 A 
ATOM     11  O   UNL     1       3.192  -6.103   1.503  0.00  0.00    -0.451 OA
ATOM     12  C   UNL     1       6.130  -5.540   2.092  0.00  0.00    +0.051 C 
ENDROOT
BRANCH   1  16
ATOM     13  C   UNL     1       0.651  -1.795   1.463  0.00  0.00    +0.013 A 
ATOM     14  C   UNL     1       1.876  -2.437   1.397  0.00  0.00    +0.022 A 
ATOM     15  C   UNL     1       1.934  -3.810   1.294  0.00  0.00    +0.010 A 
ATOM     16  C   UNL     1       0.750  -4.556   1.256  0.00  0.00    -0.021 A 
ATOM     17  C   UNL     1      -0.484  -3.899   1.324  0.00  0.00    +0.010 A 
ATOM     18  C   UNL     1      -0.524  -2.526   1.432  0.00  0.00    +0.022 A 
BRANCH  13  19
ATOM     19  N   UNL     1       0.601  -0.402   1.567  0.00  0.00    -0.394 NA
ATOM     20  H   UNL     1      -0.362  -0.102   1.609  0.00  0.00    +0.126 HD
BRANCH  19  22
ATOM     21  C   UNL     1       0.538  -0.484   4.014  0.00  0.00    +0.022 C 
ATOM     22  C   UNL     1       1.299   0.023   2.788  0.00  0.00    +0.081 C 
ENDBRANCH  19  22
BRANCH  19  23
ATOM     23  C   UNL     1       1.252   0.201   0.396  0.00  0.00    +0.081 C 
ATOM     24  C   UNL     1       0.455  -0.145  -0.864  0.00  0.00    +0.022 C 
ENDBRANCH  19  23
ENDBRANCH  13  19
ENDBRANCH   1  16
BRANCH   8  25
ATOM     25  O   UNL     1       7.710  -7.860   1.878  0.00  0.00    -0.422 OA
BRANCH  25  26
ATOM     26  C   UNL     1       8.481  -7.350   0.898  0.00  0.00    +0.345 C 
ATOM     27  O   UNL     1       7.971  -6.945  -0.128  0.00  0.00    -0.245 OA
BRANCH  26  28
ATOM     28  C   UNL     1       9.944  -7.283   1.070  0.00  0.00    +0.063 A 
ATOM     29  C   UNL     1      10.533  -7.754   2.247  0.00  0.00    +0.019 A 
ATOM     30  C   UNL     1      11.900  -7.691   2.405  0.00  0.00    +0.050 A 
ATOM     31  C   UNL     1      12.697  -7.161   1.399  0.00  0.00    +0.166 A 
ATOM     32  C   UNL     1      12.115  -6.689   0.222  0.00  0.00    +0.167 A 
ATOM     33  C   UNL     1      10.746  -6.754   0.054  0.00  0.00    +0.064 A 
ATOM     34  O   UNL     1      13.104  -6.225  -0.597  0.00  0.00    -0.453 OA
ATOM     35  C   UNL     1      14.251  -6.040   0.254  0.00  0.00    +0.466 C 
ATOM     36  O   UNL     1      14.047  -6.992   1.315  0.00  0.00    -0.453 OA
ENDBRANCH  26  28
ENDBRANCH  25  26
ENDBRANCH   8  25
TORSDOF 7
