REMARK  Name = ZINC06621168
REMARK  7 active torsions:
REMARK  status: ('A' for Active; 'I' for Inactive)
REMARK    1  A    between atoms: C_1  and  C_2
REMARK    2  A    between atoms: C_2  and  O_3
REMARK    3  A    between atoms: O_3  and  C_4
REMARK    4  A    between atoms: C_7  and  C_10
REMARK    5  A    between atoms: N_18  and  C_21
REMARK    6  A    between atoms: C_28  and  N_32
REMARK    7  A    between atoms: C_29  and  C_30
REMARK                            x       y       z     vdW  Elec       q    Type
REMARK                         _______ _______ _______ _____ _____    ______ ____
ROOT
ATOM      1  C   UNL     1       1.144  -6.059   1.764  0.00  0.00    +0.075 C 
ATOM      2  C   UNL     1       0.372  -6.455   3.016  0.00  0.00    +0.110 C 
ATOM      3  C   UNL     1       0.692  -7.889   3.472  0.00  0.00    +0.152 C 
ATOM      4  C   UNL     1       0.006  -8.727   2.436  0.00  0.00    +0.240 C 
ATOM      5  O   UNL     1       0.338  -9.823   2.039  0.00  0.00    -0.274 OA
ATOM      6  N   UNL     1      -1.065  -7.998   2.037  0.00  0.00    -0.209 N 
ATOM      7  C   UNL     1      -1.062  -6.696   2.491  0.00  0.00    +0.232 C 
ATOM      8  O   UNL     1      -1.977  -5.901   2.493  0.00  0.00    -0.274 OA
ATOM      9  S   UNL     1       2.436  -8.210   3.692  0.00  0.00    -0.096 S 
ATOM     10  C   UNL     1       3.236  -7.306   2.411  0.00  0.00    +0.074 C 
ATOM     11  C   UNL     1       2.576  -6.404   1.704  0.00  0.00    +0.064 C 
ENDROOT
BRANCH   1  15
ATOM     12  C   UNL     1       0.802  -1.824   1.306  0.00  0.00    +0.121 A 
ATOM     13  C   UNL     1       0.260  -2.673   0.351  0.00  0.00    +0.046 A 
ATOM     14  C   UNL     1       0.372  -4.041   0.502  0.00  0.00    +0.008 A 
ATOM     15  C   UNL     1       1.024  -4.566   1.603  0.00  0.00    -0.038 A 
ATOM     16  C   UNL     1       1.565  -3.722   2.555  0.00  0.00    +0.008 A 
ATOM     17  C   UNL     1       1.460  -2.353   2.406  0.00  0.00    +0.046 A 
BRANCH  12  18
ATOM     18  O   UNL     1       0.693  -0.477   1.160  0.00  0.00    -0.492 OA
BRANCH  18  20
ATOM     19  C   UNL     1      -0.019   1.526   0.010  0.00  0.00    +0.048 C 
ATOM     20  C   UNL     1       0.002  -0.004   0.002  0.00  0.00    +0.225 C 
ENDBRANCH  18  20
ENDBRANCH  12  18
ENDBRANCH   1  15
BRANCH   6  21
ATOM     21  C   UNL     1      -2.090  -8.518   1.234  0.00  0.00    +0.044 A 
ATOM     22  C   UNL     1      -3.155  -7.712   0.857  0.00  0.00    +0.024 A 
ATOM     23  C   UNL     1      -4.163  -8.227   0.065  0.00  0.00    +0.002 A 
ATOM     24  C   UNL     1      -4.111  -9.544  -0.353  0.00  0.00    +0.000 A 
ATOM     25  C   UNL     1      -3.050 -10.350   0.021  0.00  0.00    +0.002 A 
ATOM     26  C   UNL     1      -2.037  -9.838   0.808  0.00  0.00    +0.024 A 
ENDBRANCH   6  21
BRANCH  10  27
ATOM     27  N   UNL     1       4.566  -7.536   2.150  0.00  0.00    -0.352 N 
ATOM     28  H   UNL     1       5.056  -8.191   2.670  0.00  0.00    +0.143 HD
ATOM     29  H   UNL     1       5.014  -7.042   1.445  0.00  0.00    +0.143 HD
ENDBRANCH  10  27
BRANCH  11  30
ATOM     30  C   UNL     1       3.365  -5.663   0.766  0.00  0.00    +0.098 C 
ATOM     31  N   UNL     1       3.991  -5.075   0.023  0.00  0.00    -0.191 NA
ENDBRANCH  11  30
TORSDOF 6
