REMARK  Name = ZINC12331345
REMARK  8 active torsions:
REMARK  status: ('A' for Active; 'I' for Inactive)
REMARK    1  A    between atoms: C_1  and  C_2
REMARK    2  A    between atoms: C_2  and  O_3
REMARK    3  A    between atoms: O_3  and  C_4
REMARK    4  A    between atoms: C_9  and  N_65
REMARK    5  A    between atoms: C_18  and  C_20
REMARK    6  A    between atoms: N_22  and  C_23
REMARK    7  A    between atoms: C_25  and  C_30
REMARK    8  A    between atoms: C_27  and  C_29
REMARK                            x       y       z     vdW  Elec       q    Type
REMARK                         _______ _______ _______ _____ _____    ______ ____
ROOT
ATOM      1  C   UNL     1      -0.658   1.055  -1.250  0.00  0.00    -0.078 C 
ATOM      2  C   UNL     1       0.118   0.734   0.032  0.00  0.00    -0.011 C 
ATOM      3  C   UNL     1      -0.692   1.228   1.235  0.00  0.00    -0.021 C 
ATOM      4  C   UNL     1      -2.153   0.755   1.258  0.00  0.00    -0.011 C 
ATOM      5  C   UNL     1      -2.794   1.075  -0.097  0.00  0.00    -0.078 C 
ATOM      6  C   UNL     1      -0.384   2.623   1.777  0.00  0.00    +0.020 C 
ATOM      7  C   UNL     1       0.035   1.382   2.570  0.00  0.00    +0.082 C 
ATOM      8  N   UNL     1      -1.997   0.433  -1.165  0.00  0.00    +0.382 N 
ATOM      9  H   UNL     1      -1.887  -0.564  -0.944  0.00  0.00    -0.081 HD
ENDROOT
BRANCH   8  15
ATOM     10  C   UNL     1      -5.952   2.009  -4.502  0.00  0.00    +0.403 C 
ATOM     11  O   UNL     1      -7.001   1.399  -4.441  0.00  0.00    -0.226 OA
ATOM     12  N   UNL     1      -4.799   1.405  -4.152  0.00  0.00    -0.268 N 
ATOM     13  C   UNL     1      -4.795   0.009  -3.694  0.00  0.00    +0.109 C 
ATOM     14  C   UNL     1      -4.086  -0.063  -2.338  0.00  0.00    +0.004 C 
ATOM     15  C   UNL     1      -2.695   0.562  -2.460  0.00  0.00    -0.066 C 
ATOM     16  C   UNL     1      -2.829   2.034  -2.858  0.00  0.00    +0.004 C 
ATOM     17  C   UNL     1      -3.523   2.130  -4.220  0.00  0.00    +0.109 C 
BRANCH  10  18
ATOM     18  O   UNL     1      -5.940   3.289  -4.920  0.00  0.00    -0.451 OA
BRANCH  18  20
ATOM     19  C   UNL     1      -7.007   5.324  -5.728  0.00  0.00    +0.048 C 
ATOM     20  C   UNL     1      -7.219   3.876  -5.282  0.00  0.00    +0.230 C 
ENDBRANCH  18  20
ENDBRANCH  10  18
ENDBRANCH   8  15
BRANCH   7  21
ATOM     21  C   UNL     1      -0.737   1.064   3.824  0.00  0.00    +0.221 C 
ATOM     22  O   UNL     1      -1.892   0.701   3.749  0.00  0.00    -0.275 OA
ATOM     23  N   UNL     1      -0.145   1.183   5.029  0.00  0.00    -0.285 N 
ATOM     24  H   UNL     1       0.799   1.399   5.086  0.00  0.00    +0.155 HD
BRANCH  23  25
ATOM     25  C   UNL     1      -0.891   0.995   6.197  0.00  0.00    +0.034 A 
ATOM     26  C   UNL     1      -0.297   0.433   7.320  0.00  0.00    +0.026 A 
ATOM     27  C   UNL     1      -1.035   0.254   8.473  0.00  0.00    -0.048 A 
ATOM     28  C   UNL     1      -2.368   0.622   8.507  0.00  0.00    +0.006 A 
ATOM     29  C   UNL     1      -2.964   1.176   7.389  0.00  0.00    -0.048 A 
ATOM     30  C   UNL     1      -2.229   1.363   6.235  0.00  0.00    +0.026 A 
ATOM     31  C   UNL     1      -4.416   1.576   7.431  0.00  0.00    +0.044 C 
ATOM     32  C   UNL     1      -0.390  -0.350   9.694  0.00  0.00    +0.044 C 
ENDBRANCH  23  25
ENDBRANCH   7  21
TORSDOF 5
