REMARK  Name = ZINC53126544
REMARK  7 active torsions:
REMARK  status: ('A' for Active; 'I' for Inactive)
REMARK    1  A    between atoms: C_1  and  C_2
REMARK    2  A    between atoms: C_7  and  C_9
REMARK    3  A    between atoms: C_7  and  N_11
REMARK    4  A    between atoms: C_9  and  O_10
REMARK    5  A    between atoms: N_11  and  C_12
REMARK    6  A    between atoms: C_12  and  C_13
REMARK    7  A    between atoms: N_15  and  C_16
REMARK                            x       y       z     vdW  Elec       q    Type
REMARK                         _______ _______ _______ _____ _____    ______ ____
ROOT
ATOM      1  N   UNL     1       1.705  -2.536  -0.183  0.00  0.00    +0.390 N 
ATOM      2  H   UNL     1       1.707  -3.543  -0.135  0.00  0.00    -0.084 HD
ATOM      3  H   UNL     1       1.208  -2.239  -1.010  0.00  0.00    -0.084 HD
ENDROOT
BRANCH   1   9
ATOM      4  C   UNL     1      -0.003   1.397  -0.495  0.00  0.00    +0.007 C 
ATOM      5  C   UNL     1       0.109  -0.123  -0.365  0.00  0.00    -0.015 C 
ATOM      6  C   UNL     1      -1.290  -0.729  -0.235  0.00  0.00    +0.003 C 
ATOM      7  C   UNL     1      -1.178  -2.249  -0.104  0.00  0.00    -0.001 C 
ATOM      8  C   UNL     1      -0.355  -2.595   1.139  0.00  0.00    -0.010 C 
ATOM      9  C   UNL     1       1.044  -1.989   1.009  0.00  0.00    -0.044 C 
ATOM     10  C   UNL     1       0.931  -0.469   0.878  0.00  0.00    -0.007 C 
BRANCH   9  11
ATOM     11  C   UNL     1       1.866  -2.335   2.252  0.00  0.00    +0.143 C 
BRANCH  11  12
ATOM     12  O   UNL     1       1.983  -3.755   2.366  0.00  0.00    -0.396 OA
ATOM     13  H   UNL     1       2.494  -4.047   3.134  0.00  0.00    +0.209 HD
ENDBRANCH  11  12
ENDBRANCH   9  11
ENDBRANCH   1   9
BRANCH   1  14
ATOM     14  C   UNL     1       3.089  -2.046  -0.243  0.00  0.00    +0.016 C 
BRANCH  14  15
ATOM     15  C   UNL     1       3.729  -2.505  -1.528  0.00  0.00    +0.200 C 
ATOM     16  O   UNL     1       3.094  -3.174  -2.317  0.00  0.00    -0.278 OA
ATOM     17  N   UNL     1       5.006  -2.172  -1.802  0.00  0.00    -0.286 N 
ATOM     18  H   UNL     1       5.493  -1.586  -1.202  0.00  0.00    +0.155 HD
BRANCH  17  19
ATOM     19  C   UNL     1       5.629  -2.672  -2.951  0.00  0.00    +0.047 A 
ATOM     20  C   UNL     1       4.893  -2.864  -4.113  0.00  0.00    +0.024 A 
ATOM     21  C   UNL     1       5.511  -3.357  -5.246  0.00  0.00    +0.002 A 
ATOM     22  C   UNL     1       6.860  -3.659  -5.224  0.00  0.00    +0.001 A 
ATOM     23  C   UNL     1       7.596  -3.469  -4.069  0.00  0.00    +0.017 A 
ATOM     24  C   UNL     1       6.985  -2.970  -2.934  0.00  0.00    +0.039 A 
ATOM     25 BR   UNL     1       7.994  -2.703  -1.357  0.00  0.00    -0.048 Br
ENDBRANCH  17  19
ENDBRANCH  14  15
ENDBRANCH   1  14
TORSDOF 6
