REMARK  Name = ZINC39709981
REMARK  5 active torsions:
REMARK  status: ('A' for Active; 'I' for Inactive)
REMARK    1  A    between atoms: C_3  and  C_10
REMARK    2  A    between atoms: C_5  and  N_7
REMARK    3  A    between atoms: C_11  and  C_21
REMARK    4  A    between atoms: C_12  and  N_20
REMARK    5  A    between atoms: C_16  and  C_18
REMARK                            x       y       z     vdW  Elec       q    Type
REMARK                         _______ _______ _______ _____ _____    ______ ____
ROOT
ATOM      1  C   UNL     1       3.650   2.152  -0.022  0.00  0.00    +0.003 C 
ATOM      2  C   UNL     1       4.538   2.079   1.037  0.00  0.00    +0.096 C 
ATOM      3  C   UNL     1       5.789   2.840   0.991  0.00  0.00    +0.143 C 
ATOM      4  N   UNL     1       6.124   3.607  -0.026  0.00  0.00    -0.193 NA
ATOM      5  C   UNL     1       5.361   3.763  -1.103  0.00  0.00    +0.097 C 
ATOM      6  S   UNL     1       5.872   4.780  -2.381  0.00  0.00    -0.036 S 
ATOM      7  C   UNL     1       4.041   3.030  -1.193  0.00  0.00    +0.177 C 
ENDROOT
BRANCH   1  10
ATOM      8  C   UNL     1      -0.017   1.380   0.010  0.00  0.00    +0.003 A 
ATOM      9  C   UNL     1       1.165   2.090   0.002  0.00  0.00    +0.008 A 
ATOM     10  C   UNL     1       2.388   1.406  -0.013  0.00  0.00    -0.017 A 
ATOM     11  C   UNL     1       2.397   0.004  -0.021  0.00  0.00    +0.041 A 
ATOM     12  C   UNL     1       1.206  -0.688  -0.013  0.00  0.00    +0.127 A 
ATOM     13  C   UNL     1       0.002  -0.004   0.002  0.00  0.00    +0.033 A 
BRANCH  12  14
ATOM     14  N   UNL     1       1.213  -2.169  -0.021  0.00  0.00    +0.056 N 
ATOM     15  O   UNL     1       2.263  -2.768  -0.034  0.00  0.00    -0.126 OA
ATOM     16  O   UNL     1       0.169  -2.778  -0.014  0.00  0.00    -0.126 OA
ENDBRANCH  12  14
ENDBRANCH   1  10
BRANCH   7  17
ATOM     17  C   UNL     1       4.069   2.188  -2.400  0.00  0.00    +0.077 C 
ATOM     18  N   UNL     1       4.090   1.538  -3.331  0.00  0.00    -0.196 NA
ENDBRANCH   7  17
BRANCH   3  19
ATOM     19  N   UNL     1       6.649   2.750   2.052  0.00  0.00    -0.250 NA
ATOM     20  H   UNL     1       7.484   3.244   2.044  0.00  0.00    +0.171 HD
ENDBRANCH   3  19
BRANCH   2  21
ATOM     21  C   UNL     1       4.234   1.264   2.174  0.00  0.00    +0.103 C 
ATOM     22  N   UNL     1       3.994   0.617   3.076  0.00  0.00    -0.191 NA
ENDBRANCH   2  21
TORSDOF 5
