REMARK  Name = ZINC63386843
REMARK  14 active torsions:
REMARK  status: ('A' for Active; 'I' for Inactive)
REMARK    1  A    between atoms: C_1  and  C_2
REMARK    2  A    between atoms: C_2  and  C_4
REMARK    3  A    between atoms: C_2  and  N_32
REMARK    4  A    between atoms: C_7  and  S_9
REMARK    5  A    between atoms: S_9  and  C_10
REMARK    6  A    between atoms: C_10  and  C_11
REMARK    7  A    between atoms: C_26  and  C_28
REMARK    8  A    between atoms: C_28  and  O_30
REMARK    9  A    between atoms: O_30  and  C_31
REMARK   10  A    between atoms: C_33  and  O_35
REMARK   11  A    between atoms: O_35  and  C_36
REMARK   12  A    between atoms: C_36  and  C_37
REMARK   13  A    between atoms: C_36  and  C_38
REMARK   14  A    between atoms: C_36  and  C_39
REMARK                            x       y       z     vdW  Elec       q    Type
REMARK                         _______ _______ _______ _____ _____    ______ ____
ROOT
ATOM      1  C   UNL     1       4.600  -2.805   5.621  0.00  0.00    +0.227 C 
ATOM      2  O   UNL     1       5.580  -3.090   4.966  0.00  0.00    -0.275 OA
ATOM      3  N   UNL     1       4.592  -3.025   6.951  0.00  0.00    -0.285 N 
ATOM      4  C   UNL     1       3.397  -2.682   7.739  0.00  0.00    +0.137 C 
ATOM      5  C   UNL     1       2.891  -3.965   8.407  0.00  0.00    +0.124 C 
ATOM      6  C   UNL     1       4.099  -4.618   9.067  0.00  0.00    -0.035 C 
ATOM      7  C   UNL     1       3.788  -4.771  10.349  0.00  0.00    -0.001 A 
ATOM      8  C   UNL     1       4.515  -5.398  11.464  0.00  0.00    +0.010 A 
ATOM      9  C   UNL     1       3.897  -5.370  12.674  0.00  0.00    +0.001 A 
ATOM     10  C   UNL     1       2.643  -4.787  12.884  0.00  0.00    +0.002 A 
ATOM     11  C   UNL     1       1.902  -4.193  11.915  0.00  0.00    +0.026 A 
ATOM     12  C   UNL     1       2.445  -4.164  10.598  0.00  0.00    +0.043 A 
ATOM     13  N   UNL     1       1.935  -3.680   9.479  0.00  0.00    -0.376 N 
ATOM     14  C   UNL     1       5.375  -4.908   8.315  0.00  0.00    +0.067 C 
ATOM     15  C   UNL     1       5.771  -3.610   7.598  0.00  0.00    +0.189 C 
ATOM     16  H   UNL     1       1.090  -3.215   9.377  0.00  0.00    +0.160 HD
ENDROOT
BRANCH  15  17
ATOM     17  C   UNL     1       6.328  -2.635   8.602  0.00  0.00    +0.328 C 
ATOM     18  O   UNL     1       5.633  -1.744   9.031  0.00  0.00    -0.249 OA
BRANCH  17  19
ATOM     19  O   UNL     1       7.598  -2.755   9.022  0.00  0.00    -0.467 OA
ATOM     20  C   UNL     1       8.060  -1.796   9.975  0.00  0.00    +0.280 C 
ENDBRANCH  17  19
ENDBRANCH  15  17
BRANCH   1  21
ATOM     21  C   UNL     1       3.393  -2.204   4.949  0.00  0.00    +0.175 C 
BRANCH  21  22
ATOM     22  S   UNL     1       3.712  -2.034   3.172  0.00  0.00    -0.056 S 
BRANCH  22  26
ATOM     23  C   UNL     1       0.731  -0.503   1.223  0.00  0.00    +0.238 A 
ATOM     24  N   UNL     1       0.270  -0.521   2.439  0.00  0.00    -0.110 NA
ATOM     25  N   UNL     1       1.159  -1.013   3.229  0.00  0.00    -0.101 NA
ATOM     26  C   UNL     1       2.227  -1.328   2.538  0.00  0.00    +0.278 A 
ATOM     27  O   UNL     1       1.976  -1.017   1.252  0.00  0.00    -0.414 OA
BRANCH  23  29
ATOM     28  C   UNL     1      -0.019   1.526   0.010  0.00  0.00    +0.038 C 
ATOM     29  C   UNL     1       0.002  -0.004   0.002  0.00  0.00    +0.161 C 
BRANCH  29  30
ATOM     30  N   UNL     1      -1.372  -0.511   0.012  0.00  0.00    -0.270 N 
ATOM     31  C   UNL     1      -2.051  -0.643  -1.145  0.00  0.00    +0.401 C 
ATOM     32  O   UNL     1      -1.523  -0.341  -2.196  0.00  0.00    -0.226 OA
ATOM     33  H   UNL     1      -1.794  -0.752   0.852  0.00  0.00    +0.153 HD
BRANCH  31  34
ATOM     34  O   UNL     1      -3.314  -1.109  -1.135  0.00  0.00    -0.445 OA
BRANCH  34  35
ATOM     35  C   UNL     1      -3.973  -1.222  -2.398  0.00  0.00    +0.107 C 
ATOM     36  C   UNL     1      -3.189  -2.179  -3.298  0.00  0.00    +0.055 C 
ATOM     37  C   UNL     1      -5.388  -1.765  -2.188  0.00  0.00    +0.055 C 
ATOM     38  C   UNL     1      -4.048   0.155  -3.060  0.00  0.00    +0.055 C 
ENDBRANCH  34  35
ENDBRANCH  31  34
ENDBRANCH  29  30
ENDBRANCH  23  29
ENDBRANCH  22  26
ENDBRANCH  21  22
ENDBRANCH   1  21
TORSDOF 9
