REMARK  Name = ZINC38582588
REMARK  7 active torsions:
REMARK  status: ('A' for Active; 'I' for Inactive)
REMARK    1  A    between atoms: C_1  and  C_2
REMARK    2  A    between atoms: C_2  and  C_33
REMARK    3  A    between atoms: C_3  and  N_20
REMARK    4  A    between atoms: N_5  and  N_9
REMARK    5  A    between atoms: C_10  and  C_11
REMARK    6  A    between atoms: N_20  and  O_32
REMARK    7  A    between atoms: N_23  and  C_24
REMARK                            x       y       z     vdW  Elec       q    Type
REMARK                         _______ _______ _______ _____ _____    ______ ____
ROOT
ATOM      1  C   UNL     1       0.106   0.234  -0.763  0.00  0.00    +0.026 C 
ATOM      2  C   UNL     1       0.632  -1.166  -0.442  0.00  0.00    +0.056 C 
ATOM      3  C   UNL     1       1.913  -1.492  -1.254  0.00  0.00    +0.232 C 
ATOM      4  N   UNL     1       2.861  -2.255  -0.462  0.00  0.00    -0.187 N 
ATOM      5  C   UNL     1       2.778  -2.243   0.883  0.00  0.00    +0.132 C 
ATOM      6  S   UNL     1       3.825  -3.016   1.996  0.00  0.00    -0.026 S 
ATOM      7  S   UNL     1       1.343  -1.248   1.256  0.00  0.00    -0.091 S 
ATOM      8  C   UNL     1      -0.450  -2.228  -0.649  0.00  0.00    +0.026 C 
ENDROOT
BRANCH   3   9
ATOM      9  N   UNL     1       2.545  -0.240  -1.678  0.00  0.00    -0.143 N 
ATOM     10  C   UNL     1       2.951  -0.088  -2.954  0.00  0.00    +0.331 C 
ATOM     11  O   UNL     1       2.710  -0.951  -3.775  0.00  0.00    -0.250 OA
ATOM     12  N   UNL     1       3.627   1.020  -3.318  0.00  0.00    -0.268 N 
ATOM     13  H   UNL     1       3.903   1.662  -2.647  0.00  0.00    +0.156 HD
BRANCH  12  14
ATOM     14  C   UNL     1       3.928   1.243  -4.667  0.00  0.00    +0.036 A 
ATOM     15  C   UNL     1       3.047   0.824  -5.655  0.00  0.00    +0.025 A 
ATOM     16  C   UNL     1       3.346   1.046  -6.985  0.00  0.00    +0.023 A 
ATOM     17  C   UNL     1       4.523   1.684  -7.334  0.00  0.00    +0.059 A 
ATOM     18  C   UNL     1       5.404   2.103  -6.351  0.00  0.00    +0.061 A 
ATOM     19  C   UNL     1       5.106   1.889  -5.018  0.00  0.00    +0.044 A 
ATOM     20 CL   UNL     1       6.880   2.904  -6.792  0.00  0.00    -0.082 Cl
ATOM     21 CL   UNL     1       4.897   1.960  -9.007  0.00  0.00    -0.082 Cl
ENDBRANCH  12  14
BRANCH   9  22
ATOM     22  O   UNL     1       2.727   0.812  -0.747  0.00  0.00    -0.289 OA
ATOM     23  H   UNL     1       3.083   1.623  -1.134  0.00  0.00    +0.242 HD
ENDBRANCH   9  22
ENDBRANCH   3   9
BRANCH   4  24
ATOM     24  N   UNL     1       3.862  -3.003  -1.095  0.00  0.00    -0.185 NA
ATOM     25  C   UNL     1       3.536  -3.988  -1.897  0.00  0.00    +0.136 C 
BRANCH  25  26
ATOM     26  C   UNL     1       4.529  -4.666  -2.613  0.00  0.00    +0.000 C 
ATOM     27  C   UNL     1       4.353  -5.723  -3.505  0.00  0.00    +0.004 A 
ATOM     28  C   UNL     1       3.205  -6.413  -3.951  0.00  0.00    +0.010 A 
ATOM     29  C   UNL     1       3.334  -7.427  -4.844  0.00  0.00    +0.001 A 
ATOM     30  C   UNL     1       4.582  -7.812  -5.340  0.00  0.00    +0.002 A 
ATOM     31  C   UNL     1       5.726  -7.194  -4.956  0.00  0.00    +0.026 A 
ATOM     32  C   UNL     1       5.672  -6.124  -4.024  0.00  0.00    +0.043 A 
ATOM     33  N   UNL     1       6.620  -5.376  -3.501  0.00  0.00    -0.380 N 
ATOM     34  C   UNL     1       6.019  -4.400  -2.587  0.00  0.00    +0.150 C 
ATOM     35  H   UNL     1       7.568  -5.455  -3.693  0.00  0.00    +0.160 HD
ENDBRANCH  25  26
ENDBRANCH   4  24
TORSDOF 5
