REMARK  Name = ZINC45842142
REMARK  7 active torsions:
REMARK  status: ('A' for Active; 'I' for Inactive)
REMARK    1  A    between atoms: C_1  and  C_2
REMARK    2  A    between atoms: C_4  and  C_30
REMARK    3  A    between atoms: C_7  and  C_12
REMARK    4  A    between atoms: N_14  and  C_15
REMARK    5  A    between atoms: C_15  and  C_17
REMARK    6  A    between atoms: C_15  and  C_24
REMARK    7  A    between atoms: N_28  and  C_29
REMARK                            x       y       z     vdW  Elec       q    Type
REMARK                         _______ _______ _______ _____ _____    ______ ____
ROOT
ATOM      1  C   UNL     1       0.088  -5.558   2.350  0.00  0.00    +0.261 C 
ATOM      2  O   UNL     1       0.099  -6.611   1.742  0.00  0.00    -0.269 OA
ATOM      3  N   UNL     1       0.095  -5.558   3.698  0.00  0.00    -0.296 N 
ATOM      4  H   UNL     1       0.086  -4.718   4.183  0.00  0.00    +0.150 HD
ENDROOT
BRANCH   1  11
ATOM      5  C   UNL     1      -0.018   1.503   0.010  0.00  0.00    +0.044 C 
ATOM      6  C   UNL     1       0.002  -0.004   0.002  0.00  0.00    -0.048 A 
ATOM      7  C   UNL     1       0.006  -0.685  -1.209  0.00  0.00    +0.007 A 
ATOM      8  C   UNL     1       0.024  -2.049  -1.239  0.00  0.00    -0.041 A 
ATOM      9  C   UNL     1       0.040  -2.772  -0.039  0.00  0.00    +0.003 A 
ATOM     10  C   UNL     1       0.060  -4.156   0.263  0.00  0.00    +0.041 A 
ATOM     11  C   UNL     1       0.068  -4.284   1.615  0.00  0.00    +0.103 A 
ATOM     12  N   UNL     1       0.053  -3.028   2.189  0.00  0.00    -0.351 N 
ATOM     13  H   UNL     1       0.056  -2.842   3.142  0.00  0.00    +0.166 HD
ATOM     14  C   UNL     1       0.036  -2.084   1.190  0.00  0.00    +0.048 A 
ATOM     15  C   UNL     1       0.023  -0.692   1.194  0.00  0.00    +0.029 A 
ATOM     16  C   UNL     1       0.027  -2.776  -2.559  0.00  0.00    +0.044 C 
ENDBRANCH   1  11
BRANCH   3  17
ATOM     17  C   UNL     1       0.115  -6.826   4.430  0.00  0.00    +0.170 C 
BRANCH  17  18
ATOM     18  C   UNL     1       0.719  -6.610   5.794  0.00  0.00    -0.020 A 
ATOM     19  C   UNL     1       0.410  -5.471   6.513  0.00  0.00    +0.007 A 
ATOM     20  C   UNL     1       0.964  -5.271   7.764  0.00  0.00    +0.020 A 
ATOM     21  C   UNL     1       1.828  -6.212   8.296  0.00  0.00    +0.041 A 
ATOM     22  C   UNL     1       2.137  -7.352   7.575  0.00  0.00    +0.020 A 
ATOM     23  C   UNL     1       1.578  -7.553   6.327  0.00  0.00    +0.007 A 
ATOM     24 CL   UNL     1       2.524  -5.962   9.866  0.00  0.00    -0.084 Cl
ENDBRANCH  17  18
BRANCH  17  25
ATOM     25  C   UNL     1      -1.293  -7.342   4.581  0.00  0.00    +0.134 A 
ATOM     26  N   UNL     1      -2.331  -6.630   4.928  0.00  0.00    -0.238 NA
ATOM     27  C   UNL     1      -3.416  -7.418   4.959  0.00  0.00    +0.130 A 
ATOM     28  C   UNL     1      -3.037  -8.664   4.619  0.00  0.00    +0.106 A 
ATOM     29  N   UNL     1      -1.691  -8.616   4.374  0.00  0.00    -0.336 N 
ATOM     30  C   UNL     1      -0.841  -9.737   3.966  0.00  0.00    +0.150 C 
ENDBRANCH  17  25
ENDBRANCH   3  17
TORSDOF 4
