REMARK  Name = ZINC05444317
REMARK  10 active torsions:
REMARK  status: ('A' for Active; 'I' for Inactive)
REMARK    1  A    between atoms: C_1  and  C_2
REMARK    2  A    between atoms: C_2  and  N_56
REMARK    3  A    between atoms: C_3  and  C_4
REMARK    4  A    between atoms: C_3  and  N_56
REMARK    5  A    between atoms: C_5  and  C_6
REMARK    6  A    between atoms: C_5  and  N_56
REMARK    7  A    between atoms: C_12  and  O_30
REMARK    8  A    between atoms: C_13  and  O_17
REMARK    9  A    between atoms: O_17  and  C_18
REMARK   10  A    between atoms: C_21  and  C_24
REMARK                            x       y       z     vdW  Elec       q    Type
REMARK                         _______ _______ _______ _____ _____    ______ ____
ROOT
ATOM      1  C   UNL     1      -5.156   7.621   0.119  0.00  0.00    +0.026 A 
ATOM      2  C   UNL     1      -5.370   9.001   0.083  0.00  0.00    +0.184 A 
ATOM      3  O   UNL     1      -6.615   9.479   0.099  0.00  0.00    -0.288 OA
ATOM      4  C   UNL     1      -4.279   9.889   0.030  0.00  0.00    +0.052 A 
ATOM      5  C   UNL     1      -3.008   9.414   0.013  0.00  0.00    +0.019 A 
ATOM      6  C   UNL     1      -2.776   8.028   0.049  0.00  0.00    +0.063 A 
ATOM      7  C   UNL     1      -1.463   7.510   0.038  0.00  0.00    +0.173 A 
ATOM      8  C   UNL     1      -1.301   6.113   0.071  0.00  0.00    +0.205 A 
ATOM      9  C   UNL     1      -2.391   5.306   0.122  0.00  0.00    +0.245 A 
ATOM     10  O   UNL     1      -3.635   5.799   0.137  0.00  0.00    -0.459 OA
ATOM     11  C   UNL     1      -3.865   7.127   0.102  0.00  0.00    +0.143 A 
ENDROOT
BRANCH   7  12
ATOM     12  O   UNL     1      -0.393   8.332  -0.007  0.00  0.00    -0.503 OA
ATOM     13  H   UNL     1      -0.100   8.548  -0.903  0.00  0.00    +0.292 HD
ENDBRANCH   7  12
BRANCH   1  14
ATOM     14  C   UNL     1      -6.327   6.674   0.177  0.00  0.00    -0.035 C 
BRANCH  14  15
ATOM     15  N   UNL     1      -6.650   6.400   1.593  0.00  0.00    +0.382 N 
ATOM     16  H   UNL     1      -5.794   6.107   2.079  0.00  0.00    -0.081 HD
BRANCH  15  18
ATOM     17  C   UNL     1      -8.503   8.037   1.602  0.00  0.00    -0.017 C 
ATOM     18  C   UNL     1      -7.174   7.623   2.237  0.00  0.00    -0.082 C 
ENDBRANCH  15  18
BRANCH  15  19
ATOM     19  C   UNL     1      -7.649   5.315   1.683  0.00  0.00    -0.082 C 
ATOM     20  C   UNL     1      -7.705   4.816   3.128  0.00  0.00    -0.017 C 
ENDBRANCH  15  19
ENDBRANCH  14  15
ENDBRANCH   1  14
BRANCH   8  21
ATOM     21  O   UNL     1      -0.052   5.572   0.058  0.00  0.00    -0.449 OA
BRANCH  21  22
ATOM     22  C   UNL     1       0.594   5.430   1.244  0.00  0.00    +0.129 A 
ATOM     23  C   UNL     1       1.824   4.787   1.291  0.00  0.00    +0.047 A 
ATOM     24  C   UNL     1       2.482   4.641   2.494  0.00  0.00    +0.012 A 
ATOM     25  C   UNL     1       1.912   5.141   3.664  0.00  0.00    -0.018 A 
ATOM     26  C   UNL     1       0.675   5.781   3.615  0.00  0.00    +0.012 A 
ATOM     27  C   UNL     1       0.024   5.929   2.408  0.00  0.00    +0.047 A 
BRANCH  25  28
ATOM     28  C   UNL     1       2.618   4.986   4.959  0.00  0.00    -0.018 A 
ATOM     29  C   UNL     1       3.849   4.336   5.011  0.00  0.00    +0.008 A 
ATOM     30  C   UNL     1       4.504   4.199   6.219  0.00  0.00    +0.001 A 
ATOM     31  C   UNL     1       3.935   4.697   7.377  0.00  0.00    +0.000 A 
ATOM     32  C   UNL     1       2.710   5.338   7.332  0.00  0.00    +0.001 A 
ATOM     33  C   UNL     1       2.049   5.485   6.130  0.00  0.00    +0.008 A 
ENDBRANCH  25  28
ENDBRANCH  21  22
ENDBRANCH   8  21
TORSDOF 8
