REMARK  Name = ZINC32735211
REMARK  17 active torsions:
REMARK  status: ('A' for Active; 'I' for Inactive)
REMARK    1  A    between atoms: C_1  and  C_2
REMARK    2  A    between atoms: C_2  and  C_3
REMARK    3  A    between atoms: C_6  and  C_9
REMARK    4  A    between atoms: C_9  and  C_11
REMARK    5  A    between atoms: C_9  and  N_31
REMARK    6  A    between atoms: C_11  and  N_12
REMARK    7  A    between atoms: C_13  and  C_15
REMARK    8  A    between atoms: C_17  and  S_23
REMARK    9  A    between atoms: C_20  and  O_21
REMARK   10  A    between atoms: O_21  and  C_22
REMARK   11  A    between atoms: S_23  and  N_26
REMARK   12  A    between atoms: N_26  and  C_27
REMARK   13  A    between atoms: N_26  and  C_29
REMARK   14  A    between atoms: C_27  and  C_28
REMARK   15  A    between atoms: C_29  and  C_30
REMARK   16  A    between atoms: N_31  and  C_32
REMARK   17  A    between atoms: N_31  and  C_33
REMARK                            x       y       z     vdW  Elec       q    Type
REMARK                         _______ _______ _______ _____ _____    ______ ____
ROOT
ATOM      1  N   UNL     1      -3.483  -0.992   3.366  0.00  0.00    -0.312 N 
ATOM      2  C   UNL     1      -3.175   0.191   3.933  0.00  0.00    +0.248 C 
ATOM      3  O   UNL     1      -3.908   0.671   4.775  0.00  0.00    -0.270 OA
ATOM      4  H   UNL     1      -2.819  -1.426   2.604  0.00  0.00    +0.149 HD
ENDROOT
BRANCH   2   5
ATOM      5  C   UNL     1      -1.947   0.904   3.531  0.00  0.00    +0.080 A 
ATOM      6  C   UNL     1      -1.102   0.357   2.563  0.00  0.00    +0.045 A 
ATOM      7  C   UNL     1       0.043   1.028   2.192  0.00  0.00    +0.106 A 
ATOM      8  C   UNL     1       0.362   2.242   2.777  0.00  0.00    +0.032 A 
ATOM      9  C   UNL     1      -0.467   2.797   3.731  0.00  0.00    +0.048 A 
ATOM     10  C   UNL     1      -1.623   2.135   4.117  0.00  0.00    +0.132 A 
BRANCH   7  11
ATOM     11  S   UNL     1       1.109   0.335   0.971  0.00  0.00    +0.061 S 
ATOM     12  O   UNL     1       0.876  -1.067   0.977  0.00  0.00    -0.153 OA
ATOM     13  O   UNL     1       2.397   0.894   1.192  0.00  0.00    -0.153 OA
BRANCH  11  14
ATOM     14  N   UNL     1       0.597   0.894  -0.501  0.00  0.00    -0.177 NA
BRANCH  14  15
ATOM     15  C   UNL     1       1.145   2.140  -1.042  0.00  0.00    +0.106 C 
ATOM     16  C   UNL     1       2.311   1.820  -1.979  0.00  0.00    +0.022 C 
ENDBRANCH  14  15
BRANCH  14  17
ATOM     17  C   UNL     1      -0.405   0.143  -1.262  0.00  0.00    +0.106 C 
ATOM     18  C   UNL     1      -1.796   0.709  -0.972  0.00  0.00    +0.022 C 
ENDBRANCH  14  17
ENDBRANCH  11  14
ENDBRANCH   7  11
BRANCH  10  19
ATOM     19  O   UNL     1      -2.437   2.677   5.057  0.00  0.00    -0.494 OA
ATOM     20  C   UNL     1      -2.042   3.935   5.610  0.00  0.00    +0.277 C 
ENDBRANCH  10  19
ENDBRANCH   2   5
BRANCH   1  21
ATOM     21  C   UNL     1      -4.702  -1.700   3.765  0.00  0.00    +0.094 C 
BRANCH  21  22
ATOM     22  C   UNL     1      -4.903  -2.918   2.861  0.00  0.00    -0.021 C 
BRANCH  22  26
ATOM     23  C   UNL     1      -8.345  -5.095   4.153  0.00  0.00    -0.048 A 
ATOM     24  C   UNL     1      -7.079  -5.573   4.434  0.00  0.00    +0.004 A 
ATOM     25  C   UNL     1      -5.965  -4.869   4.016  0.00  0.00    +0.002 A 
ATOM     26  C   UNL     1      -6.117  -3.686   3.317  0.00  0.00    -0.059 A 
ATOM     27  C   UNL     1      -7.383  -3.205   3.040  0.00  0.00    +0.002 A 
ATOM     28  C   UNL     1      -8.497  -3.912   3.454  0.00  0.00    +0.004 A 
BRANCH  23  30
ATOM     29  C   UNL     1      -9.968  -5.387   6.005  0.00  0.00    +0.009 C 
ATOM     30  C   UNL     1      -9.559  -5.862   4.609  0.00  0.00    +0.032 C 
ENDBRANCH  23  30
ENDBRANCH  22  26
BRANCH  22  31
ATOM     31  N   UNL     1      -5.097  -2.472   1.475  0.00  0.00    +0.382 N 
ATOM     32  C   UNL     1      -5.674  -1.122   1.433  0.00  0.00    -0.096 C 
ATOM     33  C   UNL     1      -3.838  -2.531   0.722  0.00  0.00    -0.096 C 
ATOM     34  H   UNL     1      -5.810  -3.159   0.996  0.00  0.00    -0.082 HD
ENDBRANCH  22  31
ENDBRANCH  21  22
ENDBRANCH   1  21
TORSDOF 11
