REMARK  Name = ZINC10386592
REMARK  4 active torsions:
REMARK  status: ('A' for Active; 'I' for Inactive)
REMARK    1  A    between atoms: C_4  and  O_28
REMARK    2  A    between atoms: C_5  and  C_7
REMARK    3  A    between atoms: N_22  and  C_25
REMARK    4  A    between atoms: C_25  and  C_26
REMARK                            x       y       z     vdW  Elec       q    Type
REMARK                         _______ _______ _______ _____ _____    ______ ____
ROOT
ATOM      1  C   UNL     1      -0.685  -0.545  -1.243  0.00  0.00    +0.078 C 
ATOM      2  C   UNL     1      -2.148  -0.256  -1.235  0.00  0.00    +0.033 A 
ATOM      3  C   UNL     1      -2.950   0.068  -0.200  0.00  0.00    +0.087 A 
ATOM      4  N   UNL     1      -4.276   0.272  -0.503  0.00  0.00    -0.311 N 
ATOM      5  H   UNL     1      -4.902   0.502   0.202  0.00  0.00    +0.170 HD
ATOM      6  C   UNL     1      -4.709   0.156  -1.774  0.00  0.00    +0.289 A 
ATOM      7  O   UNL     1      -5.836   0.305  -2.214  0.00  0.00    -0.260 OA
ATOM      8  S   UNL     1      -3.255  -0.260  -2.624  0.00  0.00    -0.030 S 
ATOM      9  S   UNL     1      -2.290   0.217   1.448  0.00  0.00    -0.106 S 
ATOM     10  C   UNL     1      -0.650  -0.551   1.271  0.00  0.00    +0.093 C 
ATOM     11  C   UNL     1       0.002  -0.004   0.002  0.00  0.00    +0.076 C 
ATOM     12  C   UNL     1       1.499  -0.355  -0.015  0.00  0.00    +0.114 C 
ATOM     13  C   UNL     1       2.177   0.999  -0.013  0.00  0.00    +0.223 C 
ATOM     14  O   UNL     1       3.375   1.185  -0.024  0.00  0.00    -0.275 OA
ATOM     15  N   UNL     1       1.243   1.959   0.001  0.00  0.00    -0.231 N 
ATOM     16  C   UNL     1      -0.018   1.505   0.010  0.00  0.00    +0.231 C 
ATOM     17  O   UNL     1      -1.015   2.195   0.019  0.00  0.00    -0.274 OA
ENDROOT
BRANCH   1  22
ATOM     18  C   UNL     1       0.463   2.046  -3.737  0.00  0.00    +0.001 A 
ATOM     19  C   UNL     1       1.071   1.259  -4.698  0.00  0.00    +0.004 A 
ATOM     20  C   UNL     1       1.112  -0.113  -4.544  0.00  0.00    +0.046 A 
ATOM     21  C   UNL     1       0.548  -0.701  -3.421  0.00  0.00    +0.121 A 
ATOM     22  C   UNL     1      -0.066   0.090  -2.461  0.00  0.00    +0.003 A 
ATOM     23  C   UNL     1      -0.105   1.462  -2.621  0.00  0.00    +0.008 A 
BRANCH  21  24
ATOM     24  O   UNL     1       0.593  -2.050  -3.264  0.00  0.00    -0.506 OA
ATOM     25  H   UNL     1      -0.163  -2.516  -3.647  0.00  0.00    +0.292 HD
ENDBRANCH  21  24
ENDBRANCH   1  22
BRANCH  15  26
ATOM     26  C   UNL     1       1.572   3.386   0.006  0.00  0.00    +0.241 C 
BRANCH  26  27
ATOM     27  C   UNL     1       1.699   3.867   1.428  0.00  0.00    +0.373 C 
ATOM     28  O   UNL     1       1.531   3.097   2.344  0.00  0.00    -0.245 OA
ATOM     29  O   UNL     1       1.998   5.152   1.678  0.00  0.00    -0.245 OA
ENDBRANCH  26  27
ENDBRANCH  15  26
TORSDOF 4
