REMARK  Name = ZINC35667360
REMARK  7 active torsions:
REMARK  status: ('A' for Active; 'I' for Inactive)
REMARK    1  A    between atoms: C_4  and  N_7
REMARK    2  A    between atoms: C_9  and  C_23
REMARK    3  A    between atoms: N_12  and  C_13
REMARK    4  A    between atoms: C_13  and  C_15
REMARK    5  A    between atoms: C_15  and  N_16
REMARK    6  A    between atoms: N_16  and  C_17
REMARK    7  A    between atoms: C_17  and  C_18
REMARK                            x       y       z     vdW  Elec       q    Type
REMARK                         _______ _______ _______ _____ _____    ______ ____
ROOT
ATOM      1  N   UNL     1       3.623  -0.651  -0.037  0.00  0.00    -0.287 N 
ATOM      2  C   UNL     1       4.875  -0.070  -0.041  0.00  0.00    +0.120 A 
ATOM      3  C   UNL     1       5.791  -1.053  -0.058  0.00  0.00    +0.066 A 
ATOM      4  N   UNL     1       5.115  -2.267  -0.065  0.00  0.00    -0.326 N 
ATOM      5  C   UNL     1       3.783  -2.002  -0.046  0.00  0.00    +0.205 A 
ATOM      6  N   UNL     1       2.804  -2.907  -0.041  0.00  0.00    -0.148 NA
ATOM      7  H   UNL     1       5.522  -3.147  -0.077  0.00  0.00    +0.169 HD
ENDROOT
BRANCH   3   8
ATOM      8  C   UNL     1       7.260  -0.874  -0.068  0.00  0.00    -0.000 A 
ATOM      9  C   UNL     1       7.809   0.408  -0.054  0.00  0.00    +0.013 A 
ATOM     10  C   UNL     1       9.179   0.569  -0.063  0.00  0.00    +0.039 A 
ATOM     11  C   UNL     1      10.010  -0.540  -0.086  0.00  0.00    +0.123 A 
ATOM     12  C   UNL     1       9.469  -1.816  -0.100  0.00  0.00    +0.039 A 
ATOM     13  C   UNL     1       8.101  -1.988  -0.086  0.00  0.00    +0.013 A 
ATOM     14  F   UNL     1      11.351  -0.377  -0.095  0.00  0.00    -0.205 F 
ENDBRANCH   3   8
BRANCH   1  18
ATOM     15  C   UNL     1      -0.017   1.379   0.010  0.00  0.00    +0.000 A 
ATOM     16  C   UNL     1       1.170   2.089   0.002  0.00  0.00    +0.002 A 
ATOM     17  C   UNL     1       2.377   1.419  -0.013  0.00  0.00    +0.026 A 
ATOM     18  C   UNL     1       2.400   0.031  -0.021  0.00  0.00    +0.049 A 
ATOM     19  C   UNL     1       1.206  -0.680  -0.013  0.00  0.00    +0.026 A 
ATOM     20  C   UNL     1       0.002  -0.004   0.002  0.00  0.00    +0.002 A 
ENDBRANCH   1  18
BRANCH   6  21
ATOM     21  C   UNL     1       3.098  -4.202  -0.051  0.00  0.00    +0.222 C 
ATOM     22  O   UNL     1       4.259  -4.562  -0.065  0.00  0.00    -0.276 OA
BRANCH  21  23
ATOM     23  C   UNL     1       1.991  -5.225  -0.044  0.00  0.00    +0.018 C 
BRANCH  23  24
ATOM     24  N   UNL     1       2.572  -6.574  -0.057  0.00  0.00    +0.389 N 
ATOM     25  H   UNL     1       3.133  -6.691  -0.888  0.00  0.00    -0.085 HD
ATOM     26  H   UNL     1       3.151  -6.699   0.760  0.00  0.00    -0.085 HD
BRANCH  24  27
ATOM     27  C   UNL     1       1.493  -7.572  -0.051  0.00  0.00    -0.006 C 
BRANCH  27  28
ATOM     28  C   UNL     1       2.089  -8.956  -0.065  0.00  0.00    +0.088 A 
ATOM     29  C   UNL     1       2.407  -9.686   1.019  0.00  0.00    +0.042 A 
ATOM     30  C   UNL     1       2.933 -10.911   0.548  0.00  0.00    +0.041 A 
ATOM     31  C   UNL     1       2.904 -10.856  -0.796  0.00  0.00    +0.195 A 
ATOM     32  O   UNL     1       2.387  -9.672  -1.161  0.00  0.00    -0.470 OA
ENDBRANCH  27  28
ENDBRANCH  24  27
ENDBRANCH  23  24
ENDBRANCH  21  23
ENDBRANCH   6  21
TORSDOF 7
