REMARK  Name = ZINC12150495
REMARK  11 active torsions:
REMARK  status: ('A' for Active; 'I' for Inactive)
REMARK    1  A    between atoms: C_1  and  C_2
REMARK    2  A    between atoms: C_2  and  C_3
REMARK    3  A    between atoms: C_3  and  C_4
REMARK    4  A    between atoms: C_4  and  C_19
REMARK    5  A    between atoms: N_7  and  C_11
REMARK    6  A    between atoms: C_11  and  C_12
REMARK    7  A    between atoms: C_12  and  C_13
REMARK    8  A    between atoms: C_18  and  N_71
REMARK    9  A    between atoms: C_24  and  C_25
REMARK   10  A    between atoms: C_24  and  N_73
REMARK   11  A    between atoms: C_29  and  C_31
REMARK                            x       y       z     vdW  Elec       q    Type
REMARK                         _______ _______ _______ _____ _____    ______ ____
ROOT
ATOM      1  C   UNL     1      -1.086  -2.007  -0.726  0.00  0.00    +0.115 C 
ATOM      2  C   UNL     1      -1.357  -0.518  -0.806  0.00  0.00    +0.247 C 
ATOM      3  O   UNL     1      -2.333   0.024  -1.279  0.00  0.00    -0.273 OA
ATOM      4  N   UNL     1      -0.289   0.077  -0.240  0.00  0.00    -0.224 N 
ATOM      5  C   UNL     1       0.612  -0.819   0.177  0.00  0.00    +0.309 C 
ATOM      6  O   UNL     1       1.661  -0.523   0.716  0.00  0.00    -0.252 OA
ATOM      7  N   UNL     1       0.226  -2.086  -0.063  0.00  0.00    -0.285 N 
ATOM      8  H   UNL     1       0.719  -2.893   0.155  0.00  0.00    +0.151 HD
ENDROOT
BRANCH   1   9
ATOM      9  C   UNL     1      -2.157  -2.705   0.115  0.00  0.00    +0.018 C 
ATOM     10  C   UNL     1      -3.512  -2.600  -0.592  0.00  0.00    -0.013 C 
ATOM     11  C   UNL     1      -4.589  -3.246   0.283  0.00  0.00    -0.078 C 
ATOM     12  C   UNL     1      -3.365  -2.693   2.300  0.00  0.00    -0.078 C 
ATOM     13  C   UNL     1      -2.252  -2.030   1.486  0.00  0.00    -0.013 C 
ATOM     14  N   UNL     1      -4.646  -2.535   1.578  0.00  0.00    +0.382 N 
ATOM     15  H   UNL     1      -4.809  -1.537   1.403  0.00  0.00    -0.081 HD
BRANCH  14  16
ATOM     16  C   UNL     1      -5.755  -3.066   2.396  0.00  0.00    -0.043 C 
BRANCH  16  17
ATOM     17  C   UNL     1      -7.061  -2.698   1.741  0.00  0.00    -0.063 A 
ATOM     18  C   UNL     1      -7.680  -1.503   2.056  0.00  0.00    +0.002 A 
ATOM     19  C   UNL     1      -8.876  -1.163   1.451  0.00  0.00    +0.001 A 
ATOM     20  C   UNL     1      -9.458  -2.023   0.538  0.00  0.00    +0.012 A 
ATOM     21  C   UNL     1      -8.842  -3.221   0.228  0.00  0.00    +0.055 A 
ATOM     22  C   UNL     1      -7.643  -3.559   0.829  0.00  0.00    +0.014 A 
BRANCH  21  23
ATOM     23  C   UNL     1      -9.476  -4.159  -0.766  0.00  0.00    +0.417 C 
ATOM     24  F   UNL     1     -10.330  -5.042  -0.096  0.00  0.00    -0.166 F 
ATOM     25  F   UNL     1     -10.210  -3.421  -1.702  0.00  0.00    -0.166 F 
ATOM     26  F   UNL     1      -8.478  -4.886  -1.425  0.00  0.00    -0.166 F 
ENDBRANCH  21  23
ENDBRANCH  16  17
ENDBRANCH  14  16
ENDBRANCH   1   9
BRANCH   1  27
ATOM     27  C   UNL     1      -1.018  -2.618  -2.128  0.00  0.00    +0.035 C 
BRANCH  27  29
ATOM     28  C   UNL     1       0.242  -2.638  -4.285  0.00  0.00    +0.004 C 
ATOM     29  C   UNL     1       0.174  -2.028  -2.883  0.00  0.00    -0.001 C 
ENDBRANCH  27  29
ENDBRANCH   1  27
BRANCH   4  30
ATOM     30  C   UNL     1      -0.131   1.527  -0.104  0.00  0.00    +0.116 C 
BRANCH  30  31
ATOM     31  C   UNL     1      -0.729   1.983   1.229  0.00  0.00    +0.004 C 
BRANCH  31  32
ATOM     32  C   UNL     1      -0.644   3.507   1.332  0.00  0.00    -0.068 C 
ATOM     33  C   UNL     1       0.831   3.960   1.394  0.00  0.00    -0.017 C 
ATOM     34  C   UNL     1       0.844   5.147   2.379  0.00  0.00    -0.020 C 
ATOM     35  C   UNL     1      -0.624   5.311   2.830  0.00  0.00    -0.079 C 
ATOM     36  C   UNL     1      -2.698   4.072   2.510  0.00  0.00    -0.096 C 
ATOM     37  N   UNL     1      -1.205   3.990   2.598  0.00  0.00    +0.380 N 
ATOM     38  H   UNL     1      -0.947   3.354   3.362  0.00  0.00    -0.082 HD
ENDBRANCH  31  32
ENDBRANCH  30  31
ENDBRANCH   4  30
TORSDOF 9
