REMARK  Name = ZINC21809363
REMARK  7 active torsions:
REMARK  status: ('A' for Active; 'I' for Inactive)
REMARK    1  A    between atoms: C_1  and  C_2
REMARK    2  A    between atoms: C_7  and  C_8
REMARK    3  A    between atoms: C_8  and  N_9
REMARK    4  A    between atoms: C_18  and  C_19
REMARK    5  A    between atoms: C_18  and  C_20
REMARK    6  A    between atoms: N_22  and  C_23
REMARK    7  A    between atoms: C_29  and  C_31
REMARK                            x       y       z     vdW  Elec       q    Type
REMARK                         _______ _______ _______ _____ _____    ______ ____
ROOT
ATOM      1  N   UNL     1      -7.039   0.176  -0.586  0.00  0.00    -0.276 N 
ATOM      2  C   UNL     1      -8.277  -0.060  -1.080  0.00  0.00    +0.264 C 
ATOM      3  O   UNL     1      -8.458  -0.781  -2.044  0.00  0.00    -0.268 OA
ATOM      4  C   UNL     1      -9.391   0.601  -0.388  0.00  0.00    +0.106 A 
ATOM      5  C   UNL     1     -10.738   0.441  -0.517  0.00  0.00    +0.048 A 
ATOM      6  C   UNL     1     -11.342   1.314   0.380  0.00  0.00    +0.038 A 
ATOM      7  C   UNL     1     -10.356   2.034   1.071  0.00  0.00    +0.057 A 
ATOM      8  N   UNL     1      -9.149   1.584   0.566  0.00  0.00    -0.333 N 
ATOM      9  C   UNL     1      -7.791   2.015   0.907  0.00  0.00    +0.157 C 
ATOM     10  C   UNL     1      -6.829   0.846   0.692  0.00  0.00    +0.129 C 
ATOM     11  C   UNL     1      -7.027  -0.168   1.820  0.00  0.00    +0.043 C 
ATOM     12  C   UNL     1     -10.829   2.955   2.017  0.00  0.00    +0.034 A 
ATOM     13  C   UNL     1     -12.155   3.107   2.213  0.00  0.00    +0.048 A 
ATOM     14  S   UNL     1     -12.857   1.940   1.059  0.00  0.00    -0.095 S 
ENDROOT
BRANCH  10  15
ATOM     15  C   UNL     1      -5.415   1.363   0.744  0.00  0.00    +0.238 C 
ATOM     16  O   UNL     1      -4.882   1.775  -0.264  0.00  0.00    -0.273 OA
ATOM     17  N   UNL     1      -4.742   1.368   1.912  0.00  0.00    -0.310 N 
ATOM     18  H   UNL     1      -5.193   0.916   2.808  0.00  0.00    +0.149 HD
BRANCH  17  19
ATOM     19  C   UNL     1      -3.410   1.973   1.988  0.00  0.00    +0.076 C 
ATOM     20  C   UNL     1      -3.529   3.489   1.820  0.00  0.00    +0.022 C 
ATOM     21  C   UNL     1      -2.138   4.122   1.899  0.00  0.00    +0.002 C 
ATOM     22  C   UNL     1      -1.511   3.807   3.259  0.00  0.00    +0.000 C 
ATOM     23  C   UNL     1      -1.392   2.291   3.426  0.00  0.00    +0.005 C 
ATOM     24  C   UNL     1      -2.783   1.658   3.347  0.00  0.00    +0.006 C 
ATOM     25  C   UNL     1      -2.664   0.142   3.515  0.00  0.00    +0.009 C 
ENDBRANCH  17  19
ENDBRANCH  10  15
BRANCH   1  26
ATOM     26  C   UNL     1      -5.872  -0.256  -1.361  0.00  0.00    +0.144 C 
BRANCH  26  33
ATOM     27  C   UNL     1      -6.808  -2.988  -1.290  0.00  0.00    +0.044 C 
ATOM     28  C   UNL     1      -5.555  -2.601  -0.547  0.00  0.00    -0.046 A 
ATOM     29  C   UNL     1      -4.853  -3.554   0.168  0.00  0.00    +0.003 A 
ATOM     30  C   UNL     1      -3.704  -3.199   0.849  0.00  0.00    +0.000 A 
ATOM     31  C   UNL     1      -3.256  -1.891   0.815  0.00  0.00    +0.000 A 
ATOM     32  C   UNL     1      -3.955  -0.940   0.096  0.00  0.00    +0.005 A 
ATOM     33  C   UNL     1      -5.108  -1.294  -0.581  0.00  0.00    -0.027 A 
ENDBRANCH  26  33
ENDBRANCH   1  26
TORSDOF 4
