REMARK  Name = ZINC13347432
REMARK  10 active torsions:
REMARK  status: ('A' for Active; 'I' for Inactive)
REMARK    1  A    between atoms: C_1  and  C_2
REMARK    2  A    between atoms: C_7  and  C_35
REMARK    3  A    between atoms: C_10  and  C_12
REMARK    4  A    between atoms: C_12  and  O_13
REMARK    5  A    between atoms: O_13  and  C_14
REMARK    6  A    between atoms: C_17  and  C_20
REMARK    7  A    between atoms: N_22  and  N_23
REMARK    8  A    between atoms: N_23  and  S_24
REMARK    9  A    between atoms: S_24  and  C_27
REMARK   10  A    between atoms: C_31  and  C_33
REMARK                            x       y       z     vdW  Elec       q    Type
REMARK                         _______ _______ _______ _____ _____    ______ ____
ROOT
ATOM      1  C   UNL     1       2.811   0.780  -5.433  0.00  0.00    +0.121 A 
ATOM      2  C   UNL     1       2.830  -0.533  -5.887  0.00  0.00    +0.046 A 
ATOM      3  C   UNL     1       3.251  -0.815  -7.168  0.00  0.00    +0.016 A 
ATOM      4  C   UNL     1       3.670   0.220  -8.007  0.00  0.00    +0.038 A 
ATOM      5  C   UNL     1       3.655   1.539  -7.545  0.00  0.00    +0.016 A 
ATOM      6  C   UNL     1       3.228   1.813  -6.265  0.00  0.00    +0.046 A 
ENDROOT
BRANCH   4   7
ATOM      7  C   UNL     1       4.127  -0.078  -9.379  0.00  0.00    +0.259 C 
ATOM      8  O   UNL     1       4.490   0.824 -10.108  0.00  0.00    -0.269 OA
ATOM      9  N   UNL     1       4.140  -1.351  -9.823  0.00  0.00    -0.228 N 
ATOM     10  H   UNL     1       3.850  -2.070  -9.241  0.00  0.00    +0.171 HD
BRANCH   9  11
ATOM     11  N   UNL     1       4.574  -1.634 -11.125  0.00  0.00    -0.108 NA
ATOM     12  H   UNL     1       4.160  -1.189 -11.881  0.00  0.00    +0.172 HD
BRANCH  11  13
ATOM     13  S   UNL     1       5.793  -2.727 -11.372  0.00  0.00    +0.074 S 
ATOM     14  O   UNL     1       5.902  -2.902 -12.778  0.00  0.00    -0.152 OA
ATOM     15  O   UNL     1       6.887  -2.304 -10.570  0.00  0.00    -0.152 OA
BRANCH  13  16
ATOM     16  C   UNL     1       5.251  -4.269 -10.713  0.00  0.00    +0.108 A 
ATOM     17  C   UNL     1       5.518  -4.588  -9.393  0.00  0.00    +0.028 A 
ATOM     18  C   UNL     1       5.092  -5.793  -8.866  0.00  0.00    +0.003 A 
ATOM     19  C   UNL     1       4.406  -6.692  -9.657  0.00  0.00    +0.015 A 
ATOM     20  C   UNL     1       4.138  -6.379 -10.991  0.00  0.00    +0.065 A 
ATOM     21  C   UNL     1       4.567  -5.158 -11.515  0.00  0.00    +0.043 A 
BRANCH  20  22
ATOM     22  C   UNL     1       3.406  -7.337 -11.845  0.00  0.00    +0.387 C 
ATOM     23  O   UNL     1       3.175  -7.062 -13.005  0.00  0.00    -0.241 OA
ATOM     24  O   UNL     1       2.994  -8.514 -11.336  0.00  0.00    -0.241 OA
ENDBRANCH  20  22
ENDBRANCH  13  16
ENDBRANCH  11  13
ENDBRANCH   9  11
ENDBRANCH   4   7
BRANCH   1  25
ATOM     25  O   UNL     1       2.391   1.055  -4.173  0.00  0.00    -0.483 OA
BRANCH  25  26
ATOM     26  C   UNL     1       1.977  -0.054  -3.371  0.00  0.00    +0.324 C 
BRANCH  26  34
ATOM     27  C   UNL     1       0.348   1.675   0.051  0.00  0.00    +0.028 C 
ATOM     28  C   UNL     1       0.098   0.170  -0.059  0.00  0.00    +0.073 C 
ATOM     29  C   UNL     1       0.548  -0.520   1.232  0.00  0.00    +0.022 C 
ATOM     30  C   UNL     1       0.425  -2.037   1.065  0.00  0.00    +0.004 C 
ATOM     31  C   UNL     1       1.337  -2.501  -0.073  0.00  0.00    +0.022 C 
ATOM     32  C   UNL     1       0.897  -1.833  -1.380  0.00  0.00    +0.073 C 
ATOM     33  N   UNL     1       0.872  -0.377  -1.182  0.00  0.00    -0.293 N 
ATOM     34  C   UNL     1       1.547   0.440  -2.014  0.00  0.00    +0.254 C 
ATOM     35  O   UNL     1       1.807   1.574  -1.671  0.00  0.00    -0.272 OA
ATOM     36  C   UNL     1       1.886  -2.182  -2.493  0.00  0.00    +0.028 C 
ENDBRANCH  26  34
ENDBRANCH  25  26
ENDBRANCH   1  25
TORSDOF 8
