REMARK  Name = ZINC11786643
REMARK  11 active torsions:
REMARK  status: ('A' for Active; 'I' for Inactive)
REMARK    1  A    between atoms: C_1  and  C_2
REMARK    2  A    between atoms: C_2  and  C_3
REMARK    3  A    between atoms: C_2  and  C_4
REMARK    4  A    between atoms: C_4  and  C_5
REMARK    5  A    between atoms: C_5  and  C_7
REMARK    6  A    between atoms: C_5  and  N_30
REMARK    7  A    between atoms: C_16  and  C_17
REMARK    8  A    between atoms: C_16  and  N_72
REMARK    9  A    between atoms: C_17  and  C_18
REMARK   10  A    between atoms: C_17  and  C_24
REMARK   11  A    between atoms: C_31  and  C_33
REMARK                            x       y       z     vdW  Elec       q    Type
REMARK                         _______ _______ _______ _____ _____    ______ ____
ROOT
ATOM      1  C   UNL     1      -2.790  -4.064   0.315  0.00  0.00    +0.154 A 
ATOM      2  N   UNL     1      -1.599  -4.357   0.766  0.00  0.00    -0.132 NA
ATOM      3  N   UNL     1      -1.280  -5.552   0.406  0.00  0.00    -0.134 NA
ATOM      4  C   UNL     1      -2.253  -6.073  -0.282  0.00  0.00    +0.132 A 
ATOM      5  N   UNL     1      -3.234  -5.141  -0.366  0.00  0.00    -0.315 N 
ATOM      6  C   UNL     1      -4.504  -5.290  -1.077  0.00  0.00    +0.106 C 
ATOM      7  C   UNL     1      -4.890  -6.772  -1.111  0.00  0.00    -0.057 C 
ATOM      8  C   UNL     1      -2.852  -7.362  -2.302  0.00  0.00    -0.071 C 
ATOM      9  C   UNL     1      -2.327  -7.458  -0.872  0.00  0.00    +0.058 C 
ATOM     10  N   UNL     1      -4.328  -7.444  -2.306  0.00  0.00    +0.382 N 
ATOM     11  H   UNL     1      -4.604  -8.433  -2.288  0.00  0.00    -0.082 HD
ENDROOT
BRANCH   1  12
ATOM     12  C   UNL     1      -3.532  -2.768   0.522  0.00  0.00    +0.142 C 
BRANCH  12  13
ATOM     13  N   UNL     1      -2.686  -1.649   0.101  0.00  0.00    -0.299 N 
ATOM     14  C   UNL     1      -3.249  -0.477  -0.258  0.00  0.00    +0.280 C 
ATOM     15  O   UNL     1      -4.460  -0.373  -0.304  0.00  0.00    -0.267 OA
ATOM     16  H   UNL     1      -1.722  -1.750   0.079  0.00  0.00    +0.150 HD
BRANCH  14  17
ATOM     17  C   UNL     1      -2.400   0.671  -0.592  0.00  0.00    +0.189 A 
ATOM     18  C   UNL     1      -2.837   1.909  -0.969  0.00  0.00    +0.054 A 
ATOM     19  C   UNL     1      -1.693   2.691  -1.190  0.00  0.00    +0.042 A 
ATOM     20  C   UNL     1      -0.621   1.907  -0.942  0.00  0.00    +0.196 A 
ATOM     21  O   UNL     1      -1.051   0.690  -0.582  0.00  0.00    -0.458 OA
ENDBRANCH  14  17
ENDBRANCH  12  13
BRANCH  12  22
ATOM     22  C   UNL     1      -3.882  -2.613   2.004  0.00  0.00    +0.033 C 
BRANCH  22  24
ATOM     23  C   UNL     1      -5.096  -3.647   3.927  0.00  0.00    +0.007 C 
ATOM     24  C   UNL     1      -4.842  -3.729   2.421  0.00  0.00    -0.015 C 
ATOM     25  C   UNL     1      -6.166  -3.569   1.671  0.00  0.00    +0.007 C 
ENDBRANCH  22  24
ENDBRANCH  12  22
ENDBRANCH   1  12
BRANCH  10  26
ATOM     26  C   UNL     1      -4.862  -6.821  -3.530  0.00  0.00    -0.066 C 
BRANCH  26  27
ATOM     27  C   UNL     1      -4.437  -7.666  -4.733  0.00  0.00    +0.032 C 
BRANCH  27  28
ATOM     28  C   UNL     1      -5.098  -7.135  -5.979  0.00  0.00    -0.042 A 
ATOM     29  C   UNL     1      -5.701  -8.006  -6.866  0.00  0.00    +0.004 A 
ATOM     30  C   UNL     1      -6.312  -7.519  -8.007  0.00  0.00    +0.000 A 
ATOM     31  C   UNL     1      -6.310  -6.160  -8.264  0.00  0.00    +0.000 A 
ATOM     32  C   UNL     1      -5.702  -5.290  -7.380  0.00  0.00    +0.000 A 
ATOM     33  C   UNL     1      -5.096  -5.777  -6.237  0.00  0.00    +0.004 A 
ENDBRANCH  27  28
BRANCH  27  34
ATOM     34  C   UNL     1      -2.940  -7.598  -4.890  0.00  0.00    -0.042 A 
ATOM     35  C   UNL     1      -2.305  -6.371  -4.943  0.00  0.00    +0.004 A 
ATOM     36  C   UNL     1      -0.932  -6.308  -5.082  0.00  0.00    +0.000 A 
ATOM     37  C   UNL     1      -0.193  -7.473  -5.180  0.00  0.00    +0.000 A 
ATOM     38  C   UNL     1      -0.828  -8.700  -5.133  0.00  0.00    +0.000 A 
ATOM     39  C   UNL     1      -2.201  -8.762  -4.988  0.00  0.00    +0.004 A 
ENDBRANCH  27  34
ENDBRANCH  26  27
ENDBRANCH  10  26
TORSDOF 9
