REMARK  Name = ZINC36597188
REMARK  15 active torsions:
REMARK  status: ('A' for Active; 'I' for Inactive)
REMARK    1  A    between atoms: C_1  and  C_2
REMARK    2  A    between atoms: C_2  and  C_3
REMARK    3  A    between atoms: C_3  and  C_4
REMARK    4  A    between atoms: C_4  and  N_5
REMARK    5  A    between atoms: C_6  and  C_8
REMARK    6  A    between atoms: C_8  and  C_10
REMARK    7  A    between atoms: C_8  and  N_19
REMARK    8  A    between atoms: C_11  and  O_18
REMARK    9  A    between atoms: C_13  and  O_17
REMARK   10  A    between atoms: C_15  and  O_16
REMARK   11  A    between atoms: N_19  and  C_20
REMARK   12  A    between atoms: C_20  and  C_21
REMARK   13  A    between atoms: C_24  and  C_26
REMARK   14  A    between atoms: C_27  and  C_29
REMARK   15  A    between atoms: C_32  and  O_35
REMARK                            x       y       z     vdW  Elec       q    Type
REMARK                         _______ _______ _______ _____ _____    ______ ____
ROOT
ATOM      1  C   UNL     1      -5.648  -5.843   0.915  0.00  0.00    +0.200 C 
ENDROOT
BRANCH   1   2
ATOM      2  C   UNL     1      -7.072  -6.147   0.523  0.00  0.00    +0.065 A 
ATOM      3  C   UNL     1      -7.722  -7.243   1.069  0.00  0.00    +0.129 A 
ATOM      4  C   UNL     1      -9.031  -7.523   0.708  0.00  0.00    +0.091 A 
ATOM      5  C   UNL     1      -9.691  -6.705  -0.197  0.00  0.00    +0.124 A 
ATOM      6  C   UNL     1      -9.041  -5.607  -0.741  0.00  0.00    +0.091 A 
ATOM      7  C   UNL     1      -7.733  -5.326  -0.378  0.00  0.00    +0.129 A 
BRANCH   7   8
ATOM      8  O   UNL     1      -7.098  -4.248  -0.907  0.00  0.00    -0.506 OA
ATOM      9  H   UNL     1      -6.623  -4.435  -1.729  0.00  0.00    +0.292 HD
ENDBRANCH   7   8
BRANCH   5  10
ATOM     10  O   UNL     1     -10.974  -6.979  -0.550  0.00  0.00    -0.507 OA
ATOM     11  H   UNL     1     -11.636  -6.556   0.013  0.00  0.00    +0.292 HD
ENDBRANCH   5  10
BRANCH   3  12
ATOM     12  O   UNL     1      -7.075  -8.045   1.955  0.00  0.00    -0.506 OA
ATOM     13  H   UNL     1      -7.116  -7.733   2.870  0.00  0.00    +0.292 HD
ENDBRANCH   3  12
ENDBRANCH   1   2
BRANCH   1  15
ATOM     14  N   UNL     1      -5.585  -3.401   1.306  0.00  0.00    -0.313 N 
ATOM     15  C   UNL     1      -5.300  -4.439   0.494  0.00  0.00    +0.238 C 
ATOM     16  O   UNL     1      -4.764  -4.242  -0.576  0.00  0.00    -0.273 OA
ATOM     17  H   UNL     1      -6.013  -3.559   2.162  0.00  0.00    +0.149 HD
BRANCH  14  18
ATOM     18  C   UNL     1      -5.246  -2.036   0.897  0.00  0.00    +0.104 C 
BRANCH  18  19
ATOM     19  C   UNL     1      -5.672  -1.055   1.991  0.00  0.00    +0.018 C 
BRANCH  19  21
ATOM     20  C   UNL     1      -5.745   1.351   2.658  0.00  0.00    +0.004 C 
ATOM     21  C   UNL     1      -5.319   0.371   1.564  0.00  0.00    -0.002 C 
ENDBRANCH  19  21
ENDBRANCH  18  19
ENDBRANCH  14  18
ENDBRANCH   1  15
BRANCH   1  22
ATOM     22  N   UNL     1      -4.747  -6.789   0.252  0.00  0.00    -0.274 N 
ATOM     23  C   UNL     1      -3.487  -6.948   0.702  0.00  0.00    +0.248 C 
ATOM     24  O   UNL     1      -2.622  -7.364  -0.044  0.00  0.00    -0.270 OA
BRANCH  23  25
ATOM     25  C   UNL     1      -3.156  -6.616   2.102  0.00  0.00    +0.037 A 
ATOM     26  C   UNL     1      -3.642  -5.438   2.676  0.00  0.00    +0.016 A 
ATOM     27  C   UNL     1      -3.331  -5.132   3.982  0.00  0.00    +0.046 A 
ATOM     28  C   UNL     1      -2.535  -5.993   4.729  0.00  0.00    +0.117 A 
ATOM     29  C   UNL     1      -2.049  -7.165   4.162  0.00  0.00    +0.046 A 
ATOM     30  C   UNL     1      -2.360  -7.481   2.858  0.00  0.00    +0.016 A 
BRANCH  28  31
ATOM     31  O   UNL     1      -2.230  -5.687   6.016  0.00  0.00    -0.507 OA
ATOM     32  H   UNL     1      -2.863  -6.029   6.662  0.00  0.00    +0.292 HD
ENDBRANCH  28  31
ENDBRANCH  23  25
BRANCH  22  33
ATOM     33  C   UNL     1      -5.216  -7.563  -0.900  0.00  0.00    +0.183 C 
BRANCH  33  34
ATOM     34  C   UNL     1      -4.481  -7.116  -2.138  0.00  0.00    +0.122 A 
ATOM     35  C   UNL     1      -3.288  -7.578  -2.554  0.00  0.00    +0.046 A 
ATOM     36  C   UNL     1      -2.977  -6.889  -3.749  0.00  0.00    +0.045 A 
ATOM     37  C   UNL     1      -3.998  -6.048  -3.991  0.00  0.00    +0.102 A 
ATOM     38  O   UNL     1      -4.909  -6.194  -3.015  0.00  0.00    -0.463 OA
ATOM     39  C   UNL     1      -4.105  -5.106  -5.163  0.00  0.00    +0.086 C 
ENDBRANCH  33  34
ENDBRANCH  22  33
ENDBRANCH   1  22
TORSDOF 13
