REMARK  Name = ZINC28161491
REMARK  9 active torsions:
REMARK  status: ('A' for Active; 'I' for Inactive)
REMARK    1  A    between atoms: C_1  and  C_2
REMARK    2  A    between atoms: C_2  and  C_3
REMARK    3  A    between atoms: C_6  and  C_9
REMARK    4  A    between atoms: C_12  and  C_34
REMARK    5  A    between atoms: C_19  and  C_22
REMARK    6  A    between atoms: C_22  and  C_23
REMARK    7  A    between atoms: N_25  and  C_26
REMARK    8  A    between atoms: C_29  and  C_33
REMARK    9  A    between atoms: C_31  and  C_32
REMARK                            x       y       z     vdW  Elec       q    Type
REMARK                         _______ _______ _______ _____ _____    ______ ____
ROOT
ATOM      1  C   UNL     1       2.607   6.882   3.690  0.00  0.00    +0.136 C 
ATOM      2  C   UNL     1       2.135   7.453   5.042  0.00  0.00    +0.087 C 
ATOM      3  C   UNL     1       0.794   6.792   5.269  0.00  0.00    +0.075 C 
ATOM      4  N   UNL     1       0.526   6.010   4.277  0.00  0.00    -0.181 NA
ATOM      5  N   UNL     1       1.512   5.984   3.292  0.00  0.00    -0.195 N 
ATOM      6  C   UNL     1       1.471   5.242   2.149  0.00  0.00    +0.170 C 
ATOM      7  N   UNL     1       2.376   5.177   1.180  0.00  0.00    -0.157 NA
ATOM      8  C   UNL     1       2.259   4.437   0.112  0.00  0.00    +0.252 C 
ATOM      9  O   UNL     1       3.113   4.405  -0.753  0.00  0.00    -0.272 OA
ATOM     10  C   UNL     1       0.979   3.615   0.025  0.00  0.00    +0.150 C 
ATOM     11  S   UNL     1       0.185   4.127   1.601  0.00  0.00    -0.078 S 
ENDROOT
BRANCH   1  15
ATOM     12  C   UNL     1       6.247   4.696   4.164  0.00  0.00    -0.048 A 
ATOM     13  C   UNL     1       6.267   5.958   3.601  0.00  0.00    +0.004 A 
ATOM     14  C   UNL     1       5.089   6.666   3.447  0.00  0.00    +0.006 A 
ATOM     15  C   UNL     1       3.891   6.111   3.857  0.00  0.00    -0.025 A 
ATOM     16  C   UNL     1       3.872   4.851   4.426  0.00  0.00    +0.006 A 
ATOM     17  C   UNL     1       5.049   4.142   4.575  0.00  0.00    +0.004 A 
BRANCH  12  19
ATOM     18  C   UNL     1       8.145   4.245   5.695  0.00  0.00    +0.009 C 
ATOM     19  C   UNL     1       7.530   3.925   4.330  0.00  0.00    +0.032 C 
ENDBRANCH  12  19
ENDBRANCH   1  15
BRANCH   3  20
ATOM     20  C   UNL     1      -0.068   7.005   6.436  0.00  0.00    +0.035 A 
ATOM     21  C   UNL     1      -1.301   6.446   6.724  0.00  0.00    +0.017 A 
ATOM     22  C   UNL     1      -1.924   6.805   7.896  0.00  0.00    +0.008 A 
ATOM     23  C   UNL     1      -1.315   7.690   8.729  0.00  0.00    +0.046 A 
ATOM     24  S   UNL     1       0.202   8.048   7.860  0.00  0.00    -0.095 S 
ENDBRANCH   3  20
BRANCH  10  25
ATOM     25  C   UNL     1       1.279   2.114   0.012  0.00  0.00    +0.120 C 
BRANCH  25  26
ATOM     26  C   UNL     1      -0.016   1.343   0.012  0.00  0.00    +0.219 C 
ATOM     27  O   UNL     1      -1.074   1.936   0.016  0.00  0.00    -0.275 OA
ATOM     28  N   UNL     1       0.002  -0.004   0.002  0.00  0.00    -0.285 N 
ATOM     29  H   UNL     1       0.957  -0.541  -0.095  0.00  0.00    +0.155 HD
BRANCH  28  30
ATOM     30  C   UNL     1      -1.194  -0.721   0.115  0.00  0.00    +0.036 A 
ATOM     31  C   UNL     1      -2.295  -0.143   0.735  0.00  0.00    +0.024 A 
ATOM     32  C   UNL     1      -3.475  -0.853   0.845  0.00  0.00    +0.005 A 
ATOM     33  C   UNL     1      -3.560  -2.138   0.339  0.00  0.00    -0.050 A 
ATOM     34  C   UNL     1      -2.466  -2.715  -0.278  0.00  0.00    +0.008 A 
ATOM     35  C   UNL     1      -1.286  -2.008  -0.397  0.00  0.00    -0.029 A 
ATOM     36  C   UNL     1      -0.095  -2.636  -1.075  0.00  0.00    +0.045 C 
ATOM     37  C   UNL     1      -4.849  -2.909   0.462  0.00  0.00    +0.044 C 
ENDBRANCH  28  30
ENDBRANCH  25  26
ENDBRANCH  10  25
TORSDOF 6
