REMARK  Name = ZINC20990965
REMARK  12 active torsions:
REMARK  status: ('A' for Active; 'I' for Inactive)
REMARK    1  A    between atoms: C_1  and  C_2
REMARK    2  A    between atoms: C_2  and  C_4
REMARK    3  A    between atoms: C_2  and  O_20
REMARK    4  A    between atoms: N_6  and  C_7
REMARK    5  A    between atoms: C_10  and  N_17
REMARK    6  A    between atoms: C_12  and  C_13
REMARK    7  A    between atoms: O_20  and  C_21
REMARK    8  A    between atoms: C_21  and  C_23
REMARK    9  A    between atoms: C_24  and  C_25
REMARK   10  A    between atoms: C_28  and  C_31
REMARK   11  A    between atoms: C_31  and  O_33
REMARK   12  A    between atoms: O_33  and  C_34
REMARK                            x       y       z     vdW  Elec       q    Type
REMARK                         _______ _______ _______ _____ _____    ______ ____
ROOT
ATOM      1  C   UNL     1      -0.003   1.513  -0.001  0.00  0.00    +0.062 C 
ATOM      2  C   UNL     1       0.007  -0.017  -0.005  0.00  0.00    +0.259 C 
ENDROOT
BRANCH   2   3
ATOM      3  C   UNL     1      -1.411  -0.528   0.011  0.00  0.00    +0.258 C 
ATOM      4  O   UNL     1      -1.818  -1.154   0.967  0.00  0.00    -0.271 OA
ATOM      5  N   UNL     1      -2.225  -0.290  -1.036  0.00  0.00    -0.282 N 
ATOM      6  H   UNL     1      -1.926   0.277  -1.764  0.00  0.00    +0.155 HD
BRANCH   5   7
ATOM      7  C   UNL     1      -3.501  -0.862  -1.074  0.00  0.00    +0.045 A 
ATOM      8  C   UNL     1      -3.762  -2.030  -0.368  0.00  0.00    +0.026 A 
ATOM      9  C   UNL     1      -5.023  -2.591  -0.408  0.00  0.00    +0.034 A 
ATOM     10  C   UNL     1      -6.026  -1.992  -1.148  0.00  0.00    +0.127 A 
ATOM     11  C   UNL     1      -5.769  -0.830  -1.852  0.00  0.00    +0.047 A 
ATOM     12  C   UNL     1      -4.512  -0.260  -1.812  0.00  0.00    +0.078 A 
BRANCH  12  13
ATOM     13  C   UNL     1      -4.235   1.011  -2.573  0.00  0.00    +0.419 C 
ATOM     14  F   UNL     1      -5.398   1.421  -3.233  0.00  0.00    -0.166 F 
ATOM     15  F   UNL     1      -3.827   2.009  -1.682  0.00  0.00    -0.166 F 
ATOM     16  F   UNL     1      -3.223   0.781  -3.511  0.00  0.00    -0.166 F 
ENDBRANCH  12  13
BRANCH  10  17
ATOM     17  N   UNL     1      -7.376  -2.597  -1.188  0.00  0.00    +0.056 N 
ATOM     18  O   UNL     1      -7.602  -3.614  -0.574  0.00  0.00    -0.126 OA
ATOM     19  O   UNL     1      -8.254  -2.075  -1.835  0.00  0.00    -0.126 OA
ENDBRANCH  10  17
ENDBRANCH   5   7
ENDBRANCH   2   3
BRANCH   2  20
ATOM     20  O   UNL     1       0.698  -0.492   1.152  0.00  0.00    -0.449 OA
BRANCH  20  21
ATOM     21  C   UNL     1       2.027  -0.687   1.034  0.00  0.00    +0.333 C 
ATOM     22  O   UNL     1       2.584  -0.460  -0.023  0.00  0.00    -0.246 OA
BRANCH  21  23
ATOM     23  C   UNL     1       2.801  -1.172   2.179  0.00  0.00    +0.092 C 
ATOM     24  C   UNL     1       4.129  -1.367   2.062  0.00  0.00    +0.015 C 
BRANCH  24  25
ATOM     25  C   UNL     1       4.907  -1.855   3.213  0.00  0.00    -0.025 A 
ATOM     26  C   UNL     1       4.266  -2.123   4.427  0.00  0.00    +0.009 A 
ATOM     27  C   UNL     1       4.993  -2.579   5.503  0.00  0.00    +0.015 A 
ATOM     28  C   UNL     1       6.371  -2.776   5.382  0.00  0.00    +0.059 A 
ATOM     29  C   UNL     1       7.012  -2.510   4.169  0.00  0.00    +0.015 A 
ATOM     30  C   UNL     1       6.286  -2.058   3.091  0.00  0.00    +0.009 A 
BRANCH  28  31
ATOM     31  C   UNL     1       7.152  -3.266   6.537  0.00  0.00    +0.339 C 
ATOM     32  O   UNL     1       6.595  -3.498   7.592  0.00  0.00    -0.245 OA
BRANCH  31  33
ATOM     33  O   UNL     1       8.480  -3.456   6.421  0.00  0.00    -0.464 OA
ATOM     34  C   UNL     1       9.171  -3.932   7.578  0.00  0.00    +0.280 C 
ENDBRANCH  31  33
ENDBRANCH  28  31
ENDBRANCH  24  25
ENDBRANCH  21  23
ENDBRANCH  20  21
ENDBRANCH   2  20
TORSDOF 10
