REMARK  Name = ZINC02342196
REMARK  8 active torsions:
REMARK  status: ('A' for Active; 'I' for Inactive)
REMARK    1  A    between atoms: C_1  and  C_2
REMARK    2  A    between atoms: C_5  and  C_8
REMARK    3  A    between atoms: C_11  and  S_19
REMARK    4  A    between atoms: N_12  and  C_13
REMARK    5  A    between atoms: S_19  and  C_20
REMARK    6  A    between atoms: C_20  and  C_21
REMARK    7  A    between atoms: N_23  and  N_24
REMARK    8  A    between atoms: C_25  and  C_26
REMARK                            x       y       z     vdW  Elec       q    Type
REMARK                         _______ _______ _______ _____ _____    ______ ____
ROOT
ATOM      1  C   UNL     1      -5.294  -9.595  -0.001  0.00  0.00    +0.169 A 
ATOM      2  N   UNL     1      -5.882  -8.421   0.011  0.00  0.00    -0.128 NA
ATOM      3  N   UNL     1      -5.000  -7.487   0.007  0.00  0.00    -0.122 NA
ATOM      4  C   UNL     1      -3.792  -8.005  -0.006  0.00  0.00    +0.197 A 
ATOM      5  N   UNL     1      -3.935  -9.365  -0.018  0.00  0.00    -0.270 N 
ENDROOT
BRANCH   1  10
ATOM      6  C   UNL     1      -7.897 -14.726  -0.001  0.00  0.00    +0.044 C 
ATOM      7  C   UNL     1      -7.215 -13.382  -0.001  0.00  0.00    -0.050 A 
ATOM      8  C   UNL     1      -7.940 -12.242  -0.299  0.00  0.00    +0.004 A 
ATOM      9  C   UNL     1      -7.322 -11.009  -0.301  0.00  0.00    +0.012 A 
ATOM     10  C   UNL     1      -5.963 -10.913  -0.000  0.00  0.00    +0.020 A 
ATOM     11  C   UNL     1      -5.236 -12.067   0.294  0.00  0.00    +0.012 A 
ATOM     12  C   UNL     1      -5.867 -13.294   0.298  0.00  0.00    +0.004 A 
ENDBRANCH   1  10
BRANCH   5  13
ATOM     13  C   UNL     1      -2.914 -10.325  -0.039  0.00  0.00    +0.051 A 
ATOM     14  C   UNL     1      -2.771 -11.164  -1.136  0.00  0.00    +0.026 A 
ATOM     15  C   UNL     1      -1.760 -12.105  -1.157  0.00  0.00    +0.002 A 
ATOM     16  C   UNL     1      -0.898 -12.219  -0.082  0.00  0.00    +0.000 A 
ATOM     17  C   UNL     1      -1.041 -11.389   1.014  0.00  0.00    +0.002 A 
ATOM     18  C   UNL     1      -2.046 -10.442   1.038  0.00  0.00    +0.026 A 
ENDBRANCH   5  13
BRANCH   4  19
ATOM     19  S   UNL     1      -2.272  -7.113  -0.015  0.00  0.00    -0.076 S 
BRANCH  19  20
ATOM     20  C   UNL     1      -2.902  -5.417  -0.000  0.00  0.00    +0.174 C 
BRANCH  20  21
ATOM     21  C   UNL     1      -1.746  -4.451  -0.006  0.00  0.00    +0.242 C 
ATOM     22  O   UNL     1      -0.607  -4.869  -0.018  0.00  0.00    -0.273 OA
ATOM     23  N   UNL     1      -1.976  -3.123   0.003  0.00  0.00    -0.206 N 
ATOM     24  H   UNL     1      -2.887  -2.789   0.014  0.00  0.00    +0.177 HD
BRANCH  23  25
ATOM     25  N   UNL     1      -0.901  -2.225  -0.002  0.00  0.00    -0.187 NA
ATOM     26  C   UNL     1      -1.123  -0.944   0.007  0.00  0.00    +0.145 C 
BRANCH  26  27
ATOM     27  C   UNL     1       0.002  -0.004   0.002  0.00  0.00    +0.033 A 
ATOM     28  C   UNL     1      -0.017   1.380   0.010  0.00  0.00    +0.018 A 
ATOM     29  C   UNL     1       1.184   2.050   0.002  0.00  0.00    +0.023 A 
ATOM     30  C   UNL     1       2.343   1.338  -0.013  0.00  0.00    +0.055 A 
ATOM     31  S   UNL     1       1.754  -0.347  -0.017  0.00  0.00    -0.080 S 
ATOM     32 BR   UNL     1       4.124   1.973  -0.027  0.00  0.00    -0.043 Br
ENDBRANCH  26  27
ENDBRANCH  23  25
ENDBRANCH  20  21
ENDBRANCH  19  20
ENDBRANCH   4  19
TORSDOF 7
