REMARK  Name = ZINC31246046
REMARK  12 active torsions:
REMARK  status: ('A' for Active; 'I' for Inactive)
REMARK    1  A    between atoms: C_1  and  C_2
REMARK    2  A    between atoms: C_2  and  O_3
REMARK    3  A    between atoms: O_3  and  C_4
REMARK    4  A    between atoms: C_4  and  C_6
REMARK    5  A    between atoms: C_7  and  C_20
REMARK    6  A    between atoms: C_12  and  C_14
REMARK    7  A    between atoms: C_17  and  C_19
REMARK    8  A    between atoms: C_20  and  N_21
REMARK    9  A    between atoms: N_21  and  C_22
REMARK   10  A    between atoms: N_21  and  C_23
REMARK   11  A    between atoms: C_23  and  C_24
REMARK   12  A    between atoms: N_26  and  C_27
REMARK                            x       y       z     vdW  Elec       q    Type
REMARK                         _______ _______ _______ _____ _____    ______ ____
ROOT
ATOM      1  C   UNL     1      -0.774   1.612  -1.687  0.00  0.00    +0.079 C 
ATOM      2  C   UNL     1      -0.914   0.419  -1.070  0.00  0.00    +0.008 C 
ATOM      3  N   UNL     1      -1.940  -0.425  -1.390  0.00  0.00    -0.274 N 
ATOM      4  C   UNL     1      -2.873  -0.144  -2.309  0.00  0.00    +0.304 C 
ATOM      5  O   UNL     1      -3.751  -0.956  -2.522  0.00  0.00    -0.252 OA
ATOM      6  N   UNL     1      -2.866   1.008  -3.008  0.00  0.00    -0.285 N 
ATOM      7  C   UNL     1      -1.797   1.984  -2.741  0.00  0.00    +0.179 C 
ATOM      8  H   UNL     1      -2.032  -1.396  -0.883  0.00  0.00    +0.156 HD
ATOM      9  H   UNL     1      -3.635   1.227  -3.764  0.00  0.00    +0.151 HD
ENDROOT
BRANCH   7  10
ATOM     10  C   UNL     1      -2.444   3.280  -2.324  0.00  0.00    +0.130 A 
ATOM     11  C   UNL     1      -2.137   4.501  -2.797  0.00  0.00    +0.047 A 
ATOM     12  C   UNL     1      -2.983   5.421  -2.135  0.00  0.00    +0.045 A 
ATOM     13  C   UNL     1      -3.756   4.707  -1.297  0.00  0.00    +0.102 A 
ATOM     14  O   UNL     1      -3.429   3.410  -1.420  0.00  0.00    -0.463 OA
ATOM     15  C   UNL     1      -4.814   5.266  -0.382  0.00  0.00    +0.086 C 
ENDBRANCH   7  10
BRANCH   1  16
ATOM     16  C   UNL     1       0.290   2.484  -1.360  0.00  0.00    +0.339 C 
ATOM     17  O   UNL     1       1.029   2.220  -0.430  0.00  0.00    -0.245 OA
BRANCH  16  18
ATOM     18  O   UNL     1       0.487   3.608  -2.080  0.00  0.00    -0.462 OA
BRANCH  18  20
ATOM     19  C   UNL     1       1.646   5.659  -2.620  0.00  0.00    +0.048 C 
ATOM     20  C   UNL     1       1.582   4.442  -1.695  0.00  0.00    +0.229 C 
ENDBRANCH  18  20
ENDBRANCH  16  18
ENDBRANCH   1  16
BRANCH   2  21
ATOM     21  C   UNL     1       0.081   0.008  -0.015  0.00  0.00    -0.026 C 
BRANCH  21  22
ATOM     22  N   UNL     1      -0.316   0.577   1.280  0.00  0.00    +0.387 N 
ATOM     23  C   UNL     1      -1.495  -0.115   1.819  0.00  0.00    -0.095 C 
ATOM     24  H   UNL     1      -0.587   1.630   1.118  0.00  0.00    -0.081 HD
BRANCH  22  25
ATOM     25  C   UNL     1       0.799   0.538   2.236  0.00  0.00    +0.019 C 
BRANCH  25  26
ATOM     26  C   UNL     1       0.440   1.342   3.459  0.00  0.00    +0.201 C 
ATOM     27  O   UNL     1      -0.639   1.893   3.528  0.00  0.00    -0.278 OA
ATOM     28  N   UNL     1       1.317   1.450   4.476  0.00  0.00    -0.287 N 
ATOM     29  H   UNL     1       2.324   1.016   4.382  0.00  0.00    +0.155 HD
BRANCH  28  30
ATOM     30  C   UNL     1       0.948   2.113   5.652  0.00  0.00    +0.033 A 
ATOM     31  C   UNL     1       0.186   3.273   5.587  0.00  0.00    +0.026 A 
ATOM     32  C   UNL     1      -0.182   3.922   6.749  0.00  0.00    +0.040 A 
ATOM     33  C   UNL     1       0.217   3.425   7.978  0.00  0.00    +0.124 A 
ATOM     34  C   UNL     1       0.982   2.272   8.045  0.00  0.00    +0.040 A 
ATOM     35  C   UNL     1       1.347   1.616   6.886  0.00  0.00    +0.026 A 
ATOM     36  F   UNL     1      -0.140   4.065   9.113  0.00  0.00    -0.205 F 
ENDBRANCH  28  30
ENDBRANCH  25  26
ENDBRANCH  22  25
ENDBRANCH  21  22
ENDBRANCH   2  21
TORSDOF 9
