REMARK  Name = ZINC13065193
REMARK  11 active torsions:
REMARK  status: ('A' for Active; 'I' for Inactive)
REMARK    1  A    between atoms: C_1  and  C_2
REMARK    2  A    between atoms: C_2  and  C_3
REMARK    3  A    between atoms: C_3  and  C_5
REMARK    4  A    between atoms: C_3  and  N_66
REMARK    5  A    between atoms: N_9  and  C_10
REMARK    6  A    between atoms: C_15  and  C_16
REMARK    7  A    between atoms: C_15  and  N_66
REMARK    8  A    between atoms: C_21  and  C_22
REMARK    9  A    between atoms: C_21  and  N_66
REMARK   10  A    between atoms: C_25  and  C_35
REMARK   11  A    between atoms: C_28  and  C_34
REMARK                            x       y       z     vdW  Elec       q    Type
REMARK                         _______ _______ _______ _____ _____    ______ ____
ROOT
ATOM      1  N   UNL     1       0.118  -0.776   1.932  0.00  0.00    +0.394 N 
ATOM      2  H   UNL     1      -0.825  -0.450   2.171  0.00  0.00    -0.080 HD
ENDROOT
BRANCH   1   3
ATOM      3  C   UNL     1       1.105  -0.020   2.731  0.00  0.00    +0.003 C 
BRANCH   3   4
ATOM      4  C   UNL     1       2.486  -0.593   2.545  0.00  0.00    +0.138 A 
ATOM      5  N   UNL     1       2.812  -1.862   2.534  0.00  0.00    -0.115 NA
ATOM      6  N   UNL     1       4.084  -1.945   2.348  0.00  0.00    -0.023 NA
ATOM      7  N   UNL     1       4.580  -0.761   2.248  0.00  0.00    -0.044 NA
ATOM      8  N   UNL     1       3.626   0.100   2.364  0.00  0.00    -0.228 N 
BRANCH   8   9
ATOM      9  C   UNL     1       3.759   1.558   2.310  0.00  0.00    +0.111 C 
ATOM     10  C   UNL     1       4.538   1.971   1.044  0.00  0.00    +0.027 C 
ATOM     11  C   UNL     1       5.403   3.170   1.506  0.00  0.00    +0.002 C 
ATOM     12  C   UNL     1       5.826   2.757   2.937  0.00  0.00    +0.002 C 
ATOM     13  C   UNL     1       4.578   2.058   3.513  0.00  0.00    +0.027 C 
ENDBRANCH   8   9
ENDBRANCH   3   4
BRANCH   3  15
ATOM     14  C   UNL     1      -0.616   0.625   4.424  0.00  0.00    +0.002 C 
ATOM     15  C   UNL     1       0.713  -0.103   4.208  0.00  0.00    -0.011 C 
ENDBRANCH   3  15
ENDBRANCH   1   3
BRANCH   1  16
ATOM     16  C   UNL     1       0.355  -0.549   0.491  0.00  0.00    -0.002 C 
BRANCH  16  17
ATOM     17  C   UNL     1      -0.111   0.840   0.137  0.00  0.00    +0.089 A 
ATOM     18  C   UNL     1       0.644   1.953   0.162  0.00  0.00    +0.042 A 
ATOM     19  C   UNL     1      -0.189   3.022  -0.240  0.00  0.00    +0.041 A 
ATOM     20  C   UNL     1      -1.404   2.499  -0.486  0.00  0.00    +0.195 A 
ATOM     21  O   UNL     1      -1.349   1.176  -0.261  0.00  0.00    -0.470 OA
ENDBRANCH  16  17
ENDBRANCH   1  16
BRANCH   1  22
ATOM     22  C   UNL     1       0.219  -2.219   2.239  0.00  0.00    -0.036 C 
BRANCH  22  23
ATOM     23  C   UNL     1      -1.065  -2.890   1.825  0.00  0.00    +0.001 A 
ATOM     24  C   UNL     1      -1.155  -3.486   0.610  0.00  0.00    +0.017 A 
ATOM     25  C   UNL     1      -2.415  -4.134   0.241  0.00  0.00    +0.002 A 
ATOM     26  C   UNL     1      -2.566  -4.769  -0.996  0.00  0.00    -0.041 A 
ATOM     27  C   UNL     1      -3.756  -5.361  -1.313  0.00  0.00    +0.004 A 
ATOM     28  C   UNL     1      -4.817  -5.338  -0.417  0.00  0.00    +0.005 A 
ATOM     29  C   UNL     1      -4.690  -4.718   0.807  0.00  0.00    -0.026 A 
ATOM     30  C   UNL     1      -3.488  -4.108   1.151  0.00  0.00    +0.052 A 
ATOM     31  N   UNL     1      -3.333  -3.482   2.369  0.00  0.00    -0.322 N 
ATOM     32  H   UNL     1      -4.074  -3.465   2.996  0.00  0.00    +0.169 HD
ATOM     33  C   UNL     1      -2.171  -2.893   2.702  0.00  0.00    +0.251 A 
ATOM     34  O   UNL     1      -2.070  -2.348   3.787  0.00  0.00    -0.268 OA
ATOM     35  C   UNL     1      -5.850  -4.700   1.770  0.00  0.00    +0.046 C 
ATOM     36  C   UNL     1      -1.421  -4.801  -1.976  0.00  0.00    +0.044 C 
ENDBRANCH  22  23
ENDBRANCH   1  22
TORSDOF 8
