REMARK  Name = ZINC35992190
REMARK  11 active torsions:
REMARK  status: ('A' for Active; 'I' for Inactive)
REMARK    1  A    between atoms: C_1  and  C_2
REMARK    2  A    between atoms: C_2  and  N_3
REMARK    3  A    between atoms: C_4  and  C_23
REMARK    4  A    between atoms: C_5  and  C_18
REMARK    5  A    between atoms: C_6  and  C_11
REMARK    6  A    between atoms: C_18  and  O_20
REMARK    7  A    between atoms: O_20  and  C_21
REMARK    8  A    between atoms: C_21  and  C_22
REMARK    9  A    between atoms: C_23  and  N_24
REMARK   10  A    between atoms: C_28  and  C_31
REMARK   11  A    between atoms: C_32  and  C_34
REMARK                            x       y       z     vdW  Elec       q    Type
REMARK                         _______ _______ _______ _____ _____    ______ ____
ROOT
ATOM      1  N   UNL     1       0.791  -0.371  -1.206  0.00  0.00    -0.258 N 
ATOM      2  C   UNL     1       0.388  -0.354  -2.510  0.00  0.00    +0.041 C 
ATOM      3  C   UNL     1       1.234  -0.697  -3.505  0.00  0.00    +0.080 C 
ATOM      4  C   UNL     1       2.645  -1.099  -3.124  0.00  0.00    +0.144 C 
ATOM      5  N   UNL     1       2.979  -1.083  -1.690  0.00  0.00    -0.288 N 
ATOM      6  C   UNL     1       2.025  -0.712  -0.814  0.00  0.00    +0.307 C 
ATOM      7  O   UNL     1       2.292  -0.692   0.372  0.00  0.00    -0.252 OA
ATOM      8  H   UNL     1       3.865  -1.331  -1.384  0.00  0.00    +0.151 HD
ENDROOT
BRANCH   4   9
ATOM      9  C   UNL     1       3.599  -0.174  -3.833  0.00  0.00    -0.020 A 
ATOM     10  C   UNL     1       3.844   1.089  -3.325  0.00  0.00    +0.006 A 
ATOM     11  C   UNL     1       4.719   1.939  -3.974  0.00  0.00    +0.003 A 
ATOM     12  C   UNL     1       5.351   1.528  -5.133  0.00  0.00    +0.038 A 
ATOM     13  C   UNL     1       5.106   0.264  -5.643  0.00  0.00    +0.124 A 
ATOM     14  C   UNL     1       4.234  -0.589  -4.989  0.00  0.00    +0.044 A 
ATOM     15  F   UNL     1       5.723  -0.138  -6.776  0.00  0.00    -0.205 F 
ENDBRANCH   4   9
BRANCH   1  17
ATOM     16  C   UNL     1      -0.099   1.522   0.062  0.00  0.00    +0.025 C 
ATOM     17  C   UNL     1      -0.180   0.013  -0.177  0.00  0.00    +0.111 C 
ENDBRANCH   1  17
BRANCH   3  18
ATOM     18  C   UNL     1       0.818  -0.682  -4.857  0.00  0.00    +0.339 C 
ATOM     19  O   UNL     1       0.474  -1.715  -5.400  0.00  0.00    -0.245 OA
BRANCH  18  20
ATOM     20  O   UNL     1       0.803   0.479  -5.545  0.00  0.00    -0.462 OA
BRANCH  20  21
ATOM     21  C   UNL     1       0.371   0.421  -6.906  0.00  0.00    +0.229 C 
ATOM     22  C   UNL     1       0.421   1.823  -7.517  0.00  0.00    +0.048 C 
ENDBRANCH  20  21
ENDBRANCH  18  20
ENDBRANCH   3  18
BRANCH   2  23
ATOM     23  C   UNL     1      -1.024   0.052  -2.845  0.00  0.00    +0.136 C 
BRANCH  23  24
ATOM     24  N   UNL     1      -1.959  -0.957  -2.330  0.00  0.00    -0.294 NA
ATOM     25  C   UNL     1      -1.784  -2.240  -3.023  0.00  0.00    +0.104 C 
ATOM     26  C   UNL     1      -2.644  -3.308  -2.339  0.00  0.00    +0.124 C 
ATOM     27  N   UNL     1      -4.030  -2.821  -2.275  0.00  0.00    -0.290 N 
ATOM     28  C   UNL     1      -4.271  -1.481  -1.717  0.00  0.00    +0.087 C 
ATOM     29  C   UNL     1      -3.347  -0.485  -2.425  0.00  0.00    +0.107 C 
ATOM     30  C   UNL     1      -5.731  -1.085  -1.944  0.00  0.00    +0.029 C 
ATOM     31  C   UNL     1      -5.052  -3.581  -2.714  0.00  0.00    +0.282 C 
ATOM     32  O   UNL     1      -6.178  -3.123  -2.754  0.00  0.00    -0.267 OA
BRANCH  31  33
ATOM     33  C   UNL     1      -4.806  -4.962  -3.145  0.00  0.00    +0.189 A 
ATOM     34  C   UNL     1      -5.717  -5.793  -3.730  0.00  0.00    +0.054 A 
ATOM     35  C   UNL     1      -5.056  -7.008  -3.973  0.00  0.00    +0.042 A 
ATOM     36  C   UNL     1      -3.788  -6.866  -3.531  0.00  0.00    +0.196 A 
ATOM     37  O   UNL     1      -3.639  -5.630  -3.037  0.00  0.00    -0.458 OA
ENDBRANCH  31  33
ENDBRANCH  23  24
ENDBRANCH   2  23
TORSDOF 8
