REMARK  Name = ZINC08775507
REMARK  7 active torsions:
REMARK  status: ('A' for Active; 'I' for Inactive)
REMARK    1  A    between atoms: C_4  and  C_7
REMARK    2  A    between atoms: C_7  and  C_8
REMARK    3  A    between atoms: N_11  and  C_23
REMARK    4  A    between atoms: N_14  and  C_17
REMARK    5  A    between atoms: N_29  and  C_30
REMARK    6  A    between atoms: C_30  and  C_31
REMARK    7  A    between atoms: C_31  and  C_32
REMARK                            x       y       z     vdW  Elec       q    Type
REMARK                         _______ _______ _______ _____ _____    ______ ____
ROOT
ATOM      1  C   UNL     1      -0.026   0.001   0.257  0.00  0.00    +0.210 C 
ATOM      2  C   UNL     1      -0.007   1.462   0.087  0.00  0.00    +0.241 C 
ATOM      3  O   UNL     1      -1.000   2.061  -0.283  0.00  0.00    -0.274 OA
ATOM      4  N   UNL     1       1.142   2.119   0.347  0.00  0.00    -0.221 N 
ATOM      5  C   UNL     1       2.244   1.471   0.749  0.00  0.00    +0.318 C 
ATOM      6  O   UNL     1       3.248   2.121   0.967  0.00  0.00    -0.252 OA
ATOM      7  N   UNL     1       2.296   0.143   0.924  0.00  0.00    -0.221 N 
ATOM      8  C   UNL     1       1.221  -0.640   0.701  0.00  0.00    +0.241 C 
ATOM      9  O   UNL     1       1.281  -1.844   0.863  0.00  0.00    -0.274 OA
ENDROOT
BRANCH   7  10
ATOM     10  C   UNL     1       3.550  -0.472   1.367  0.00  0.00    +0.086 C 
ATOM     11  C   UNL     1       4.024  -1.478   0.316  0.00  0.00    +0.023 C 
ATOM     12  C   UNL     1       5.333  -2.121   0.778  0.00  0.00    +0.002 C 
ATOM     13  C   UNL     1       5.105  -2.842   2.108  0.00  0.00    +0.000 C 
ATOM     14  C   UNL     1       4.632  -1.836   3.159  0.00  0.00    +0.002 C 
ATOM     15  C   UNL     1       3.322  -1.193   2.697  0.00  0.00    +0.023 C 
ENDBRANCH   7  10
BRANCH   4  16
ATOM     16  C   UNL     1       1.186   3.575   0.184  0.00  0.00    +0.086 C 
ATOM     17  C   UNL     1       0.159   4.223   1.115  0.00  0.00    +0.023 C 
ATOM     18  C   UNL     1       0.205   5.743   0.945  0.00  0.00    +0.002 C 
ATOM     19  C   UNL     1      -0.121   6.104  -0.505  0.00  0.00    +0.000 C 
ATOM     20  C   UNL     1       0.907   5.456  -1.435  0.00  0.00    +0.002 C 
ATOM     21  C   UNL     1       0.861   3.936  -1.266  0.00  0.00    +0.023 C 
ENDBRANCH   4  16
BRANCH   1  22
ATOM     22  C   UNL     1      -1.180  -0.746   0.007  0.00  0.00    +0.064 C 
ATOM     23  N   UNL     1      -2.358  -0.113  -0.261  0.00  0.00    -0.286 NA
BRANCH  22  27
ATOM     24  C   UNL     1      -1.019  -4.986   0.080  0.00  0.00    +0.000 A 
ATOM     25  C   UNL     1      -1.943  -4.319   0.865  0.00  0.00    +0.001 A 
ATOM     26  C   UNL     1      -2.001  -2.941   0.847  0.00  0.00    +0.010 A 
ATOM     27  C   UNL     1      -1.124  -2.219   0.032  0.00  0.00    -0.003 A 
ATOM     28  C   UNL     1      -0.198  -2.901  -0.763  0.00  0.00    +0.010 A 
ATOM     29  C   UNL     1      -0.148  -4.278  -0.730  0.00  0.00    +0.001 A 
ENDBRANCH  22  27
BRANCH  23  30
ATOM     30  C   UNL     1      -3.568  -0.896  -0.523  0.00  0.00    +0.148 C 
BRANCH  30  31
ATOM     31  C   UNL     1      -4.764   0.047  -0.672  0.00  0.00    +0.080 C 
BRANCH  31  32
ATOM     32  C   UNL     1      -6.009  -0.759  -0.941  0.00  0.00    +0.061 A 
ATOM     33  C   UNL     1      -7.152  -0.711  -0.230  0.00  0.00    +0.107 A 
ATOM     34  N   UNL     1      -8.018  -1.596  -0.814  0.00  0.00    -0.351 N 
ATOM     35  H   UNL     1      -8.953  -1.793  -0.519  0.00  0.00    +0.166 HD
ATOM     36  C   UNL     1      -7.374  -2.154  -1.861  0.00  0.00    +0.196 A 
ATOM     37  N   UNL     1      -6.174  -1.645  -1.935  0.00  0.00    -0.241 NA
ENDBRANCH  31  32
ENDBRANCH  30  31
ENDBRANCH  23  30
ENDBRANCH   1  22
TORSDOF 7
