REMARK  Name = ZINC59534132
REMARK  11 active torsions:
REMARK  status: ('A' for Active; 'I' for Inactive)
REMARK    1  A    between atoms: C_1  and  C_2
REMARK    2  A    between atoms: C_4  and  C_24
REMARK    3  A    between atoms: C_5  and  C_23
REMARK    4  A    between atoms: N_6  and  C_7
REMARK    5  A    between atoms: C_10  and  S_13
REMARK    6  A    between atoms: S_13  and  C_14
REMARK    7  A    between atoms: C_17  and  N_20
REMARK    8  A    between atoms: C_25  and  C_26
REMARK    9  A    between atoms: C_25  and  C_28
REMARK   10  A    between atoms: N_30  and  C_31
REMARK   11  A    between atoms: C_31  and  C_32
REMARK                            x       y       z     vdW  Elec       q    Type
REMARK                         _______ _______ _______ _____ _____    ______ ____
ROOT
ATOM      1  C   UNL     1      -0.250   2.410  -0.001  0.00  0.00    +0.064 C 
ATOM      2  C   UNL     1      -0.034   0.936  -0.228  0.00  0.00    +0.022 A 
ATOM      3  C   UNL     1      -0.194   0.297  -1.399  0.00  0.00    +0.031 A 
ATOM      4  C   UNL     1       0.124  -1.116  -1.149  0.00  0.00    -0.003 A 
ATOM      5  C   UNL     1       0.457  -1.197   0.194  0.00  0.00    +0.028 A 
ATOM      6  N   UNL     1       0.362   0.038   0.724  0.00  0.00    -0.317 N 
ATOM      7  C   UNL     1       0.861  -2.448   0.931  0.00  0.00    +0.064 C 
ENDROOT
BRANCH   6   8
ATOM      8  C   UNL     1       0.628   0.356   2.064  0.00  0.00    +0.047 A 
ATOM      9  C   UNL     1       1.916   0.225   2.566  0.00  0.00    +0.027 A 
ATOM     10  C   UNL     1       2.178   0.538   3.884  0.00  0.00    +0.017 A 
ATOM     11  C   UNL     1       1.153   0.986   4.709  0.00  0.00    +0.013 A 
ATOM     12  C   UNL     1      -0.136   1.117   4.206  0.00  0.00    +0.017 A 
ATOM     13  C   UNL     1      -0.396   0.808   2.886  0.00  0.00    +0.027 A 
BRANCH  11  14
ATOM     14  S   UNL     1       1.487   1.385   6.392  0.00  0.00    -0.089 S 
BRANCH  14  15
ATOM     15  C   UNL     1       3.238   1.238   6.526  0.00  0.00    +0.013 A 
ATOM     16  C   UNL     1       4.053   2.321   6.217  0.00  0.00    +0.017 A 
ATOM     17  C   UNL     1       5.425   2.202   6.324  0.00  0.00    +0.034 A 
ATOM     18  C   UNL     1       5.988   1.008   6.737  0.00  0.00    +0.126 A 
ATOM     19  C   UNL     1       5.179  -0.071   7.044  0.00  0.00    +0.034 A 
ATOM     20  C   UNL     1       3.807   0.042   6.945  0.00  0.00    +0.017 A 
BRANCH  18  21
ATOM     21  N   UNL     1       7.458   0.885   6.849  0.00  0.00    +0.056 N 
ATOM     22  O   UNL     1       8.166   1.827   6.580  0.00  0.00    -0.126 OA
ATOM     23  O   UNL     1       7.952  -0.158   7.210  0.00  0.00    -0.126 OA
ENDBRANCH  18  21
ENDBRANCH  14  15
ENDBRANCH  11  14
ENDBRANCH   6   8
BRANCH   4  24
ATOM     24  C   UNL     1       0.096  -2.177  -2.088  0.00  0.00    +0.033 C 
ATOM     25  C   UNL     1      -0.577  -2.022  -3.285  0.00  0.00    +0.114 C 
BRANCH  25  26
ATOM     26  C   UNL     1      -0.478  -3.058  -4.322  0.00  0.00    +0.255 C 
ATOM     27  O   UNL     1       0.196  -4.052  -4.127  0.00  0.00    -0.269 OA
ATOM     28  N   UNL     1      -1.134  -2.908  -5.490  0.00  0.00    -0.304 N 
ATOM     29  H   UNL     1      -1.671  -2.115  -5.645  0.00  0.00    +0.149 HD
BRANCH  28  30
ATOM     30  C   UNL     1      -1.035  -3.940  -6.524  0.00  0.00    +0.179 C 
BRANCH  30  31
ATOM     31  C   UNL     1      -1.855  -3.533  -7.721  0.00  0.00    +0.122 A 
ATOM     32  C   UNL     1      -1.413  -2.818  -8.771  0.00  0.00    +0.046 A 
ATOM     33  C   UNL     1      -2.506  -2.667  -9.654  0.00  0.00    +0.041 A 
ATOM     34  C   UNL     1      -3.552  -3.299  -9.091  0.00  0.00    +0.195 A 
ATOM     35  O   UNL     1      -3.150  -3.826  -7.923  0.00  0.00    -0.466 OA
ENDBRANCH  30  31
ENDBRANCH  28  30
ENDBRANCH  25  26
BRANCH  25  36
ATOM     36  C   UNL     1      -1.370  -0.853  -3.514  0.00  0.00    +0.104 C 
ATOM     37  N   UNL     1      -1.999   0.075  -3.697  0.00  0.00    -0.191 NA
ENDBRANCH  25  36
ENDBRANCH   4  24
TORSDOF 9
