REMARK  Name = ZINC38975466
REMARK  5 active torsions:
REMARK  status: ('A' for Active; 'I' for Inactive)
REMARK    1  A    between atoms: C_1  and  C_2
REMARK    2  A    between atoms: C_6  and  C_8
REMARK    3  A    between atoms: N_14  and  N_15
REMARK    4  A    between atoms: C_16  and  C_17
REMARK    5  A    between atoms: C_22  and  O_23
REMARK                            x       y       z     vdW  Elec       q    Type
REMARK                         _______ _______ _______ _____ _____    ______ ____
ROOT
ATOM      1  C   UNL     1       0.064  -2.852   2.501  0.00  0.00    +0.264 C 
ATOM      2  N   UNL     1      -0.702  -2.127   3.527  0.00  0.00    -0.189 NA
ATOM      3  N   UNL     1      -1.649  -2.838   3.872  0.00  0.00    -0.219 N 
ATOM      4  C   UNL     1      -1.693  -4.032   3.222  0.00  0.00    +0.174 C 
ATOM      5  S   UNL     1      -2.879  -5.241   3.471  0.00  0.00    -0.015 S 
ATOM      6  N   UNL     1      -0.661  -4.127   2.349  0.00  0.00    -0.172 N 
ATOM      7  H   UNL     1      -2.298  -2.572   4.542  0.00  0.00    +0.176 HD
ENDROOT
BRANCH   1  13
ATOM      8  C   UNL     1       0.053   1.505   0.039  0.00  0.00    +0.044 C 
ATOM      9  C   UNL     1       0.060  -0.002   0.025  0.00  0.00    -0.050 A 
ATOM     10  C   UNL     1       0.070  -0.682  -1.178  0.00  0.00    +0.003 A 
ATOM     11  C   UNL     1       0.077  -2.064  -1.191  0.00  0.00    +0.001 A 
ATOM     12  C   UNL     1       0.075  -2.766  -0.000  0.00  0.00    +0.007 A 
ATOM     13  C   UNL     1       0.067  -2.086   1.203  0.00  0.00    -0.002 A 
ATOM     14  C   UNL     1       0.064  -0.704   1.216  0.00  0.00    +0.010 A 
ENDBRANCH   1  13
BRANCH   6  15
ATOM     15  N   UNL     1      -0.352  -5.193   1.494  0.00  0.00    -0.183 NA
ATOM     16  C   UNL     1      -1.032  -6.298   1.562  0.00  0.00    +0.142 C 
BRANCH  16  17
ATOM     17  C   UNL     1      -0.637  -7.457   0.743  0.00  0.00    +0.038 A 
ATOM     18  C   UNL     1      -1.369  -8.645   0.808  0.00  0.00    +0.028 A 
ATOM     19  C   UNL     1      -0.994  -9.727   0.039  0.00  0.00    +0.020 A 
ATOM     20  C   UNL     1       0.106  -9.640  -0.799  0.00  0.00    +0.034 A 
ATOM     21  C   UNL     1       0.839  -8.470  -0.872  0.00  0.00    +0.061 A 
ATOM     22  C   UNL     1       0.472  -7.372  -0.110  0.00  0.00    +0.139 A 
ATOM     23 BR   UNL     1       2.338  -8.364  -2.020  0.00  0.00    -0.046 Br
ATOM     24 BR   UNL     1      -1.984 -11.335   0.128  0.00  0.00    -0.050 Br
BRANCH  22  25
ATOM     25  O   UNL     1       1.187  -6.219  -0.186  0.00  0.00    -0.505 OA
ATOM     26  H   UNL     1       1.919  -6.168   0.445  0.00  0.00    +0.292 HD
ENDBRANCH  22  25
ENDBRANCH  16  17
ENDBRANCH   6  15
TORSDOF 4
