REMARK  Name = ZINC57586988
REMARK  8 active torsions:
REMARK  status: ('A' for Active; 'I' for Inactive)
REMARK    1  A    between atoms: C_1  and  C_2
REMARK    2  A    between atoms: C_3  and  C_14
REMARK    3  A    between atoms: N_16  and  C_17
REMARK    4  A    between atoms: C_17  and  C_18
REMARK    5  A    between atoms: C_21  and  C_24
REMARK    6  A    between atoms: C_24  and  N_25
REMARK    7  A    between atoms: C_27  and  C_34
REMARK    8  A    between atoms: C_30  and  C_33
REMARK                            x       y       z     vdW  Elec       q    Type
REMARK                         _______ _______ _______ _____ _____    ______ ____
ROOT
ATOM      1  C   UNL     1      -0.005  -0.370  -2.520  0.00  0.00    +0.248 C 
ATOM      2  O   UNL     1      -0.022   0.818  -2.781  0.00  0.00    -0.270 OA
ATOM      3  N   UNL     1       0.003  -1.279  -3.515  0.00  0.00    -0.307 N 
ATOM      4  H   UNL     1       0.017  -2.226  -3.307  0.00  0.00    +0.149 HD
ENDROOT
BRANCH   1   7
ATOM      5  C   UNL     1      -0.018   1.503   0.010  0.00  0.00    +0.066 C 
ATOM      6  C   UNL     1       0.002  -0.004   0.002  0.00  0.00    +0.056 A 
ATOM      7  C   UNL     1       0.008  -0.815  -1.115  0.00  0.00    +0.077 A 
ATOM      8  C   UNL     1       0.028  -2.153  -0.659  0.00  0.00    +0.148 A 
ATOM      9  N   UNL     1       0.034  -2.136   0.645  0.00  0.00    -0.172 NA
ATOM     10  N   UNL     1       0.024  -0.807   1.082  0.00  0.00    -0.216 N 
ATOM     11  C   UNL     1       0.032  -0.384   2.416  0.00  0.00    +0.176 A 
ATOM     12  C   UNL     1      -0.452  -1.223   3.418  0.00  0.00    +0.055 A 
ATOM     13  C   UNL     1      -0.423  -0.760   4.723  0.00  0.00    +0.077 A 
ATOM     14  C   UNL     1       0.086   0.516   4.953  0.00  0.00    +0.289 A 
ATOM     15  O   UNL     1       0.135   1.012   6.215  0.00  0.00    -0.264 OA
ATOM     16  N   UNL     1       0.524   1.243   3.938  0.00  0.00    -0.105 NA
ATOM     17  N   UNL     1       0.502   0.812   2.729  0.00  0.00    -0.126 NA
ENDBRANCH   1   7
BRANCH   3  18
ATOM     18  C   UNL     1      -0.009  -0.836  -4.912  0.00  0.00    +0.139 C 
BRANCH  18  19
ATOM     19  C   UNL     1       0.003  -2.038  -5.820  0.00  0.00    -0.030 A 
ATOM     20  C   UNL     1       1.206  -2.577  -6.238  0.00  0.00    +0.005 A 
ATOM     21  C   UNL     1       1.217  -3.680  -7.071  0.00  0.00    +0.002 A 
ATOM     22  C   UNL     1       0.026  -4.245  -7.486  0.00  0.00    -0.064 A 
ATOM     23  C   UNL     1      -1.177  -3.707  -7.067  0.00  0.00    +0.002 A 
ATOM     24  C   UNL     1      -1.188  -2.607  -6.231  0.00  0.00    +0.005 A 
BRANCH  22  25
ATOM     25  C   UNL     1       0.038  -5.447  -8.395  0.00  0.00    -0.043 C 
BRANCH  25  26
ATOM     26  N   UNL     1       0.053  -6.673  -7.586  0.00  0.00    +0.383 N 
ATOM     27  C   UNL     1       1.306  -6.739  -6.824  0.00  0.00    -0.075 C 
ATOM     28  C   UNL     1       1.292  -7.972  -5.918  0.00  0.00    -0.031 C 
ATOM     29  C   UNL     1       1.150  -9.230  -6.780  0.00  0.00    +0.003 C 
ATOM     30  C   UNL     1      -0.121  -9.116  -7.625  0.00  0.00    -0.031 C 
ATOM     31  C   UNL     1      -0.055  -7.841  -8.468  0.00  0.00    -0.075 C 
ATOM     32  C   UNL     1      -1.343  -9.060  -6.706  0.00  0.00    +0.005 C 
ATOM     33  C   UNL     1       2.600  -8.039  -5.126  0.00  0.00    +0.005 C 
ATOM     34  H   UNL     1      -0.727  -6.662  -6.946  0.00  0.00    -0.081 HD
ENDBRANCH  25  26
ENDBRANCH  22  25
ENDBRANCH  18  19
ENDBRANCH   3  18
TORSDOF 5
