REMARK  Name = ZINC13169255
REMARK  8 active torsions:
REMARK  status: ('A' for Active; 'I' for Inactive)
REMARK    1  A    between atoms: C_1  and  C_2
REMARK    2  A    between atoms: C_5  and  C_32
REMARK    3  A    between atoms: N_8  and  S_10
REMARK    4  A    between atoms: S_10  and  C_13
REMARK    5  A    between atoms: C_16  and  C_19
REMARK    6  A    between atoms: N_21  and  C_22
REMARK    7  A    between atoms: C_24  and  C_30
REMARK    8  A    between atoms: C_26  and  C_28
REMARK                            x       y       z     vdW  Elec       q    Type
REMARK                         _______ _______ _______ _____ _____    ______ ____
ROOT
ATOM      1  C   UNL     1      -1.347   1.421   4.912  0.00  0.00    +0.106 A 
ATOM      2  C   UNL     1      -0.488   1.997   5.832  0.00  0.00    +0.029 A 
ATOM      3  C   UNL     1      -0.964   2.920   6.740  0.00  0.00    +0.015 A 
ATOM      4  C   UNL     1      -2.316   3.266   6.736  0.00  0.00    +0.037 A 
ATOM      5  C   UNL     1      -3.178   2.677   5.809  0.00  0.00    +0.015 A 
ATOM      6  C   UNL     1      -2.688   1.759   4.903  0.00  0.00    +0.029 A 
ENDROOT
BRANCH   4   7
ATOM      7  C   UNL     1      -2.833   4.250   7.710  0.00  0.00    +0.248 C 
ATOM      8  O   UNL     1      -4.012   4.548   7.704  0.00  0.00    -0.270 OA
ATOM      9  N   UNL     1      -1.999   4.816   8.604  0.00  0.00    -0.281 N 
ATOM     10  H   UNL     1      -1.076   4.523   8.659  0.00  0.00    +0.155 HD
BRANCH   9  11
ATOM     11  C   UNL     1      -2.464   5.828   9.451  0.00  0.00    +0.035 A 
ATOM     12  C   UNL     1      -3.428   6.718   9.002  0.00  0.00    +0.038 A 
ATOM     13  C   UNL     1      -3.898   7.725   9.848  0.00  0.00    +0.066 A 
ATOM     14  C   UNL     1      -3.389   7.843  11.140  0.00  0.00    +0.030 A 
ATOM     15  C   UNL     1      -2.416   6.950  11.585  0.00  0.00    +0.066 A 
ATOM     16  C   UNL     1      -1.954   5.942  10.736  0.00  0.00    +0.038 A 
BRANCH  15  17
ATOM     17  C   UNL     1      -1.873   7.070  12.954  0.00  0.00    +0.387 C 
ATOM     18  O   UNL     1      -1.025   6.292  13.342  0.00  0.00    -0.241 OA
ATOM     19  O   UNL     1      -2.319   8.043  13.772  0.00  0.00    -0.241 OA
ENDBRANCH  15  17
BRANCH  13  20
ATOM     20  C   UNL     1      -4.931   8.669   9.371  0.00  0.00    +0.387 C 
ATOM     21  O   UNL     1      -5.374   8.566   8.245  0.00  0.00    -0.241 OA
ATOM     22  O   UNL     1      -5.380   9.644  10.185  0.00  0.00    -0.241 OA
ENDBRANCH  13  20
ENDBRANCH   9  11
ENDBRANCH   4   7
BRANCH   1  23
ATOM     23  S   UNL     1      -0.730   0.247   3.752  0.00  0.00    +0.061 S 
ATOM     24  O   UNL     1      -1.835  -0.556   3.361  0.00  0.00    -0.153 OA
ATOM     25  O   UNL     1       0.449  -0.305   4.321  0.00  0.00    -0.153 OA
BRANCH  23  31
ATOM     26  C   UNL     1       3.090   1.731   0.757  0.00  0.00    +0.009 C 
ATOM     27  C   UNL     1       1.710   1.103   0.964  0.00  0.00    +0.002 C 
ATOM     28  C   UNL     1       0.787   1.506  -0.188  0.00  0.00    +0.009 C 
ATOM     29  C   UNL     1      -0.583   0.851   0.000  0.00  0.00    +0.002 C 
ATOM     30  C   UNL     1      -1.203   1.343   1.312  0.00  0.00    +0.112 C 
ATOM     31  N   UNL     1      -0.257   1.089   2.407  0.00  0.00    -0.176 NA
ATOM     32  C   UNL     1       1.116   1.597   2.286  0.00  0.00    +0.112 C 
ATOM     33  C   UNL     1      -1.494   1.228  -1.169  0.00  0.00    +0.009 C 
ENDBRANCH  23  31
ENDBRANCH   1  23
TORSDOF 6
