REMARK  Name = ZINC08767931
REMARK  7 active torsions:
REMARK  status: ('A' for Active; 'I' for Inactive)
REMARK    1  A    between atoms: C_1  and  C_2
REMARK    2  A    between atoms: C_7  and  N_8
REMARK    3  A    between atoms: C_9  and  C_11
REMARK    4  A    between atoms: C_11  and  S_12
REMARK    5  A    between atoms: S_12  and  C_13
REMARK    6  A    between atoms: C_30  and  C_32
REMARK    7  A    between atoms: C_30  and  C_33
REMARK                            x       y       z     vdW  Elec       q    Type
REMARK                         _______ _______ _______ _____ _____    ______ ____
ROOT
ATOM      1  C   UNL     1       0.116   0.957   2.707  0.00  0.00    +0.115 A 
ATOM      2  C   UNL     1      -0.161   1.142   4.054  0.00  0.00    +0.072 A 
ATOM      3  C   UNL     1       0.652   0.573   5.041  0.00  0.00    +0.092 A 
ATOM      4  C   UNL     1       0.257   0.841   6.436  0.00  0.00    +0.035 A 
ATOM      5  C   UNL     1       0.899   0.391   7.616  0.00  0.00    -0.024 A 
ATOM      6  C   UNL     1       0.393   0.738   8.829  0.00  0.00    +0.020 A 
ATOM      7  C   UNL     1      -0.758   1.531   8.903  0.00  0.00    +0.105 A 
ATOM      8  C   UNL     1      -0.890   1.634   6.608  0.00  0.00    +0.089 A 
ATOM      9  S   UNL     1      -1.417   2.009   4.954  0.00  0.00    -0.066 S 
ATOM     10  N   UNL     1      -1.276   1.880  10.143  0.00  0.00    -0.312 N 
ATOM     11  C   UNL     1      -2.565   1.216  10.381  0.00  0.00    +0.134 C 
ATOM     12  C   UNL     1      -3.070   1.581  11.780  0.00  0.00    +0.178 C 
ATOM     13  O   UNL     1      -3.166   3.003  11.890  0.00  0.00    -0.377 OA
ATOM     14  C   UNL     1      -1.927   3.683  11.664  0.00  0.00    +0.178 C 
ATOM     15  C   UNL     1      -1.411   3.339  10.265  0.00  0.00    +0.134 C 
ATOM     16  C   UNL     1       1.046   0.289  10.111  0.00  0.00    +0.199 C 
ATOM     17  O   UNL     1       1.951  -0.784   9.856  0.00  0.00    -0.369 OA
ATOM     18  C   UNL     1       2.886  -0.497   8.809  0.00  0.00    +0.068 C 
ATOM     19  C   UNL     1       2.128  -0.468   7.480  0.00  0.00    +0.070 C 
ATOM     20  C   UNL     1       3.960  -1.585   8.765  0.00  0.00    +0.041 C 
ATOM     21  C   UNL     1       3.539   0.863   9.061  0.00  0.00    +0.041 C 
ATOM     22  N   UNL     1       1.703  -0.155   4.598  0.00  0.00    -0.234 NA
ATOM     23  C   UNL     1       1.935  -0.309   3.319  0.00  0.00    +0.223 A 
ATOM     24  N   UNL     1       1.175   0.216   2.376  0.00  0.00    -0.228 NA
ATOM     25  N   UNL     1      -1.419   1.993   7.804  0.00  0.00    -0.337 N 
ATOM     26  H   UNL     1      -2.262   2.574   7.877  0.00  0.00    +0.168 HD
ENDROOT
BRANCH   1  27
ATOM     27  S   UNL     1      -0.908   1.675   1.466  0.00  0.00    -0.095 S 
BRANCH  27  28
ATOM     28  C   UNL     1      -0.057   1.091  -0.021  0.00  0.00    +0.172 C 
BRANCH  28  30
ATOM     29  N   UNL     1      -0.320   1.286  -2.473  0.00  0.00    -0.285 N 
ATOM     30  C   UNL     1      -0.777   1.598  -1.244  0.00  0.00    +0.227 C 
ATOM     31  O   UNL     1      -1.768   2.286  -1.122  0.00  0.00    -0.275 OA
ATOM     32  H   UNL     1       0.516   0.804  -2.571  0.00  0.00    +0.155 HD
BRANCH  29  39
ATOM     33  C   UNL     1       1.077   1.589  -4.933  0.00  0.00    +0.045 C 
ATOM     34  C   UNL     1      -0.408   1.817  -4.827  0.00  0.00    -0.029 A 
ATOM     35  C   UNL     1      -1.133   2.185  -5.944  0.00  0.00    +0.005 A 
ATOM     36  C   UNL     1      -2.496   2.393  -5.848  0.00  0.00    +0.000 A 
ATOM     37  C   UNL     1      -3.139   2.235  -4.634  0.00  0.00    +0.002 A 
ATOM     38  C   UNL     1      -2.421   1.864  -3.514  0.00  0.00    +0.023 A 
ATOM     39  C   UNL     1      -1.051   1.658  -3.607  0.00  0.00    +0.036 A 
ENDBRANCH  29  39
ENDBRANCH  28  30
ENDBRANCH  27  28
ENDBRANCH   1  27
TORSDOF 4
