REMARK  Name = ZINC13614458
REMARK  6 active torsions:
REMARK  status: ('A' for Active; 'I' for Inactive)
REMARK    1  A    between atoms: C_1  and  C_2
REMARK    2  A    between atoms: C_2  and  C_4
REMARK    3  A    between atoms: C_15  and  S_20
REMARK    4  A    between atoms: S_20  and  C_21
REMARK    5  A    between atoms: C_26  and  N_27
REMARK    6  A    between atoms: C_30  and  C_33
REMARK                            x       y       z     vdW  Elec       q    Type
REMARK                         _______ _______ _______ _____ _____    ______ ____
ROOT
ATOM      1  C   UNL     1       6.559   5.085   0.147  0.00  0.00    +0.017 A 
ATOM      2  C   UNL     1       7.658   5.070  -0.723  0.00  0.00    +0.013 A 
ATOM      3  C   UNL     1       8.411   3.938  -0.838  0.00  0.00    +0.024 A 
ATOM      4  C   UNL     1       8.090   2.802  -0.096  0.00  0.00    +0.031 A 
ATOM      5  C   UNL     1       6.994   2.804   0.761  0.00  0.00    -0.021 A 
ATOM      6  C   UNL     1       6.242   3.942   0.888  0.00  0.00    +0.017 A 
ATOM      7  C   UNL     1       6.617   1.605   1.589  0.00  0.00    +0.045 C 
ATOM      8  C   UNL     1       7.348   0.337   1.115  0.00  0.00    +0.024 C 
ATOM      9  C   UNL     1       6.593  -0.105  -0.151  0.00  0.00    +0.022 C 
ATOM     10  C   UNL     1       5.179   0.497  -0.044  0.00  0.00    +0.070 C 
ATOM     11  C   UNL     1       5.131   1.272   1.289  0.00  0.00    +0.101 C 
ATOM     12 CL   UNL     1       4.439   0.239   2.595  0.00  0.00    -0.120 Cl
ATOM     13  C   UNL     1       8.809   0.634   0.807  0.00  0.00    +0.104 C 
ATOM     14  N   UNL     1       8.878   1.663  -0.236  0.00  0.00    -0.336 N 
ATOM     15  H   UNL     1       9.457   1.552  -1.006  0.00  0.00    +0.147 HD
ENDROOT
BRANCH  13  16
ATOM     16  C   UNL     1       9.496   1.130   2.054  0.00  0.00    -0.027 A 
ATOM     17  C   UNL     1       9.352   2.449   2.443  0.00  0.00    +0.007 A 
ATOM     18  C   UNL     1       9.977   2.903   3.589  0.00  0.00    +0.020 A 
ATOM     19  C   UNL     1      10.755   2.041   4.341  0.00  0.00    +0.041 A 
ATOM     20  C   UNL     1      10.904   0.723   3.947  0.00  0.00    +0.020 A 
ATOM     21  C   UNL     1      10.274   0.268   2.804  0.00  0.00    +0.007 A 
ATOM     22 CL   UNL     1      11.546   2.613   5.777  0.00  0.00    -0.084 Cl
ENDBRANCH  13  16
BRANCH   1  24
ATOM     23  C   UNL     1       6.085   7.528  -0.521  0.00  0.00    +0.091 C 
ATOM     24  C   UNL     1       5.742   6.297   0.279  0.00  0.00    +0.160 C 
ATOM     25  O   UNL     1       4.791   6.308   1.032  0.00  0.00    -0.292 OA
ENDBRANCH   1  24
BRANCH  10  26
ATOM     26  S   UNL     1       3.939  -0.827  -0.040  0.00  0.00    -0.118 S 
BRANCH  26  27
ATOM     27  C   UNL     1       2.400   0.031  -0.021  0.00  0.00    +0.038 A 
ATOM     28  C   UNL     1       2.377   1.421  -0.013  0.00  0.00    +0.017 A 
ATOM     29  C   UNL     1       1.170   2.090   0.002  0.00  0.00    +0.001 A 
ATOM     30  C   UNL     1      -0.017   1.379   0.010  0.00  0.00    +0.002 A 
ATOM     31  C   UNL     1       0.002  -0.004   0.002  0.00  0.00    +0.034 A 
ATOM     32  C   UNL     1       1.206  -0.680  -0.013  0.00  0.00    +0.140 A 
BRANCH  32  33
ATOM     33  N   UNL     1       1.225  -2.160  -0.021  0.00  0.00    +0.058 N 
ATOM     34  O   UNL     1       0.179  -2.782  -0.014  0.00  0.00    -0.126 OA
ATOM     35  O   UNL     1       2.288  -2.755  -0.034  0.00  0.00    -0.126 OA
ENDBRANCH  32  33
ENDBRANCH  26  27
ENDBRANCH  10  26
TORSDOF 5
