REMARK  Name = ZINC06828610
REMARK  9 active torsions:
REMARK  status: ('A' for Active; 'I' for Inactive)
REMARK    1  A    between atoms: C_1  and  C_2
REMARK    2  A    between atoms: C_2  and  C_3
REMARK    3  A    between atoms: C_2  and  C_4
REMARK    4  A    between atoms: C_7  and  N_10
REMARK    5  A    between atoms: C_11  and  C_13
REMARK    6  A    between atoms: C_13  and  C_23
REMARK    7  A    between atoms: C_14  and  C_15
REMARK    8  A    between atoms: C_18  and  O_22
REMARK    9  A    between atoms: C_19  and  O_21
REMARK                            x       y       z     vdW  Elec       q    Type
REMARK                         _______ _______ _______ _____ _____    ______ ____
ROOT
ATOM      1  C   UNL     1       2.503  -0.292   0.045  0.00  0.00    +0.114 C 
ATOM      2  C   UNL     1       2.483   1.079  -0.094  0.00  0.00    +0.032 C 
ENDROOT
BRANCH   2   3
ATOM      3  C   UNL     1       1.215   1.806  -0.001  0.00  0.00    -0.020 A 
ATOM      4  C   UNL     1       1.053   3.026  -0.672  0.00  0.00    +0.012 A 
ATOM      5  C   UNL     1      -0.138   3.709  -0.578  0.00  0.00    +0.050 A 
ATOM      6  C   UNL     1      -1.186   3.187   0.171  0.00  0.00    +0.158 A 
ATOM      7  C   UNL     1      -1.033   1.973   0.841  0.00  0.00    +0.159 A 
ATOM      8  C   UNL     1       0.159   1.283   0.758  0.00  0.00    +0.057 A 
BRANCH   7   9
ATOM      9  O   UNL     1      -2.060   1.469   1.577  0.00  0.00    -0.503 OA
ATOM     10  H   UNL     1      -2.059   1.754   2.501  0.00  0.00    +0.292 HD
ENDBRANCH   7   9
BRANCH   6  11
ATOM     11  O   UNL     1      -2.360   3.863   0.255  0.00  0.00    -0.503 OA
ATOM     12  H   UNL     1      -2.402   4.490   0.990  0.00  0.00    +0.292 HD
ENDBRANCH   6  11
ENDBRANCH   2   3
BRANCH   1  14
ATOM     13  N   UNL     1       3.808  -2.344   0.271  0.00  0.00    -0.281 N 
ATOM     14  C   UNL     1       3.788  -1.003   0.135  0.00  0.00    +0.259 C 
ATOM     15  O   UNL     1       4.832  -0.381   0.086  0.00  0.00    -0.269 OA
ATOM     16  H   UNL     1       2.979  -2.847   0.234  0.00  0.00    +0.155 HD
BRANCH  13  20
ATOM     17  C   UNL     1       7.425  -4.325   0.854  0.00  0.00    -0.045 A 
ATOM     18  C   UNL     1       7.286  -3.010   1.259  0.00  0.00    +0.006 A 
ATOM     19  C   UNL     1       6.088  -2.350   1.067  0.00  0.00    +0.023 A 
ATOM     20  C   UNL     1       5.022  -3.009   0.467  0.00  0.00    +0.034 A 
ATOM     21  C   UNL     1       5.164  -4.331   0.067  0.00  0.00    +0.023 A 
ATOM     22  C   UNL     1       6.366  -4.983   0.256  0.00  0.00    +0.006 A 
BRANCH  17  24
ATOM     23  C   UNL     1       8.508  -6.264   1.956  0.00  0.00    +0.012 C 
ATOM     24  C   UNL     1       8.734  -5.041   1.065  0.00  0.00    +0.013 C 
ATOM     25  C   UNL     1       9.293  -5.491  -0.286  0.00  0.00    +0.012 C 
ENDBRANCH  17  24
ENDBRANCH  13  20
ENDBRANCH   1  14
BRANCH   1  26
ATOM     26  C   UNL     1       1.274  -1.024   0.102  0.00  0.00    +0.104 C 
ATOM     27  N   UNL     1       0.299  -1.605   0.148  0.00  0.00    -0.191 NA
ENDBRANCH   1  26
TORSDOF 7
