REMARK  Name = ZINC31379606
REMARK  15 active torsions:
REMARK  status: ('A' for Active; 'I' for Inactive)
REMARK    1  A    between atoms: C_1  and  C_2
REMARK    2  A    between atoms: C_2  and  N_3
REMARK    3  A    between atoms: N_3  and  C_4
REMARK    4  A    between atoms: N_3  and  C_6
REMARK    5  A    between atoms: C_4  and  C_5
REMARK    6  A    between atoms: C_6  and  C_8
REMARK    7  A    between atoms: C_6  and  C_32
REMARK    8  A    between atoms: C_8  and  N_9
REMARK    9  A    between atoms: C_10  and  C_12
REMARK   10  A    between atoms: C_14  and  C_20
REMARK   11  A    between atoms: C_17  and  O_18
REMARK   12  A    between atoms: O_18  and  C_19
REMARK   13  A    between atoms: C_20  and  N_21
REMARK   14  A    between atoms: C_32  and  C_33
REMARK   15  A    between atoms: C_32  and  C_34
REMARK                            x       y       z     vdW  Elec       q    Type
REMARK                         _______ _______ _______ _____ _____    ______ ____
ROOT
ATOM      1  C   UNL     1       0.400   4.797   0.627  0.00  0.00    +0.079 A 
ATOM      2  C   UNL     1       1.231   5.844   0.222  0.00  0.00    +0.022 A 
ATOM      3  C   UNL     1       2.584   5.630   0.075  0.00  0.00    -0.029 A 
ATOM      4  C   UNL     1       3.125   4.379   0.327  0.00  0.00    +0.009 A 
ATOM      5  C   UNL     1       2.316   3.336   0.728  0.00  0.00    +0.047 A 
ATOM      6  C   UNL     1       0.951   3.532   0.877  0.00  0.00    +0.132 A 
ENDROOT
BRANCH   1   8
ATOM      7  N   UNL     1      -1.576   6.236   0.542  0.00  0.00    -0.313 N 
ATOM      8  C   UNL     1      -1.050   5.019   0.787  0.00  0.00    +0.248 C 
ATOM      9  O   UNL     1      -1.770   4.105   1.140  0.00  0.00    -0.270 OA
ATOM     10  H   UNL     1      -0.924   7.062   0.222  0.00  0.00    +0.149 HD
BRANCH   7  11
ATOM     11  C   UNL     1      -3.015   6.457   0.700  0.00  0.00    +0.089 C 
BRANCH  11  12
ATOM     12  C   UNL     1      -3.349   7.911   0.362  0.00  0.00    -0.049 C 
BRANCH  12  13
ATOM     13  C   UNL     1      -4.865   8.110   0.405  0.00  0.00    -0.029 C 
ATOM     14  C   UNL     1      -5.397   7.676   1.772  0.00  0.00    +0.005 C 
ATOM     15  C   UNL     1      -5.192   9.588   0.177  0.00  0.00    +0.005 C 
ENDBRANCH  12  13
BRANCH  12  16
ATOM     16  N   UNL     1      -2.852   8.227  -0.984  0.00  0.00    +0.382 N 
ATOM     17  H   UNL     1      -1.937   7.639  -1.153  0.00  0.00    -0.081 HD
BRANCH  16  19
ATOM     18  C   UNL     1      -3.961   6.320  -2.047  0.00  0.00    -0.017 C 
ATOM     19  C   UNL     1      -3.831   7.844  -2.010  0.00  0.00    -0.082 C 
ENDBRANCH  16  19
BRANCH  16  20
ATOM     20  C   UNL     1      -2.501   9.649  -1.095  0.00  0.00    -0.082 C 
ATOM     21  C   UNL     1      -1.620   9.862  -2.328  0.00  0.00    -0.017 C 
ENDBRANCH  16  20
ENDBRANCH  12  16
ENDBRANCH  11  12
ENDBRANCH   7  11
ENDBRANCH   1   8
BRANCH   6  22
ATOM     22  O   UNL     1       0.153   2.507   1.266  0.00  0.00    -0.494 OA
ATOM     23  C   UNL     1       0.786   1.248   1.506  0.00  0.00    +0.277 C 
ENDBRANCH   6  22
BRANCH   3  24
ATOM     24  C   UNL     1       3.479   6.760  -0.363  0.00  0.00    +0.152 C 
BRANCH  24  25
ATOM     25  N   UNL     1       3.570   6.774  -1.825  0.00  0.00    -0.230 N 
ATOM     26  C   UNL     1       4.497   6.110  -2.537  0.00  0.00    +0.254 C 
ATOM     27  O   UNL     1       5.380   5.413  -2.076  0.00  0.00    -0.270 OA
ATOM     28  C   UNL     1       4.262   6.366  -3.973  0.00  0.00    +0.049 A 
ATOM     29  C   UNL     1       4.882   5.958  -5.143  0.00  0.00    +0.014 A 
ATOM     30  C   UNL     1       4.400   6.398  -6.366  0.00  0.00    +0.001 A 
ATOM     31  C   UNL     1       3.306   7.241  -6.425  0.00  0.00    +0.001 A 
ATOM     32  C   UNL     1       2.676   7.658  -5.263  0.00  0.00    +0.014 A 
ATOM     33  C   UNL     1       3.147   7.226  -4.034  0.00  0.00    +0.049 A 
ATOM     34  C   UNL     1       2.739   7.458  -2.632  0.00  0.00    +0.254 C 
ATOM     35  O   UNL     1       1.809   8.150  -2.270  0.00  0.00    -0.270 OA
ENDBRANCH  24  25
ENDBRANCH   3  24
TORSDOF 10
