REMARK  Name = ZINC33276079
REMARK  4 active torsions:
REMARK  status: ('A' for Active; 'I' for Inactive)
REMARK    1  A    between atoms: C_1  and  C_2
REMARK    2  A    between atoms: C_6  and  N_9
REMARK    3  A    between atoms: C_7  and  C_8
REMARK    4  A    between atoms: C_15  and  C_17
REMARK                            x       y       z     vdW  Elec       q    Type
REMARK                         _______ _______ _______ _____ _____    ______ ____
ROOT
ATOM      1  N   UNL     1       0.841  -0.484   1.126  0.00  0.00    -0.327 N 
ATOM      2  C   UNL     1       0.047  -0.001  -0.012  0.00  0.00    +0.124 C 
ATOM      3  C   UNL     1       0.023   1.531   0.001  0.00  0.00    +0.127 C 
ATOM      4  N   UNL     1       1.410   2.020   0.044  0.00  0.00    -0.295 N 
ATOM      5  C   UNL     1       2.308   1.476   1.074  0.00  0.00    +0.127 C 
ATOM      6  C   UNL     1       2.242  -0.053   1.020  0.00  0.00    +0.124 C 
ATOM      7  C   UNL     1       1.846   2.942  -0.837  0.00  0.00    +0.266 C 
ATOM      8  O   UNL     1       1.092   3.379  -1.680  0.00  0.00    -0.271 OA
ENDROOT
BRANCH   7   9
ATOM      9  C   UNL     1       3.271   3.428  -0.775  0.00  0.00    +0.344 C 
ATOM     10  C   UNL     1       3.493   4.168   0.520  0.00  0.00    +0.267 C 
ATOM     11  O   UNL     1       3.917   3.579   1.492  0.00  0.00    -0.271 OA
ATOM     12  N   UNL     1       3.217   5.487   0.593  0.00  0.00    -0.279 N 
ATOM     13  C   UNL     1       2.842   6.173  -0.570  0.00  0.00    +0.076 A 
ATOM     14  C   UNL     1       2.348   7.465  -0.499  0.00  0.00    +0.027 A 
ATOM     15  C   UNL     1       1.974   8.124  -1.656  0.00  0.00    +0.002 A 
ATOM     16  C   UNL     1       2.099   7.499  -2.883  0.00  0.00    +0.004 A 
ATOM     17  C   UNL     1       2.607   6.215  -2.962  0.00  0.00    +0.047 A 
ATOM     18  C   UNL     1       2.988   5.552  -1.809  0.00  0.00    +0.143 A 
ATOM     19  O   UNL     1       3.524   4.303  -1.877  0.00  0.00    -0.468 OA
ATOM     20  H   UNL     1       3.289   6.011   1.557  0.00  0.00    +0.155 HD
ENDBRANCH   7   9
BRANCH   1  26
ATOM     21  C   UNL     1      -1.849  -4.484   2.081  0.00  0.00    +0.044 C 
ATOM     22  C   UNL     1      -0.540  -3.840   1.706  0.00  0.00    -0.046 A 
ATOM     23  C   UNL     1       0.576  -4.625   1.479  0.00  0.00    +0.004 A 
ATOM     24  C   UNL     1       1.780  -4.037   1.135  0.00  0.00    +0.002 A 
ATOM     25  C   UNL     1       1.871  -2.664   1.017  0.00  0.00    +0.023 A 
ATOM     26  C   UNL     1       0.752  -1.873   1.244  0.00  0.00    +0.033 A 
ATOM     27  C   UNL     1      -0.454  -2.466   1.595  0.00  0.00    -0.027 A 
ATOM     28  C   UNL     1      -1.669  -1.612   1.849  0.00  0.00    +0.046 C 
ENDBRANCH   1  26
TORSDOF 2
