REMARK  Name = ZINC35777184
REMARK  15 active torsions:
REMARK  status: ('A' for Active; 'I' for Inactive)
REMARK    1  A    between atoms: C_1  and  C_2
REMARK    2  A    between atoms: C_3  and  C_21
REMARK    3  A    between atoms: C_4  and  O_14
REMARK    4  A    between atoms: N_5  and  C_7
REMARK    5  A    between atoms: O_14  and  C_15
REMARK    6  A    between atoms: C_21  and  N_22
REMARK    7  A    between atoms: N_22  and  C_23
REMARK    8  A    between atoms: N_22  and  C_27
REMARK    9  A    between atoms: C_23  and  C_24
REMARK   10  A    between atoms: C_27  and  C_28
REMARK   11  A    between atoms: C_28  and  C_30
REMARK   12  A    between atoms: C_28  and  O_39
REMARK   13  A    between atoms: C_30  and  O_31
REMARK   14  A    between atoms: O_31  and  C_32
REMARK   15  A    between atoms: C_32  and  C_33
REMARK                            x       y       z     vdW  Elec       q    Type
REMARK                         _______ _______ _______ _____ _____    ______ ____
ROOT
ATOM      1  C   UNL     1       0.871  -3.589  -2.182  0.00  0.00    +0.068 C 
ATOM      2  C   UNL     1      -0.090  -3.150  -3.256  0.00  0.00    +0.065 A 
ATOM      3  C   UNL     1      -0.549  -1.845  -3.458  0.00  0.00    +0.021 A 
ATOM      4  C   UNL     1      -1.398  -1.860  -4.521  0.00  0.00    +0.225 A 
ATOM      5  N   UNL     1      -1.466  -3.142  -4.970  0.00  0.00    -0.200 N 
ATOM      6  N   UNL     1      -0.632  -3.924  -4.161  0.00  0.00    -0.168 NA
ENDROOT
BRANCH   5   7
ATOM      7  C   UNL     1      -2.231  -3.598  -6.053  0.00  0.00    +0.069 A 
ATOM      8  C   UNL     1      -3.533  -3.146  -6.224  0.00  0.00    +0.029 A 
ATOM      9  C   UNL     1      -4.284  -3.596  -7.292  0.00  0.00    +0.022 A 
ATOM     10  C   UNL     1      -3.740  -4.497  -8.191  0.00  0.00    +0.041 A 
ATOM     11  C   UNL     1      -2.443  -4.949  -8.022  0.00  0.00    +0.022 A 
ATOM     12  C   UNL     1      -1.686  -4.497  -6.959  0.00  0.00    +0.029 A 
ATOM     13 CL   UNL     1      -4.687  -5.061  -9.533  0.00  0.00    -0.084 Cl
ENDBRANCH   5   7
BRANCH   4  14
ATOM     14  O   UNL     1      -2.057  -0.792  -5.038  0.00  0.00    -0.438 OA
BRANCH  14  15
ATOM     15  C   UNL     1      -3.253  -0.454  -4.490  0.00  0.00    +0.130 A 
ATOM     16  C   UNL     1      -3.719  -1.126  -3.369  0.00  0.00    +0.046 A 
ATOM     17  C   UNL     1      -4.936  -0.781  -2.814  0.00  0.00    +0.004 A 
ATOM     18  C   UNL     1      -5.691   0.233  -3.376  0.00  0.00    +0.000 A 
ATOM     19  C   UNL     1      -5.229   0.904  -4.493  0.00  0.00    +0.004 A 
ATOM     20  C   UNL     1      -4.010   0.567  -5.048  0.00  0.00    +0.046 A 
ENDBRANCH  14  15
ENDBRANCH   4  14
BRANCH   3  21
ATOM     21  C   UNL     1      -0.171  -0.635  -2.642  0.00  0.00    -0.036 C 
BRANCH  21  22
ATOM     22  N   UNL     1       1.090  -0.078  -3.149  0.00  0.00    +0.384 N 
ATOM     23  H   UNL     1       1.795  -0.799  -3.161  0.00  0.00    -0.081 HD
BRANCH  22  24
ATOM     24  C   UNL     1       1.526   1.020  -2.275  0.00  0.00    -0.075 C 
BRANCH  24  25
ATOM     25  C   UNL     1       1.867   0.464  -0.890  0.00  0.00    -0.028 C 
ATOM     26  C   UNL     1       1.033   0.956   0.294  0.00  0.00    +0.002 C 
ATOM     27  C   UNL     1       2.479   1.429   0.127  0.00  0.00    +0.002 C 
ENDBRANCH  24  25
ENDBRANCH  22  24
BRANCH  22  28
ATOM     28  C   UNL     1       0.887   0.433  -4.511  0.00  0.00    -0.044 C 
BRANCH  28  29
ATOM     29  C   UNL     1       2.227   0.900  -5.085  0.00  0.00    +0.124 C 
BRANCH  29  30
ATOM     30  O   UNL     1       3.101  -0.222  -5.228  0.00  0.00    -0.391 OA
ATOM     31  H   UNL     1       2.763  -0.911  -5.815  0.00  0.00    +0.210 HD
ENDBRANCH  29  30
BRANCH  29  32
ATOM     32  C   UNL     1       1.998   1.545  -6.453  0.00  0.00    +0.189 C 
BRANCH  32  33
ATOM     33  O   UNL     1       3.230   2.084  -6.937  0.00  0.00    -0.373 OA
BRANCH  33  34
ATOM     34  C   UNL     1       3.126   2.714  -8.216  0.00  0.00    +0.195 C 
BRANCH  34  35
ATOM     35  C   UNL     1       4.476   3.244  -8.626  0.00  0.00    -0.022 A 
ATOM     36  C   UNL     1       4.850   4.527  -8.276  0.00  0.00    +0.006 A 
ATOM     37  C   UNL     1       6.088   5.014  -8.652  0.00  0.00    +0.000 A 
ATOM     38  C   UNL     1       6.952   4.215  -9.378  0.00  0.00    +0.000 A 
ATOM     39  C   UNL     1       6.579   2.931  -9.727  0.00  0.00    +0.000 A 
ATOM     40  C   UNL     1       5.342   2.444  -9.348  0.00  0.00    +0.006 A 
ENDBRANCH  34  35
ENDBRANCH  33  34
ENDBRANCH  32  33
ENDBRANCH  29  32
ENDBRANCH  28  29
ENDBRANCH  22  28
ENDBRANCH  21  22
ENDBRANCH   3  21
TORSDOF 14
