REMARK  Name = ZINC20585421
REMARK  3 active torsions:
REMARK  status: ('A' for Active; 'I' for Inactive)
REMARK    1  A    between atoms: C_3  and  N_8
REMARK    2  A    between atoms: N_8  and  C_9
REMARK    3  A    between atoms: C_14  and  N_15
REMARK                            x       y       z     vdW  Elec       q    Type
REMARK                         _______ _______ _______ _____ _____    ______ ____
ROOT
ATOM      1  C   UNL     1       4.804   1.440   0.069  0.00  0.00    +0.056 A 
ATOM      2  C   UNL     1       4.827   0.053   0.057  0.00  0.00    +0.074 A 
ATOM      3  C   UNL     1       6.035  -0.623   0.145  0.00  0.00    +0.164 A 
ATOM      4  C   UNL     1       7.224   0.089   0.245  0.00  0.00    +0.164 A 
ATOM      5  C   UNL     1       7.202   1.476   0.259  0.00  0.00    +0.074 A 
ATOM      6  C   UNL     1       5.997   2.154   0.166  0.00  0.00    +0.050 A 
ATOM      7  O   UNL     1       8.419  -0.560   0.325  0.00  0.00    -0.485 OA
ATOM      8  C   UNL     1       8.377  -1.945   0.683  0.00  0.00    +0.270 C 
ATOM      9  C   UNL     1       7.285  -2.625  -0.153  0.00  0.00    +0.270 C 
ATOM     10  O   UNL     1       6.037  -1.986   0.135  0.00  0.00    -0.485 OA
ENDROOT
BRANCH   6  11
ATOM     11  N   UNL     1       5.977   3.556   0.175  0.00  0.00    -0.356 N 
ATOM     12  H   UNL     1       5.133   4.029   0.114  0.00  0.00    +0.142 HD
ATOM     13  H   UNL     1       6.808   4.052   0.243  0.00  0.00    +0.142 HD
ENDBRANCH   6  11
BRANCH   1  14
ATOM     14  N   UNL     1       3.582   2.123  -0.021  0.00  0.00    -0.313 N 
ATOM     15  H   UNL     1       3.554   3.085   0.099  0.00  0.00    +0.152 HD
BRANCH  14  18
ATOM     16  C   UNL     1       0.079   1.025   0.145  0.00  0.00    +0.003 A 
ATOM     17  C   UNL     1       1.240   1.724   0.407  0.00  0.00    +0.023 A 
ATOM     18  C   UNL     1       2.406   1.417  -0.284  0.00  0.00    +0.032 A 
ATOM     19  C   UNL     1       2.398   0.407  -1.238  0.00  0.00    +0.037 A 
ATOM     20  C   UNL     1       1.232  -0.288  -1.496  0.00  0.00    +0.015 A 
ATOM     21  C   UNL     1       0.074   0.021  -0.805  0.00  0.00    +0.014 A 
ATOM     22  I   UNL     1       1.219  -1.811  -2.934  0.00  0.00    -0.044 I 
ENDBRANCH  14  18
ENDBRANCH   1  14
TORSDOF 3
