REMARK  Name = ZINC13407802
REMARK  13 active torsions:
REMARK  status: ('A' for Active; 'I' for Inactive)
REMARK    1  A    between atoms: C_1  and  C_2
REMARK    2  A    between atoms: C_2  and  O_3
REMARK    3  A    between atoms: O_3  and  C_4
REMARK    4  A    between atoms: C_4  and  C_6
REMARK    5  A    between atoms: C_6  and  N_7
REMARK    6  A    between atoms: N_7  and  C_8
REMARK    7  A    between atoms: C_15  and  C_17
REMARK    8  A    between atoms: C_17  and  S_18
REMARK    9  A    between atoms: S_18  and  C_19
REMARK   10  A    between atoms: C_23  and  C_27
REMARK   11  A    between atoms: C_24  and  C_26
REMARK   12  A    between atoms: C_27  and  C_28
REMARK   13  A    between atoms: C_28  and  C_29
REMARK                            x       y       z     vdW  Elec       q    Type
REMARK                         _______ _______ _______ _____ _____    ______ ____
ROOT
ATOM      1  N   UNL     1       1.553  -3.787  -2.660  0.00  0.00    -0.260 N 
ATOM      2  C   UNL     1       2.574  -4.433  -2.063  0.00  0.00    +0.231 C 
ATOM      3  O   UNL     1       3.350  -3.822  -1.360  0.00  0.00    -0.274 OA
ENDROOT
BRANCH   1   4
ATOM      4  C   UNL     1       0.603  -4.506  -3.395  0.00  0.00    +0.037 A 
ATOM      5  C   UNL     1      -0.253  -5.389  -2.749  0.00  0.00    +0.026 A 
ATOM      6  C   UNL     1      -1.190  -6.097  -3.475  0.00  0.00    +0.040 A 
ATOM      7  C   UNL     1      -1.276  -5.928  -4.847  0.00  0.00    +0.124 A 
ATOM      8  C   UNL     1      -0.424  -5.049  -5.493  0.00  0.00    +0.040 A 
ATOM      9  C   UNL     1       0.510  -4.334  -4.770  0.00  0.00    +0.026 A 
ATOM     10  F   UNL     1      -2.193  -6.623  -5.556  0.00  0.00    -0.205 F 
ENDBRANCH   1   4
BRANCH   1  11
ATOM     11  C   UNL     1       1.438  -2.331  -2.541  0.00  0.00    +0.234 C 
BRANCH  11  12
ATOM     12  C   UNL     1       0.612  -1.990  -1.327  0.00  0.00    +0.325 C 
ATOM     13  O   UNL     1       0.165  -2.873  -0.633  0.00  0.00    -0.249 OA
BRANCH  12  14
ATOM     14  O   UNL     1       0.372  -0.707  -1.017  0.00  0.00    -0.464 OA
BRANCH  14  16
ATOM     15  C   UNL     1      -0.583   1.052   0.338  0.00  0.00    +0.048 C 
ATOM     16  C   UNL     1      -0.418  -0.457   0.147  0.00  0.00    +0.229 C 
ENDBRANCH  14  16
ENDBRANCH  12  14
ENDBRANCH  11  12
ENDBRANCH   1  11
BRANCH   2  17
ATOM     17  C   UNL     1       2.750  -5.916  -2.269  0.00  0.00    +0.173 C 
BRANCH  17  18
ATOM     18  S   UNL     1       4.291  -6.456  -1.480  0.00  0.00    -0.077 S 
BRANCH  18  19
ATOM     19  C   UNL     1       4.352  -8.187  -1.805  0.00  0.00    +0.192 A 
ATOM     20  N   UNL     1       3.374  -8.749  -2.500  0.00  0.00    -0.183 NA
ATOM     21  C   UNL     1       3.390 -10.050  -2.762  0.00  0.00    +0.277 A 
ATOM     22  O   UNL     1       2.388 -10.621  -3.473  0.00  0.00    -0.265 OA
ATOM     23  C   UNL     1       4.454 -10.822  -2.294  0.00  0.00    +0.040 A 
ATOM     24  C   UNL     1       5.454 -10.198  -1.572  0.00  0.00    +0.049 A 
ATOM     25  N   UNL     1       5.378  -8.894  -1.352  0.00  0.00    -0.227 NA
ATOM     26  C   UNL     1       6.622 -10.992  -1.047  0.00  0.00    +0.066 C 
BRANCH  23  27
ATOM     27  C   UNL     1       4.510 -12.302  -2.568  0.00  0.00    +0.054 C 
BRANCH  27  28
ATOM     28  C   UNL     1       5.252 -12.549  -3.884  0.00  0.00    +0.130 C 
BRANCH  28  29
ATOM     29  C   UNL     1       5.309 -14.030  -4.158  0.00  0.00    +0.356 C 
ATOM     30  O   UNL     1       4.803 -14.815  -3.374  0.00  0.00    -0.246 OA
ATOM     31  O   UNL     1       5.860 -14.443  -5.164  0.00  0.00    -0.246 OA
ENDBRANCH  28  29
ENDBRANCH  27  28
ENDBRANCH  23  27
ENDBRANCH  18  19
ENDBRANCH  17  18
ENDBRANCH   2  17
TORSDOF 11
