REMARK  Name = ZINC47550060
REMARK  9 active torsions:
REMARK  status: ('A' for Active; 'I' for Inactive)
REMARK    1  A    between atoms: C_1  and  C_2
REMARK    2  A    between atoms: C_2  and  N_3
REMARK    3  A    between atoms: C_7  and  C_9
REMARK    4  A    between atoms: C_9  and  N_10
REMARK    5  A    between atoms: N_10  and  C_11
REMARK    6  A    between atoms: N_10  and  C_20
REMARK    7  A    between atoms: C_11  and  C_12
REMARK    8  A    between atoms: N_17  and  C_18
REMARK    9  A    between atoms: C_18  and  C_19
REMARK                            x       y       z     vdW  Elec       q    Type
REMARK                         _______ _______ _______ _____ _____    ______ ____
ROOT
ATOM      1  N   UNL     1      -4.373  -5.618   0.053  0.00  0.00    +0.393 N 
ATOM      2  H   UNL     1      -3.934  -6.031   0.863  0.00  0.00    -0.080 HD
ENDROOT
BRANCH   1   3
ATOM      3  C   UNL     1      -3.683  -6.072  -1.162  0.00  0.00    -0.067 C 
ATOM      4  C   UNL     1      -2.552  -7.088  -0.994  0.00  0.00    -0.017 C 
ATOM      5  C   UNL     1      -2.230  -5.636  -1.354  0.00  0.00    -0.017 C 
ENDBRANCH   1   3
BRANCH   1   6
ATOM      6  C   UNL     1      -4.291  -4.154   0.145  0.00  0.00    +0.020 C 
BRANCH   6  11
ATOM      7  N   UNL     1      -5.639  -0.666   3.166  0.00  0.00    -0.299 N 
ATOM      8  C   UNL     1      -5.497  -1.981   2.908  0.00  0.00    +0.306 C 
ATOM      9  O   UNL     1      -5.823  -2.802   3.743  0.00  0.00    -0.252 OA
ATOM     10  N   UNL     1      -4.995  -2.386   1.725  0.00  0.00    -0.242 N 
ATOM     11  C   UNL     1      -4.853  -3.702   1.468  0.00  0.00    +0.204 C 
ATOM     12  O   UNL     1      -5.178  -4.521   2.300  0.00  0.00    -0.277 OA
ATOM     13  H   UNL     1      -5.379  -0.011   2.499  0.00  0.00    +0.150 HD
ATOM     14  H   UNL     1      -4.735  -1.731   1.059  0.00  0.00    +0.159 HD
BRANCH   7  16
ATOM     15  C   UNL     1      -6.239   1.303   4.486  0.00  0.00    +0.024 C 
ATOM     16  C   UNL     1      -6.185  -0.226   4.452  0.00  0.00    +0.102 C 
ENDBRANCH   7  16
ENDBRANCH   6  11
ENDBRANCH   1   6
BRANCH   1  17
ATOM     17  C   UNL     1      -5.783  -6.028  -0.002  0.00  0.00    +0.020 C 
BRANCH  17  18
ATOM     18  C   UNL     1      -5.870  -7.532   0.028  0.00  0.00    +0.204 C 
ATOM     19  O   UNL     1      -4.859  -8.197   0.089  0.00  0.00    -0.277 OA
ATOM     20  N   UNL     1      -7.074  -8.137  -0.013  0.00  0.00    -0.242 N 
ATOM     21  C   UNL     1      -7.152  -9.483   0.014  0.00  0.00    +0.306 C 
ATOM     22  O   UNL     1      -6.138 -10.150   0.075  0.00  0.00    -0.252 OA
ATOM     23  N   UNL     1      -8.356 -10.088  -0.027  0.00  0.00    -0.299 N 
ATOM     24  H   UNL     1      -7.883  -7.605  -0.061  0.00  0.00    +0.159 HD
ATOM     25  H   UNL     1      -9.165  -9.556  -0.076  0.00  0.00    +0.150 HD
BRANCH  23  26
ATOM     26  C   UNL     1      -8.441 -11.551   0.002  0.00  0.00    +0.102 C 
ATOM     27  C   UNL     1      -9.909 -11.977  -0.055  0.00  0.00    +0.024 C 
ENDBRANCH  23  26
ENDBRANCH  17  18
ENDBRANCH   1  17
TORSDOF 7
