REMARK  Name = ZINC13038414
REMARK  8 active torsions:
REMARK  status: ('A' for Active; 'I' for Inactive)
REMARK    1  A    between atoms: C_1  and  C_2
REMARK    2  A    between atoms: C_2  and  O_3
REMARK    3  A    between atoms: O_3  and  C_4
REMARK    4  A    between atoms: C_4  and  C_6
REMARK    5  A    between atoms: C_10  and  N_11
REMARK    6  A    between atoms: C_12  and  C_14
REMARK    7  A    between atoms: C_14  and  N_63
REMARK    8  A    between atoms: C_18  and  C_20
REMARK                            x       y       z     vdW  Elec       q    Type
REMARK                         _______ _______ _______ _____ _____    ______ ____
ROOT
ATOM      1  N   UNL     1       4.150   2.847   4.457  0.00  0.00    -0.281 N 
ATOM      2  C   UNL     1       4.154   2.709   3.116  0.00  0.00    +0.201 C 
ATOM      3  O   UNL     1       4.859   1.871   2.595  0.00  0.00    -0.278 OA
ATOM      4  H   UNL     1       3.586   3.518   4.873  0.00  0.00    +0.155 HD
ENDROOT
BRANCH   1   9
ATOM      5  C   UNL     1       5.083   2.022   6.622  0.00  0.00    +0.091 A 
ATOM      6  C   UNL     1       6.001   1.055   7.202  0.00  0.00    -0.021 A 
ATOM      7  C   UNL     1       6.635   0.260   6.314  0.00  0.00    -0.004 A 
ATOM      8  S   UNL     1       6.026   0.771   4.732  0.00  0.00    -0.077 S 
ATOM      9  C   UNL     1       4.951   2.031   5.240  0.00  0.00    +0.086 A 
ATOM     10  C   UNL     1       7.630  -0.819   6.617  0.00  0.00    +0.043 C 
ATOM     11  C   UNL     1       8.109  -0.642   8.065  0.00  0.00    +0.005 C 
ATOM     12  C   UNL     1       6.887  -0.447   8.968  0.00  0.00    +0.005 C 
ATOM     13  C   UNL     1       6.254   0.919   8.698  0.00  0.00    +0.037 C 
BRANCH   5  14
ATOM     14  C   UNL     1       4.326   2.950   7.464  0.00  0.00    +0.342 C 
ATOM     15  O   UNL     1       3.229   2.635   7.884  0.00  0.00    -0.245 OA
BRANCH  14  16
ATOM     16  O   UNL     1       4.845   4.156   7.774  0.00  0.00    -0.461 OA
BRANCH  16  18
ATOM     17  C   UNL     1       4.787   6.338   8.855  0.00  0.00    +0.048 C 
ATOM     18  C   UNL     1       4.039   5.025   8.613  0.00  0.00    +0.229 C 
ENDBRANCH  16  18
ENDBRANCH  14  16
ENDBRANCH   5  14
ENDBRANCH   1   9
BRANCH   2  19
ATOM     19  C   UNL     1       3.283   3.597   2.264  0.00  0.00    +0.020 C 
BRANCH  19  24
ATOM     20  C   UNL     1       4.770   3.754   0.340  0.00  0.00    -0.077 C 
ATOM     21  C   UNL     1       4.594   3.814  -1.193  0.00  0.00    -0.020 C 
ATOM     22  C   UNL     1       3.073   3.931  -1.418  0.00  0.00    -0.013 C 
ATOM     23  C   UNL     1       2.457   3.931  -0.002  0.00  0.00    -0.037 C 
ATOM     24  N   UNL     1       3.477   3.266   0.816  0.00  0.00    +0.390 N 
ATOM     25  H   UNL     1       3.419   2.249   0.692  0.00  0.00    -0.080 HD
BRANCH  23  26
ATOM     26  C   UNL     1       1.160   3.165   0.007  0.00  0.00    -0.057 A 
ATOM     27  C   UNL     1       1.175   1.782   0.000  0.00  0.00    +0.006 A 
ATOM     28  C   UNL     1      -0.013   1.076   0.008  0.00  0.00    +0.049 A 
ATOM     29  C   UNL     1      -1.223   1.752   0.017  0.00  0.00    +0.162 A 
ATOM     30  C   UNL     1      -1.239   3.142   0.033  0.00  0.00    +0.162 A 
ATOM     31  C   UNL     1      -0.043   3.845   0.024  0.00  0.00    +0.051 A 
ATOM     32  O   UNL     1      -2.416   3.825   0.057  0.00  0.00    -0.485 OA
ATOM     33  C   UNL     1      -3.590   3.095  -0.328  0.00  0.00    +0.270 C 
ATOM     34  C   UNL     1      -3.570   1.746   0.404  0.00  0.00    +0.270 C 
ATOM     35  O   UNL     1      -2.385   1.043   0.014  0.00  0.00    -0.485 OA
ENDBRANCH  23  26
ENDBRANCH  19  24
ENDBRANCH   2  19
TORSDOF 7
