REMARK  Name = ZINC06444287
REMARK  10 active torsions:
REMARK  status: ('A' for Active; 'I' for Inactive)
REMARK    1  A    between atoms: C_1  and  C_2
REMARK    2  A    between atoms: C_7  and  N_8
REMARK    3  A    between atoms: C_9  and  C_11
REMARK    4  A    between atoms: C_12  and  C_37
REMARK    5  A    between atoms: C_14  and  S_25
REMARK    6  A    between atoms: C_15  and  C_23
REMARK    7  A    between atoms: C_16  and  C_18
REMARK    8  A    between atoms: S_25  and  C_26
REMARK    9  A    between atoms: C_26  and  C_27
REMARK   10  A    between atoms: N_29  and  C_30
REMARK                            x       y       z     vdW  Elec       q    Type
REMARK                         _______ _______ _______ _____ _____    ______ ____
ROOT
ATOM      1  C   UNL     1       1.060   1.968   0.098  0.00  0.00    +0.044 C 
ATOM      2  C   UNL     1       2.222   1.323   0.289  0.00  0.00    +0.014 C 
ATOM      3  N   UNL     1       3.412   1.997   0.281  0.00  0.00    -0.312 N 
ATOM      4  C   UNL     1       3.490   3.262  -0.260  0.00  0.00    +0.080 C 
ATOM      5  C   UNL     1       2.362   3.993  -0.468  0.00  0.00    +0.069 C 
ATOM      6  C   UNL     1       1.006   3.454  -0.110  0.00  0.00    +0.105 C 
ATOM      7  C   UNL     1       2.216  -0.168   0.509  0.00  0.00    +0.061 C 
ATOM      8  H   UNL     1       4.312   1.530   0.707  0.00  0.00    +0.152 HD
ENDROOT
BRANCH   6   9
ATOM      9  C   UNL     1       0.529   4.115   1.157  0.00  0.00    +0.002 A 
ATOM     10  C   UNL     1      -0.566   4.889   1.356  0.00  0.00    +0.012 A 
ATOM     11  C   UNL     1      -0.809   5.394   2.620  0.00  0.00    +0.008 A 
ATOM     12  C   UNL     1       0.054   5.101   3.623  0.00  0.00    +0.045 A 
ATOM     13  S   UNL     1       1.254   4.075   2.788  0.00  0.00    -0.101 S 
ENDBRANCH   6   9
BRANCH   1  15
ATOM     14  N   UNL     1      -0.666   0.787   1.263  0.00  0.00    -0.281 N 
ATOM     15  C   UNL     1      -0.147   1.228   0.100  0.00  0.00    +0.247 C 
ATOM     16  O   UNL     1      -0.719   0.994  -0.950  0.00  0.00    -0.270 OA
ATOM     17  H   UNL     1      -0.185   1.053   2.215  0.00  0.00    +0.155 HD
BRANCH  14  24
ATOM     18  C   UNL     1      -1.093  -0.969   3.461  0.00  0.00    +0.045 C 
ATOM     19  C   UNL     1      -2.063  -0.880   2.311  0.00  0.00    -0.029 A 
ATOM     20  C   UNL     1      -3.200  -1.665   2.304  0.00  0.00    +0.005 A 
ATOM     21  C   UNL     1      -4.090  -1.585   1.249  0.00  0.00    +0.000 A 
ATOM     22  C   UNL     1      -3.846  -0.719   0.199  0.00  0.00    +0.002 A 
ATOM     23  C   UNL     1      -2.715   0.073   0.203  0.00  0.00    +0.023 A 
ATOM     24  C   UNL     1      -1.815  -0.009   1.258  0.00  0.00    +0.037 A 
ENDBRANCH  14  24
ENDBRANCH   1  15
BRANCH   5  25
ATOM     25  C   UNL     1       2.469   5.301  -1.040  0.00  0.00    +0.098 C 
ATOM     26  N   UNL     1       2.554   6.339  -1.494  0.00  0.00    -0.191 NA
ENDBRANCH   5  25
BRANCH   4  27
ATOM     27  S   UNL     1       5.061   3.937  -0.685  0.00  0.00    -0.100 S 
BRANCH  27  28
ATOM     28  C   UNL     1       6.135   2.562  -0.200  0.00  0.00    +0.171 C 
BRANCH  28  29
ATOM     29  C   UNL     1       7.570   2.924  -0.481  0.00  0.00    +0.227 C 
ATOM     30  O   UNL     1       7.841   4.004  -0.962  0.00  0.00    -0.275 OA
ATOM     31  N   UNL     1       8.554   2.047  -0.198  0.00  0.00    -0.285 N 
ATOM     32  H   UNL     1       8.317   1.098   0.306  0.00  0.00    +0.155 HD
BRANCH  31  33
ATOM     33  C   UNL     1       9.876   2.342  -0.546  0.00  0.00    +0.036 A 
ATOM     34  C   UNL     1      10.734   1.326  -0.949  0.00  0.00    +0.023 A 
ATOM     35  C   UNL     1      12.038   1.621  -1.296  0.00  0.00    +0.005 A 
ATOM     36  C   UNL     1      12.494   2.925  -1.235  0.00  0.00    +0.038 A 
ATOM     37  C   UNL     1      11.644   3.940  -0.829  0.00  0.00    +0.125 A 
ATOM     38  C   UNL     1      10.336   3.651  -0.484  0.00  0.00    +0.061 A 
ATOM     39  F   UNL     1      12.093   5.213  -0.770  0.00  0.00    -0.205 F 
ENDBRANCH  31  33
ENDBRANCH  28  29
ENDBRANCH  27  28
ENDBRANCH   4  27
TORSDOF 8
