REMARK  Name = ZINC38733078
REMARK  6 active torsions:
REMARK  status: ('A' for Active; 'I' for Inactive)
REMARK    1  A    between atoms: C_1  and  N_2
REMARK    2  A    between atoms: N_2  and  C_3
REMARK    3  A    between atoms: C_3  and  C_4
REMARK    4  A    between atoms: C_4  and  C_5
REMARK    5  A    between atoms: C_14  and  C_16
REMARK    6  A    between atoms: C_22  and  C_24
REMARK                            x       y       z     vdW  Elec       q    Type
REMARK                         _______ _______ _______ _____ _____    ______ ____
ROOT
ATOM      1  C   UNL     1      -0.081   0.075  -2.448  0.00  0.00    +0.091 C 
ATOM      2  C   UNL     1      -1.209   1.107  -2.395  0.00  0.00    +0.040 C 
ATOM      3  C   UNL     1      -1.456   1.674  -3.762  0.00  0.00    -0.030 C 
ATOM      4  C   UNL     1      -1.043   1.126  -4.860  0.00  0.00    -0.030 C 
ATOM      5  C   UNL     1      -0.251  -0.148  -4.918  0.00  0.00    +0.040 C 
ATOM      6  C   UNL     1      -0.366  -0.905  -3.593  0.00  0.00    +0.091 C 
ENDROOT
BRANCH   6   7
ATOM      7  C   UNL     1       0.636  -2.030  -3.560  0.00  0.00    +0.220 C 
ATOM      8  O   UNL     1       1.776  -1.816  -3.204  0.00  0.00    -0.275 OA
ATOM      9  N   UNL     1       0.266  -3.273  -3.925  0.00  0.00    -0.298 N 
ATOM     10  C   UNL     1      -1.078  -3.526  -4.462  0.00  0.00    +0.126 C 
ATOM     11  C   UNL     1      -0.939  -4.210  -5.828  0.00  0.00    +0.125 C 
ATOM     12  N   UNL     1      -0.006  -5.337  -5.696  0.00  0.00    -0.314 N 
ATOM     13  C   UNL     1       1.339  -5.084  -5.159  0.00  0.00    +0.125 C 
ATOM     14  C   UNL     1       1.202  -4.399  -3.798  0.00  0.00    +0.126 C 
ATOM     15  C   UNL     1      -0.388  -6.619  -6.072  0.00  0.00    +0.099 A 
ATOM     16  C   UNL     1      -1.611  -6.817  -6.704  0.00  0.00    +0.042 A 
ATOM     17  C   UNL     1      -1.979  -8.098  -7.073  0.00  0.00    +0.005 A 
ATOM     18  C   UNL     1      -1.107  -9.143  -6.797  0.00  0.00    +0.018 A 
ATOM     19  C   UNL     1       0.092  -8.875  -6.167  0.00  0.00    +0.084 A 
ATOM     20  N   UNL     1       0.419  -7.641  -5.831  0.00  0.00    -0.350 N 
ATOM     21  H   UNL     1       1.269  -7.480  -5.394  0.00  0.00    +0.166 HD
ENDBRANCH   6   7
BRANCH   1  24
ATOM     22  C   UNL     1       0.919   1.317  -0.103  0.00  0.00    +0.132 C 
ATOM     23  N   UNL     1       0.506  -0.087  -0.050  0.00  0.00    -0.304 N 
ATOM     24  C   UNL     1      -0.019  -0.676  -1.143  0.00  0.00    +0.219 C 
ATOM     25  O   UNL     1      -0.442  -1.811  -1.076  0.00  0.00    -0.275 OA
BRANCH  23  26
ATOM     26  C   UNL     1       0.662  -0.851   1.190  0.00  0.00    +0.112 C 
BRANCH  26  27
ATOM     27  C   UNL     1      -0.604  -0.712   2.038  0.00  0.00    +0.056 C 
BRANCH  27  28
ATOM     28  C   UNL     1      -0.443  -1.498   3.314  0.00  0.00    -0.021 A 
ATOM     29  C   UNL     1       0.199  -1.035   4.547  0.00  0.00    +0.003 A 
ATOM     30  C   UNL     1       0.816   0.156   4.931  0.00  0.00    +0.010 A 
ATOM     31  C   UNL     1       1.332   0.277   6.191  0.00  0.00    +0.001 A 
ATOM     32  C   UNL     1       1.248  -0.776   7.091  0.00  0.00    +0.002 A 
ATOM     33  C   UNL     1       0.643  -1.960   6.733  0.00  0.00    +0.026 A 
ATOM     34  C   UNL     1       0.111  -2.106   5.456  0.00  0.00    +0.047 A 
ATOM     35  N   UNL     1      -0.538  -3.134   4.810  0.00  0.00    -0.360 N 
ATOM     36  C   UNL     1      -0.866  -2.752   3.538  0.00  0.00    +0.087 A 
ATOM     37  H   UNL     1      -0.738  -3.999   5.201  0.00  0.00    +0.165 HD
ENDBRANCH  27  28
ENDBRANCH  26  27
ENDBRANCH  23  26
ENDBRANCH   1  24
TORSDOF 5
