REMARK  Name = ZINC33051166
REMARK  7 active torsions:
REMARK  status: ('A' for Active; 'I' for Inactive)
REMARK    1  A    between atoms: C_1  and  C_2
REMARK    2  A    between atoms: N_5  and  C_7
REMARK    3  A    between atoms: C_18  and  C_31
REMARK    4  A    between atoms: N_24  and  C_25
REMARK    5  A    between atoms: C_25  and  C_26
REMARK    6  A    between atoms: C_34  and  S_37
REMARK    7  A    between atoms: S_37  and  C_38
REMARK                            x       y       z     vdW  Elec       q    Type
REMARK                         _______ _______ _______ _____ _____    ______ ____
ROOT
ATOM      1  C   UNL     1       0.991   9.106   1.297  0.00  0.00    +0.068 C 
ATOM      2  C   UNL     1       0.469   7.832   0.682  0.00  0.00    +0.067 A 
ATOM      3  C   UNL     1      -0.611   7.732  -0.189  0.00  0.00    +0.035 A 
ATOM      4  C   UNL     1      -0.773   6.410  -0.492  0.00  0.00    +0.146 A 
ATOM      5  N   UNL     1       0.196   5.715   0.131  0.00  0.00    -0.215 N 
ATOM      6  N   UNL     1       0.953   6.629   0.882  0.00  0.00    -0.169 NA
ATOM      7  N   UNL     1      -1.845   5.988  -1.287  0.00  0.00    -0.303 N 
ATOM      8  C   UNL     1      -1.889   5.107  -2.313  0.00  0.00    +0.093 A 
ATOM      9  C   UNL     1      -3.148   5.105  -2.805  0.00  0.00    +0.020 A 
ATOM     10  C   UNL     1      -3.909   6.008  -2.031  0.00  0.00    +0.025 A 
ATOM     11  C   UNL     1      -3.097   6.516  -1.090  0.00  0.00    +0.050 A 
ATOM     12  C   UNL     1      -3.428   7.451   0.036  0.00  0.00    +0.155 C 
ATOM     13  N   UNL     1      -2.838   8.792  -0.180  0.00  0.00    -0.269 N 
ATOM     14  C   UNL     1      -1.473   8.820  -0.758  0.00  0.00    +0.151 C 
ATOM     15  C   UNL     1      -3.503   9.922   0.130  0.00  0.00    +0.304 C 
ATOM     16  O   UNL     1      -4.622   9.858   0.602  0.00  0.00    -0.253 OA
ATOM     17  N   UNL     1      -2.929  11.123  -0.083  0.00  0.00    -0.292 N 
ATOM     18  H   UNL     1      -1.917  11.180  -0.510  0.00  0.00    +0.151 HD
ENDROOT
BRANCH   5  19
ATOM     19  C   UNL     1       0.406   4.331   0.051  0.00  0.00    +0.068 A 
ATOM     20  C   UNL     1       1.697   3.821   0.078  0.00  0.00    +0.028 A 
ATOM     21  C   UNL     1       1.901   2.458  -0.001  0.00  0.00    +0.002 A 
ATOM     22  C   UNL     1       0.821   1.600  -0.105  0.00  0.00    +0.000 A 
ATOM     23  C   UNL     1      -0.465   2.105  -0.138  0.00  0.00    +0.002 A 
ATOM     24  C   UNL     1      -0.676   3.468  -0.054  0.00  0.00    +0.028 A 
ENDBRANCH   5  19
BRANCH  12  25
ATOM     25  C   UNL     1      -2.894   6.880   1.324  0.00  0.00    -0.021 A 
ATOM     26  C   UNL     1      -2.976   5.520   1.562  0.00  0.00    +0.007 A 
ATOM     27  C   UNL     1      -2.483   4.992   2.738  0.00  0.00    +0.015 A 
ATOM     28  C   UNL     1      -1.913   5.830   3.689  0.00  0.00    +0.008 A 
ATOM     29  C   UNL     1      -1.837   7.197   3.449  0.00  0.00    +0.015 A 
ATOM     30  C   UNL     1      -2.327   7.717   2.267  0.00  0.00    +0.007 A 
BRANCH  28  31
ATOM     31  S   UNL     1      -1.288   5.162   5.195  0.00  0.00    -0.129 S 
ATOM     32  C   UNL     1      -1.605   3.382   5.050  0.00  0.00    +0.090 C 
ENDBRANCH  28  31
ENDBRANCH  12  25
BRANCH  17  33
ATOM     33  C   UNL     1      -3.653  12.351   0.255  0.00  0.00    +0.180 C 
BRANCH  33  34
ATOM     34  C   UNL     1      -2.797  13.546  -0.077  0.00  0.00    +0.122 A 
ATOM     35  C   UNL     1      -2.775  14.195  -1.255  0.00  0.00    +0.046 A 
ATOM     36  C   UNL     1      -1.837  15.245  -1.127  0.00  0.00    +0.041 A 
ATOM     37  C   UNL     1      -1.341  15.174   0.121  0.00  0.00    +0.195 A 
ATOM     38  O   UNL     1      -1.930  14.147   0.754  0.00  0.00    -0.466 OA
ENDBRANCH  33  34
ENDBRANCH  17  33
TORSDOF 5
