REMARK  Name = ZINC09066745
REMARK  16 active torsions:
REMARK  status: ('A' for Active; 'I' for Inactive)
REMARK    1  A    between atoms: C_1  and  C_2
REMARK    2  A    between atoms: C_2  and  N_70
REMARK    3  A    between atoms: C_3  and  C_4
REMARK    4  A    between atoms: C_3  and  N_70
REMARK    5  A    between atoms: C_5  and  C_6
REMARK    6  A    between atoms: C_5  and  N_70
REMARK    7  A    between atoms: C_6  and  N_7
REMARK    8  A    between atoms: C_8  and  C_25
REMARK    9  A    between atoms: C_11  and  C_12
REMARK   10  A    between atoms: C_11  and  O_20
REMARK   11  A    between atoms: C_15  and  O_18
REMARK   12  A    between atoms: O_18  and  C_19
REMARK   13  A    between atoms: C_28  and  C_31
REMARK   14  A    between atoms: C_31  and  C_32
REMARK   15  A    between atoms: C_31  and  C_33
REMARK   16  A    between atoms: C_31  and  C_34
REMARK                            x       y       z     vdW  Elec       q    Type
REMARK                         _______ _______ _______ _____ _____    ______ ____
ROOT
ATOM      1  N   UNL     1      -3.085   1.120   4.868  0.00  0.00    -0.285 N 
ATOM      2  C   UNL     1      -3.891   0.120   5.574  0.00  0.00    +0.144 C 
ATOM      3  C   UNL     1      -4.216   0.705   6.929  0.00  0.00    +0.071 C 
ATOM      4  C   UNL     1      -4.958   0.112   7.933  0.00  0.00    +0.133 C 
ATOM      5  C   UNL     1      -3.614   1.971   6.963  0.00  0.00    +0.249 C 
ATOM      6  O   UNL     1      -3.651   2.755   7.894  0.00  0.00    -0.282 OA
ATOM      7  C   UNL     1      -2.918   2.188   5.666  0.00  0.00    +0.288 C 
ATOM      8  O   UNL     1      -2.292   3.186   5.371  0.00  0.00    -0.266 OA
ENDROOT
BRANCH   4   9
ATOM      9  C   UNL     1      -5.083   0.769   9.242  0.00  0.00    +0.017 A 
ATOM     10  C   UNL     1      -3.942   1.246   9.900  0.00  0.00    +0.015 A 
ATOM     11  C   UNL     1      -4.064   1.865  11.123  0.00  0.00    +0.046 A 
ATOM     12  C   UNL     1      -5.317   2.008  11.710  0.00  0.00    +0.120 A 
ATOM     13  C   UNL     1      -6.452   1.532  11.064  0.00  0.00    +0.046 A 
ATOM     14  C   UNL     1      -6.341   0.916   9.838  0.00  0.00    +0.015 A 
BRANCH  12  15
ATOM     15  O   UNL     1      -5.431   2.615  12.919  0.00  0.00    -0.495 OA
ATOM     16  C   UNL     1      -4.225   3.081  13.527  0.00  0.00    +0.277 C 
ENDBRANCH  12  15
ENDBRANCH   4   9
BRANCH   2  17
ATOM     17  C   UNL     1      -3.104  -1.155   5.738  0.00  0.00    -0.022 A 
ATOM     18  C   UNL     1      -1.758  -1.101   6.046  0.00  0.00    +0.006 A 
ATOM     19  C   UNL     1      -1.037  -2.271   6.200  0.00  0.00    +0.004 A 
ATOM     20  C   UNL     1      -1.660  -3.494   6.037  0.00  0.00    -0.042 A 
ATOM     21  C   UNL     1      -3.006  -3.547   5.724  0.00  0.00    +0.004 A 
ATOM     22  C   UNL     1      -3.727  -2.378   5.574  0.00  0.00    +0.006 A 
BRANCH  20  23
ATOM     23  C   UNL     1      -0.874  -4.768   6.202  0.00  0.00    -0.013 C 
ATOM     24  C   UNL     1      -0.917  -5.567   4.897  0.00  0.00    +0.015 C 
ATOM     25  C   UNL     1       0.579  -4.431   6.545  0.00  0.00    +0.015 C 
ATOM     26  C   UNL     1      -1.483  -5.602   7.331  0.00  0.00    +0.015 C 
ENDBRANCH  20  23
ENDBRANCH   2  17
BRANCH   4  27
ATOM     27  O   UNL     1      -5.570  -1.072   7.710  0.00  0.00    -0.506 OA
ATOM     28  H   UNL     1      -6.059  -1.354   8.536  0.00  0.00    +0.292 HD
ENDBRANCH   4  27
BRANCH   1  29
ATOM     29  C   UNL     1      -2.544   0.976   3.515  0.00  0.00    +0.090 C 
BRANCH  29  30
ATOM     30  C   UNL     1      -3.557   1.512   2.501  0.00  0.00    -0.060 C 
BRANCH  30  31
ATOM     31  N   UNL     1      -3.007   1.340   1.140  0.00  0.00    +0.380 N 
ATOM     32  H   UNL     1      -2.706   0.365   1.022  0.00  0.00    -0.082 HD
BRANCH  31  34
ATOM     33  C   UNL     1      -2.235   3.688   1.184  0.00  0.00    -0.017 C 
ATOM     34  C   UNL     1      -1.841   2.228   0.951  0.00  0.00    -0.082 C 
ENDBRANCH  31  34
BRANCH  31  35
ATOM     35  C   UNL     1      -4.044   1.647   0.133  0.00  0.00    -0.082 C 
ATOM     36  C   UNL     1      -3.628   1.030  -1.203  0.00  0.00    -0.017 C 
ENDBRANCH  31  35
ENDBRANCH  30  31
ENDBRANCH  29  30
ENDBRANCH   1  29
TORSDOF 10
