REMARK  Name = ZINC38959909
REMARK  14 active torsions:
REMARK  status: ('A' for Active; 'I' for Inactive)
REMARK    1  A    between atoms: C_1  and  C_2
REMARK    2  A    between atoms: C_5  and  C_38
REMARK    3  A    between atoms: C_6  and  N_8
REMARK    4  A    between atoms: N_8  and  C_9
REMARK    5  A    between atoms: C_9  and  C_10
REMARK    6  A    between atoms: C_15  and  O_22
REMARK    7  A    between atoms: O_22  and  C_23
REMARK    8  A    between atoms: C_24  and  C_26
REMARK    9  A    between atoms: C_28  and  O_36
REMARK   10  A    between atoms: C_29  and  O_34
REMARK   11  A    between atoms: C_30  and  O_32
REMARK   12  A    between atoms: O_32  and  C_33
REMARK   13  A    between atoms: O_34  and  C_35
REMARK   14  A    between atoms: O_36  and  C_37
REMARK                            x       y       z     vdW  Elec       q    Type
REMARK                         _______ _______ _______ _____ _____    ______ ____
ROOT
ATOM      1  N   UNL     1       0.094  -3.138   2.247  0.00  0.00    -0.266 N 
ATOM      2  C   UNL     1       1.176  -2.980   3.035  0.00  0.00    +0.251 C 
ATOM      3  O   UNL     1       1.066  -3.066   4.243  0.00  0.00    -0.270 OA
ENDROOT
BRANCH   1   9
ATOM      4  C   UNL     1       1.404  -4.786  -2.196  0.00  0.00    +0.044 C 
ATOM      5  C   UNL     1       0.829  -3.712  -1.310  0.00  0.00    -0.049 A 
ATOM      6  C   UNL     1       0.402  -2.517  -1.861  0.00  0.00    +0.004 A 
ATOM      7  C   UNL     1      -0.127  -1.528  -1.051  0.00  0.00    +0.005 A 
ATOM      8  C   UNL     1      -0.230  -1.731   0.311  0.00  0.00    -0.029 A 
ATOM      9  C   UNL     1       0.197  -2.930   0.868  0.00  0.00    +0.040 A 
ATOM     10  C   UNL     1       0.722  -3.923   0.051  0.00  0.00    +0.027 A 
ATOM     11  C   UNL     1      -0.805  -0.653   1.193  0.00  0.00    +0.045 C 
ENDBRANCH   1   9
BRANCH   2  12
ATOM     12  C   UNL     1       2.494  -2.702   2.432  0.00  0.00    +0.044 A 
ATOM     13  C   UNL     1       3.622  -3.406   2.861  0.00  0.00    +0.062 A 
ATOM     14  C   UNL     1       4.855  -3.145   2.294  0.00  0.00    +0.166 A 
ATOM     15  C   UNL     1       4.974  -2.179   1.297  0.00  0.00    +0.204 A 
ATOM     16  C   UNL     1       3.852  -1.476   0.869  0.00  0.00    +0.166 A 
ATOM     17  C   UNL     1       2.615  -1.738   1.428  0.00  0.00    +0.062 A 
BRANCH  16  18
ATOM     18  O   UNL     1       3.971  -0.533  -0.104  0.00  0.00    -0.491 OA
ATOM     19  C   UNL     1       2.779   0.150  -0.495  0.00  0.00    +0.277 C 
ENDBRANCH  16  18
BRANCH  15  20
ATOM     20  O   UNL     1       6.188  -1.924   0.742  0.00  0.00    -0.488 OA
ATOM     21  C   UNL     1       6.549  -2.689  -0.409  0.00  0.00    +0.277 C 
ENDBRANCH  15  20
BRANCH  14  22
ATOM     22  O   UNL     1       5.954  -3.830   2.710  0.00  0.00    -0.491 OA
ATOM     23  C   UNL     1       5.743  -4.881   3.656  0.00  0.00    +0.277 C 
ENDBRANCH  14  22
ENDBRANCH   2  12
BRANCH   1  24
ATOM     24  C   UNL     1      -1.190  -3.529   2.834  0.00  0.00    +0.131 C 
BRANCH  24  25
ATOM     25  C   UNL     1      -1.369  -5.043   2.707  0.00  0.00    +0.116 C 
ATOM     26  C   UNL     1      -2.819  -5.367   3.011  0.00  0.00    -0.003 C 
ATOM     27  C   UNL     1      -3.064  -6.235   4.033  0.00  0.00    -0.004 A 
ATOM     28  C   UNL     1      -4.434  -6.601   4.393  0.00  0.00    +0.055 A 
ATOM     29  C   UNL     1      -4.632  -7.472   5.422  0.00  0.00    +0.121 A 
ATOM     30  C   UNL     1      -3.555  -8.016   6.131  0.00  0.00    +0.047 A 
ATOM     31  C   UNL     1      -2.263  -7.714   5.843  0.00  0.00    +0.027 A 
ATOM     32  C   UNL     1      -1.951  -6.824   4.798  0.00  0.00    +0.041 A 
ATOM     33  N   UNL     1      -0.678  -6.537   4.526  0.00  0.00    -0.284 N 
ATOM     34  C   UNL     1      -0.315  -5.709   3.562  0.00  0.00    +0.226 C 
ATOM     35  O   UNL     1       0.864  -5.486   3.361  0.00  0.00    -0.275 OA
ATOM     36  H   UNL     1       0.014  -6.954   5.062  0.00  0.00    +0.155 HD
BRANCH  29  37
ATOM     37  O   UNL     1      -5.901  -7.820   5.766  0.00  0.00    -0.495 OA
ATOM     38  C   UNL     1      -6.050  -8.736   6.852  0.00  0.00    +0.277 C 
ENDBRANCH  29  37
ENDBRANCH  24  25
ENDBRANCH   1  24
TORSDOF 8
