REMARK  Name = ZINC32925544
REMARK  7 active torsions:
REMARK  status: ('A' for Active; 'I' for Inactive)
REMARK    1  A    between atoms: C_1  and  C_2
REMARK    2  A    between atoms: N_11  and  C_15
REMARK    3  A    between atoms: C_15  and  C_16
REMARK    4  A    between atoms: C_16  and  O_18
REMARK    5  A    between atoms: O_18  and  C_19
REMARK    6  A    between atoms: C_19  and  C_20
REMARK    7  A    between atoms: C_20  and  C_21
REMARK                            x       y       z     vdW  Elec       q    Type
REMARK                         _______ _______ _______ _____ _____    ______ ____
ROOT
ATOM      1  C   UNL     1      -0.018   1.503   0.010  0.00  0.00    +0.238 C 
ENDROOT
BRANCH   1  11
ATOM      2  C   UNL     1       4.262   0.430  -0.621  0.00  0.00    +0.010 C 
ATOM      3  C   UNL     1       4.512   1.847  -1.140  0.00  0.00    +0.018 C 
ATOM      4  C   UNL     1       5.865   2.347  -0.626  0.00  0.00    +0.006 C 
ATOM      5  C   UNL     1       6.105   3.772  -1.129  0.00  0.00    +0.000 C 
ATOM      6  C   UNL     1       5.000   4.691  -0.605  0.00  0.00    +0.003 C 
ATOM      7  C   UNL     1       3.644   4.201  -1.119  0.00  0.00    +0.035 C 
ATOM      8  C   UNL     1       3.405   2.771  -0.647  0.00  0.00    +0.115 C 
ATOM      9  C   UNL     1       2.057   2.278  -1.121  0.00  0.00    +0.247 C 
ATOM     10  O   UNL     1       1.684   2.151  -2.268  0.00  0.00    -0.273 OA
ATOM     11  N   UNL     1       1.356   2.010  -0.000  0.00  0.00    -0.213 N 
ATOM     12  C   UNL     1       2.071   2.270   1.102  0.00  0.00    +0.310 C 
ATOM     13  O   UNL     1       1.652   2.112   2.232  0.00  0.00    -0.252 OA
ATOM     14  N   UNL     1       3.307   2.722   0.818  0.00  0.00    -0.285 N 
ATOM     15  H   UNL     1       4.163   3.028   1.437  0.00  0.00    +0.151 HD
ENDBRANCH   1  11
BRANCH   1  16
ATOM     16  C   UNL     1       0.002  -0.004   0.002  0.00  0.00    +0.325 C 
ATOM     17  O   UNL     1       1.056  -0.594  -0.011  0.00  0.00    -0.249 OA
BRANCH  16  18
ATOM     18  O   UNL     1      -1.151  -0.691   0.009  0.00  0.00    -0.463 OA
BRANCH  18  19
ATOM     19  C   UNL     1      -1.056  -2.140   0.001  0.00  0.00    +0.240 C 
BRANCH  19  20
ATOM     20  C   UNL     1      -2.461  -2.744   0.011  0.00  0.00    +0.115 C 
BRANCH  20  21
ATOM     21  C   UNL     1      -2.362  -4.247   0.002  0.00  0.00    +0.110 A 
ATOM     22  C   UNL     1      -2.301  -5.019   1.096  0.00  0.00    +0.053 A 
ATOM     23  C   UNL     1      -2.214  -6.403   0.616  0.00  0.00    +0.021 A 
ATOM     24  C   UNL     1      -2.126  -7.647   1.240  0.00  0.00    +0.027 A 
ATOM     25  C   UNL     1      -2.058  -8.790   0.473  0.00  0.00    +0.019 A 
ATOM     26  C   UNL     1      -2.076  -8.704  -0.913  0.00  0.00    +0.019 A 
ATOM     27  C   UNL     1      -2.162  -7.481  -1.541  0.00  0.00    +0.048 A 
ATOM     28  C   UNL     1      -2.232  -6.317  -0.786  0.00  0.00    +0.135 A 
ATOM     29  O   UNL     1      -2.328  -5.010  -1.105  0.00  0.00    -0.460 OA
ATOM     30 BR   UNL     1      -1.938 -10.481   1.311  0.00  0.00    -0.050 Br
ENDBRANCH  20  21
ENDBRANCH  19  20
ENDBRANCH  18  19
ENDBRANCH  16  18
ENDBRANCH   1  16
TORSDOF 6
