REMARK  Name = ZINC01035618
REMARK  10 active torsions:
REMARK  status: ('A' for Active; 'I' for Inactive)
REMARK    1  A    between atoms: C_1  and  C_2
REMARK    2  A    between atoms: C_4  and  C_30
REMARK    3  A    between atoms: C_8  and  N_29
REMARK    4  A    between atoms: C_9  and  C_11
REMARK    5  A    between atoms: C_14  and  S_19
REMARK    6  A    between atoms: N_15  and  C_16
REMARK    7  A    between atoms: C_16  and  C_17
REMARK    8  A    between atoms: S_19  and  C_20
REMARK    9  A    between atoms: C_20  and  C_21
REMARK   10  A    between atoms: C_21  and  C_23
REMARK                            x       y       z     vdW  Elec       q    Type
REMARK                         _______ _______ _______ _____ _____    ______ ____
ROOT
ATOM      1  C   UNL     1       1.588  -0.771   4.669  0.00  0.00    +0.174 A 
ATOM      2  N   UNL     1       1.771   0.424   5.190  0.00  0.00    -0.128 NA
ATOM      3  N   UNL     1       2.445   0.329   6.280  0.00  0.00    -0.122 NA
ATOM      4  C   UNL     1       2.736  -0.928   6.524  0.00  0.00    +0.193 A 
ATOM      5  N   UNL     1       2.197  -1.675   5.512  0.00  0.00    -0.298 N 
ENDROOT
BRANCH   1  14
ATOM      6  C   UNL     1      -1.232   1.434   0.414  0.00  0.00    +0.044 C 
ATOM      7  C   UNL     1      -1.101  -0.067   0.368  0.00  0.00    -0.037 A 
ATOM      8  C   UNL     1      -1.648  -0.785  -0.669  0.00  0.00    +0.025 A 
ATOM      9  C   UNL     1      -1.526  -2.165  -0.708  0.00  0.00    +0.014 A 
ATOM     10  N   UNL     1      -0.882  -2.807   0.248  0.00  0.00    -0.353 N 
ATOM     11  C   UNL     1      -0.341  -2.166   1.260  0.00  0.00    +0.088 A 
ATOM     12  C   UNL     1      -0.406  -0.758   1.391  0.00  0.00    +0.030 A 
ATOM     13  C   UNL     1       0.254  -0.221   2.570  0.00  0.00    +0.052 A 
ATOM     14  C   UNL     1       0.867  -1.082   3.427  0.00  0.00    +0.080 A 
ATOM     15  S   UNL     1       0.574  -2.679   2.692  0.00  0.00    -0.066 S 
ATOM     16  C   UNL     1      -2.132  -2.938  -1.851  0.00  0.00    +0.063 C 
ATOM     17  H   UNL     1      -0.806  -3.773   0.204  0.00  0.00    +0.166 HD
BRANCH  13  18
ATOM     18  N   UNL     1       0.259   1.158   2.818  0.00  0.00    -0.356 N 
ATOM     19  H   UNL     1       0.106   1.782   2.092  0.00  0.00    +0.142 HD
ATOM     20  H   UNL     1       0.414   1.488   3.717  0.00  0.00    +0.142 HD
ENDBRANCH  13  18
ENDBRANCH   1  14
BRANCH   5  21
ATOM     21  C   UNL     1       2.258  -3.130   5.356  0.00  0.00    +0.152 C 
BRANCH  21  22
ATOM     22  C   UNL     1       3.488  -3.500   4.567  0.00  0.00    -0.013 C 
ATOM     23  C   UNL     1       4.350  -4.354   5.061  0.00  0.00    +0.005 C 
ENDBRANCH  21  22
ENDBRANCH   5  21
BRANCH   4  24
ATOM     24  S   UNL     1       3.645  -1.541   7.904  0.00  0.00    -0.078 S 
BRANCH  24  25
ATOM     25  C   UNL     1       4.056  -0.052   8.855  0.00  0.00    +0.157 C 
BRANCH  25  26
ATOM     26  C   UNL     1       4.845  -0.439  10.079  0.00  0.00    +0.173 C 
ATOM     27  O   UNL     1       5.104  -1.605  10.289  0.00  0.00    -0.291 OA
BRANCH  26  28
ATOM     28  C   UNL     1       5.300   0.598  11.020  0.00  0.00    +0.018 A 
ATOM     29  C   UNL     1       4.997   1.942  10.784  0.00  0.00    +0.011 A 
ATOM     30  C   UNL     1       5.426   2.908  11.670  0.00  0.00    +0.001 A 
ATOM     31  C   UNL     1       6.155   2.548  12.790  0.00  0.00    +0.000 A 
ATOM     32  C   UNL     1       6.460   1.220  13.030  0.00  0.00    +0.001 A 
ATOM     33  C   UNL     1       6.032   0.242  12.157  0.00  0.00    +0.011 A 
ENDBRANCH  26  28
ENDBRANCH  25  26
ENDBRANCH  24  25
ENDBRANCH   4  24
TORSDOF 8
