REMARK  Name = ZINC66679856
REMARK  7 active torsions:
REMARK  status: ('A' for Active; 'I' for Inactive)
REMARK    1  A    between atoms: C_1  and  C_2
REMARK    2  A    between atoms: C_2  and  C_3
REMARK    3  A    between atoms: C_2  and  C_4
REMARK    4  A    between atoms: C_4  and  C_6
REMARK    5  A    between atoms: C_4  and  N_13
REMARK    6  A    between atoms: N_16  and  C_17
REMARK    7  A    between atoms: C_21  and  C_23
REMARK                            x       y       z     vdW  Elec       q    Type
REMARK                         _______ _______ _______ _____ _____    ______ ____
ROOT
ATOM      1  N   UNL     1      -2.006   0.032  -1.219  0.00  0.00    -0.292 N 
ATOM      2  C   UNL     1      -2.591   1.246  -1.222  0.00  0.00    +0.304 C 
ATOM      3  O   UNL     1      -2.408   2.011  -0.294  0.00  0.00    -0.252 OA
ATOM      4  N   UNL     1      -3.379   1.612  -2.252  0.00  0.00    -0.269 N 
ATOM      5  H   UNL     1      -2.152  -0.578  -1.958  0.00  0.00    +0.151 HD
ATOM      6  H   UNL     1      -3.463   1.035  -3.027  0.00  0.00    +0.156 HD
ENDROOT
BRANCH   4   7
ATOM      7  C   UNL     1      -4.075   2.826  -2.204  0.00  0.00    +0.035 A 
ATOM      8  C   UNL     1      -4.302   3.543  -3.372  0.00  0.00    +0.023 A 
ATOM      9  C   UNL     1      -4.988   4.742  -3.329  0.00  0.00    +0.002 A 
ATOM     10  C   UNL     1      -5.452   5.233  -2.125  0.00  0.00    +0.010 A 
ATOM     11  C   UNL     1      -5.229   4.520  -0.949  0.00  0.00    +0.004 A 
ATOM     12  C   UNL     1      -4.542   3.309  -0.992  0.00  0.00    +0.033 A 
BRANCH  11  13
ATOM     13  C   UNL     1      -5.726   5.048   0.346  0.00  0.00    +0.091 A 
ATOM     14  C   UNL     1      -6.432   6.272   0.384  0.00  0.00    +0.035 A 
ATOM     15  C   UNL     1      -6.874   6.726   1.591  0.00  0.00    +0.073 A 
ATOM     16  C   UNL     1      -6.599   5.941   2.733  0.00  0.00    +0.265 A 
ATOM     17  O   UNL     1      -6.975   6.306   3.835  0.00  0.00    -0.266 OA
ATOM     18  N   UNL     1      -5.918   4.788   2.597  0.00  0.00    -0.243 N 
ATOM     19  H   UNL     1      -5.733   4.253   3.385  0.00  0.00    +0.192 HD
ATOM     20  N   UNL     1      -5.513   4.373   1.451  0.00  0.00    -0.171 NA
ENDBRANCH  11  13
ENDBRANCH   4   7
BRANCH   1  21
ATOM     21  C   UNL     1      -1.149  -0.366  -0.099  0.00  0.00    +0.107 C 
BRANCH  21  22
ATOM     22  C   UNL     1      -1.122  -1.869   0.003  0.00  0.00    -0.027 A 
ATOM     23  C   UNL     1      -1.059  -2.639  -1.143  0.00  0.00    +0.007 A 
ATOM     24  C   UNL     1      -1.034  -4.017  -1.050  0.00  0.00    +0.020 A 
ATOM     25  C   UNL     1      -1.072  -4.628   0.191  0.00  0.00    +0.041 A 
ATOM     26  C   UNL     1      -1.135  -3.857   1.338  0.00  0.00    +0.020 A 
ATOM     27  C   UNL     1      -1.154  -2.478   1.244  0.00  0.00    +0.007 A 
ATOM     28 CL   UNL     1      -1.041  -6.359   0.308  0.00  0.00    -0.084 Cl
ENDBRANCH  21  22
BRANCH  21  30
ATOM     29  C   UNL     1       0.242   1.682  -0.435  0.00  0.00    +0.009 C 
ATOM     30  C   UNL     1       0.270   0.155  -0.332  0.00  0.00    +0.008 C 
ATOM     31  C   UNL     1       1.164  -0.260   0.838  0.00  0.00    +0.009 C 
ENDBRANCH  21  30
ENDBRANCH   1  21
TORSDOF 5
