REMARK  Name = ZINC36276996
REMARK  3 active torsions:
REMARK  status: ('A' for Active; 'I' for Inactive)
REMARK    1  A    between atoms: C_1  and  C_2
REMARK    2  A    between atoms: C_11  and  N_16
REMARK    3  A    between atoms: N_16  and  C_17
REMARK                            x       y       z     vdW  Elec       q    Type
REMARK                         _______ _______ _______ _____ _____    ______ ____
ROOT
ATOM      1  C   UNL     1      -0.851   1.653   0.942  0.00  0.00    +0.008 C 
ATOM      2  C   UNL     1      -0.636   0.152   0.738  0.00  0.00    -0.009 C 
ATOM      3  C   UNL     1      -1.992  -0.548   0.611  0.00  0.00    +0.008 C 
ATOM      4  C   UNL     1      -1.788  -1.996   0.163  0.00  0.00    +0.037 C 
ATOM      5  C   UNL     1      -0.790  -2.668   1.102  0.00  0.00    -0.025 A 
ATOM      6  C   UNL     1       0.032  -1.925   1.877  0.00  0.00    -0.004 A 
ATOM      7  S   UNL     1       1.003  -3.099   2.789  0.00  0.00    -0.073 S 
ATOM      8  C   UNL     1       0.307  -4.582   2.135  0.00  0.00    +0.115 A 
ATOM      9  C   UNL     1      -0.667  -4.112   1.218  0.00  0.00    +0.051 A 
ATOM     10  C   UNL     1      -1.417  -5.098   0.514  0.00  0.00    +0.132 A 
ATOM     11  N   UNL     1      -1.119  -6.365   0.795  0.00  0.00    -0.202 NA
ATOM     12  C   UNL     1      -0.195  -6.729   1.664  0.00  0.00    +0.225 A 
ATOM     13  N   UNL     1       0.538  -5.861   2.354  0.00  0.00    -0.210 NA
ATOM     14 CL   UNL     1       0.074  -8.424   1.921  0.00  0.00    -0.041 Cl
ATOM     15  C   UNL     1       0.110  -0.430   1.946  0.00  0.00    +0.046 C 
ENDROOT
BRANCH  10  16
ATOM     16  N   UNL     1      -2.394  -4.760  -0.405  0.00  0.00    -0.326 N 
ATOM     17  H   UNL     1      -2.530  -3.831  -0.649  0.00  0.00    +0.148 HD
BRANCH  16  18
ATOM     18  C   UNL     1      -3.223  -5.805  -1.011  0.00  0.00    +0.068 C 
ATOM     19  C   UNL     1      -2.501  -6.391  -2.228  0.00  0.00    +0.003 C 
ATOM     20  C   UNL     1      -3.405  -7.425  -2.902  0.00  0.00    -0.081 C 
ATOM     21  N   UNL     1      -4.652  -6.783  -3.333  0.00  0.00    +0.379 N 
ATOM     22  C   UNL     1      -5.385  -6.282  -2.164  0.00  0.00    -0.081 C 
ATOM     23  C   UNL     1      -4.557  -5.204  -1.462  0.00  0.00    +0.003 C 
ATOM     24  H   UNL     1      -4.437  -6.013  -3.949  0.00  0.00    -0.086 HD
ATOM     25  H   UNL     1      -5.223  -7.454  -3.824  0.00  0.00    -0.086 HD
ENDBRANCH  16  18
ENDBRANCH  10  16
TORSDOF 2
