REMARK  Name = ZINC12274545
REMARK  5 active torsions:
REMARK  status: ('A' for Active; 'I' for Inactive)
REMARK    1  A    between atoms: C_1  and  O_2
REMARK    2  A    between atoms: O_2  and  C_3
REMARK    3  A    between atoms: C_3  and  C_5
REMARK    4  A    between atoms: C_9  and  N_10
REMARK    5  A    between atoms: C_11  and  C_13
REMARK                            x       y       z     vdW  Elec       q    Type
REMARK                         _______ _______ _______ _____ _____    ______ ____
ROOT
ATOM      1  N   UNL     1       0.192   3.673   1.543  0.00  0.00    -0.275 N 
ATOM      2  C   UNL     1       1.270   3.307   0.822  0.00  0.00    +0.249 C 
ATOM      3  O   UNL     1       2.276   3.984   0.847  0.00  0.00    -0.270 OA
ATOM      4  H   UNL     1      -0.613   3.132   1.523  0.00  0.00    +0.156 HD
ENDROOT
BRANCH   2   5
ATOM      5  C   UNL     1       1.225   2.084   0.002  0.00  0.00    +0.041 C 
ATOM      6  C   UNL     1       2.288   1.774  -0.675  0.00  0.00    +0.024 C 
ATOM      7  C   UNL     1       2.428   0.601  -1.544  0.00  0.00    +0.018 A 
ATOM      8  C   UNL     1       3.171   0.732  -2.814  0.00  0.00    +0.011 A 
ATOM      9  C   UNL     1       3.348  -0.314  -3.589  0.00  0.00    +0.001 A 
ATOM     10  C   UNL     1       2.803  -1.623  -3.191  0.00  0.00    +0.004 A 
ATOM     11  C   UNL     1       2.125  -1.737  -2.071  0.00  0.00    +0.047 A 
ATOM     12  C   UNL     1       1.908  -0.557  -1.210  0.00  0.00    +0.135 A 
ATOM     13  O   UNL     1       1.163  -0.696  -0.082  0.00  0.00    -0.463 OA
ATOM     14  C   UNL     1       0.002  -0.004   0.002  0.00  0.00    +0.196 C 
ATOM     15  C   UNL     1      -0.016   1.306   0.009  0.00  0.00    +0.051 C 
ENDBRANCH   2   5
BRANCH   1  20
ATOM     16  C   UNL     1      -0.766   5.364   3.114  0.00  0.00    +0.091 A 
ATOM     17  C   UNL     1      -0.462   6.591   3.832  0.00  0.00    -0.021 A 
ATOM     18  C   UNL     1       0.779   7.084   3.628  0.00  0.00    -0.004 A 
ATOM     19  S   UNL     1       1.542   5.942   2.511  0.00  0.00    -0.077 S 
ATOM     20  C   UNL     1       0.234   4.824   2.315  0.00  0.00    +0.087 A 
ATOM     21  C   UNL     1       1.366   8.327   4.223  0.00  0.00    +0.043 C 
ATOM     22  C   UNL     1       0.223   9.168   4.811  0.00  0.00    +0.005 C 
ATOM     23  C   UNL     1      -0.673   8.259   5.657  0.00  0.00    +0.005 C 
ATOM     24  C   UNL     1      -1.448   7.301   4.751  0.00  0.00    +0.037 C 
BRANCH  16  25
ATOM     25  C   UNL     1      -2.075   4.719   3.233  0.00  0.00    +0.342 C 
ATOM     26  O   UNL     1      -2.267   3.889   4.101  0.00  0.00    -0.245 OA
BRANCH  25  28
ATOM     27  C   UNL     1      -4.338   4.365   2.556  0.00  0.00    +0.280 C 
ATOM     28  O   UNL     1      -3.067   5.045   2.380  0.00  0.00    -0.464 OA
ENDBRANCH  25  28
ENDBRANCH  16  25
ENDBRANCH   1  20
TORSDOF 4
