REMARK  Name = ZINC12378998
REMARK  5 active torsions:
REMARK  status: ('A' for Active; 'I' for Inactive)
REMARK    1  A    between atoms: C_1  and  C_2
REMARK    2  A    between atoms: C_2  and  C_23
REMARK    3  A    between atoms: N_3  and  N_4
REMARK    4  A    between atoms: C_7  and  C_17
REMARK    5  A    between atoms: C_8  and  C_11
REMARK                            x       y       z     vdW  Elec       q    Type
REMARK                         _______ _______ _______ _____ _____    ______ ____
ROOT
ATOM      1  N   UNL     1       2.336   0.076  -0.118  0.00  0.00    -0.204 N 
ATOM      2  C   UNL     1       3.530  -0.587  -0.341  0.00  0.00    +0.255 A 
ATOM      3  N   UNL     1       4.666   0.098  -0.346  0.00  0.00    -0.210 NA
ATOM      4  C   UNL     1       5.814  -0.540  -0.561  0.00  0.00    +0.102 A 
ATOM      5  C   UNL     1       5.779  -1.932  -0.777  0.00  0.00    +0.119 A 
ATOM      6  N   UNL     1       4.606  -2.557  -0.758  0.00  0.00    -0.144 NA
ATOM      7  N   UNL     1       3.521  -1.900  -0.541  0.00  0.00    -0.111 NA
ATOM      8  H   UNL     1       2.333   1.034   0.033  0.00  0.00    +0.178 HD
ENDROOT
BRANCH   5   9
ATOM      9  C   UNL     1       7.030  -2.688  -1.020  0.00  0.00    +0.004 A 
ATOM     10  C   UNL     1       8.072  -2.103  -1.741  0.00  0.00    +0.010 A 
ATOM     11  C   UNL     1       9.237  -2.809  -1.960  0.00  0.00    +0.001 A 
ATOM     12  C   UNL     1       9.369  -4.099  -1.476  0.00  0.00    +0.000 A 
ATOM     13  C   UNL     1       8.337  -4.686  -0.765  0.00  0.00    +0.001 A 
ATOM     14  C   UNL     1       7.169  -3.987  -0.535  0.00  0.00    +0.010 A 
ENDBRANCH   5   9
BRANCH   4  15
ATOM     15  C   UNL     1       7.099   0.197  -0.573  0.00  0.00    +0.003 A 
ATOM     16  C   UNL     1       8.255  -0.404  -0.073  0.00  0.00    +0.010 A 
ATOM     17  C   UNL     1       9.450   0.285  -0.092  0.00  0.00    +0.001 A 
ATOM     18  C   UNL     1       9.502   1.574  -0.593  0.00  0.00    +0.000 A 
ATOM     19  C   UNL     1       8.358   2.177  -1.085  0.00  0.00    +0.001 A 
ATOM     20  C   UNL     1       7.158   1.495  -1.077  0.00  0.00    +0.010 A 
ENDBRANCH   4  15
BRANCH   1  23
ATOM     21  C   UNL     1      -1.293  -0.754   0.057  0.00  0.00    +0.068 C 
ATOM     22  C   UNL     1       0.024  -0.039   0.212  0.00  0.00    +0.063 C 
ATOM     23  N   UNL     1       1.130  -0.637  -0.110  0.00  0.00    -0.184 NA
BRANCH  22  24
ATOM     24  C   UNL     1       0.057   1.342   0.730  0.00  0.00    -0.002 A 
ATOM     25  C   UNL     1       1.109   1.759   1.548  0.00  0.00    +0.011 A 
ATOM     26  C   UNL     1       1.136   3.053   2.026  0.00  0.00    +0.015 A 
ATOM     27  C   UNL     1       0.118   3.934   1.704  0.00  0.00    +0.013 A 
ATOM     28  C   UNL     1      -0.931   3.525   0.898  0.00  0.00    +0.015 A 
ATOM     29  C   UNL     1      -0.968   2.236   0.410  0.00  0.00    +0.011 A 
ATOM     30  I   UNL     1       0.164   5.895   2.440  0.00  0.00    -0.044 I 
ENDBRANCH  22  24
ENDBRANCH   1  23
TORSDOF 4
