REMARK  Name = ZINC08930637
REMARK  12 active torsions:
REMARK  status: ('A' for Active; 'I' for Inactive)
REMARK    1  A    between atoms: C_1  and  C_2
REMARK    2  A    between atoms: C_2  and  C_3
REMARK    3  A    between atoms: C_2  and  O_4
REMARK    4  A    between atoms: O_4  and  C_5
REMARK    5  A    between atoms: C_8  and  C_11
REMARK    6  A    between atoms: N_13  and  C_14
REMARK    7  A    between atoms: C_14  and  C_15
REMARK    8  A    between atoms: C_15  and  O_17
REMARK    9  A    between atoms: O_17  and  C_18
REMARK   10  A    between atoms: C_18  and  C_19
REMARK   11  A    between atoms: C_22  and  C_32
REMARK   12  A    between atoms: C_25  and  C_27
REMARK                            x       y       z     vdW  Elec       q    Type
REMARK                         _______ _______ _______ _____ _____    ______ ____
ROOT
ATOM      1  O   UNL     1       4.090   3.369   4.292  0.00  0.00    -0.454 OA
ENDROOT
BRANCH   1   2
ATOM      2  C   UNL     1       4.800   4.244   5.021  0.00  0.00    +0.325 C 
ATOM      3  O   UNL     1       5.798   4.745   4.560  0.00  0.00    -0.249 OA
BRANCH   2   4
ATOM      4  C   UNL     1       4.351   4.603   6.415  0.00  0.00    +0.225 C 
BRANCH   4   7
ATOM      5  C   UNL     1       5.086   6.036   8.243  0.00  0.00    +0.245 C 
ATOM      6  O   UNL     1       4.128   5.655   8.888  0.00  0.00    -0.270 OA
ATOM      7  N   UNL     1       5.287   5.569   6.995  0.00  0.00    -0.301 N 
ATOM      8  H   UNL     1       6.051   5.873   6.481  0.00  0.00    +0.150 HD
BRANCH   5  12
ATOM      9  C   UNL     1       7.797   8.838   9.925  0.00  0.00    +0.121 A 
ATOM     10  C   UNL     1       6.703   8.404  10.664  0.00  0.00    +0.046 A 
ATOM     11  C   UNL     1       5.821   7.495  10.122  0.00  0.00    +0.016 A 
ATOM     12  C   UNL     1       6.028   7.010   8.828  0.00  0.00    +0.037 A 
ATOM     13  C   UNL     1       7.133   7.445   8.091  0.00  0.00    +0.016 A 
ATOM     14  C   UNL     1       8.007   8.358   8.638  0.00  0.00    +0.046 A 
BRANCH   9  15
ATOM     15  O   UNL     1       8.664   9.734  10.463  0.00  0.00    -0.489 OA
BRANCH  15  17
ATOM     16  C   UNL     1       9.781  10.570  12.436  0.00  0.00    +0.051 C 
ATOM     17  C   UNL     1       8.458  10.095  11.830  0.00  0.00    +0.167 C 
ATOM     18  C   UNL     1       7.427  11.223  11.910  0.00  0.00    +0.051 C 
ENDBRANCH  15  17
ENDBRANCH   9  15
ENDBRANCH   5  12
ENDBRANCH   4   7
ENDBRANCH   2   4
ENDBRANCH   1   2
BRANCH   1  19
ATOM     19  C   UNL     1       4.580   3.071   2.959  0.00  0.00    +0.329 C 
BRANCH  19  20
ATOM     20  C   UNL     1       3.662   2.076   2.296  0.00  0.00    +0.273 C 
ATOM     21  O   UNL     1       2.689   1.660   2.890  0.00  0.00    -0.270 OA
ATOM     22  N   UNL     1       3.921   1.650   1.044  0.00  0.00    -0.179 N 
ATOM     23  C   UNL     1       3.110   0.686   0.284  0.00  0.00    +0.173 C 
ATOM     24  C   UNL     1       3.855   0.566  -1.061  0.00  0.00    +0.090 C 
ATOM     25  C   UNL     1       5.034   1.500  -0.909  0.00  0.00    +0.075 C 
ATOM     26  N   UNL     1       5.001   2.050   0.259  0.00  0.00    -0.180 NA
BRANCH  25  27
ATOM     27  C   UNL     1       6.059   1.743  -1.929  0.00  0.00    +0.035 A 
ATOM     28  C   UNL     1       7.165   2.574  -1.876  0.00  0.00    +0.017 A 
ATOM     29  C   UNL     1       7.991   2.634  -2.974  0.00  0.00    +0.008 A 
ATOM     30  C   UNL     1       7.699   1.883  -4.068  0.00  0.00    +0.046 A 
ATOM     31  S   UNL     1       6.210   1.038  -3.563  0.00  0.00    -0.095 S 
ENDBRANCH  25  27
BRANCH  23  32
ATOM     32  C   UNL     1       1.716   1.216   0.072  0.00  0.00    +0.128 A 
ATOM     33  C   UNL     1       0.591   0.479   0.035  0.00  0.00    +0.046 A 
ATOM     34  C   UNL     1      -0.479   1.376  -0.190  0.00  0.00    +0.041 A 
ATOM     35  C   UNL     1       0.055   2.608  -0.268  0.00  0.00    +0.195 A 
ATOM     36  O   UNL     1       1.385   2.505  -0.112  0.00  0.00    -0.466 OA
ENDBRANCH  23  32
ENDBRANCH  19  20
ENDBRANCH   1  19
TORSDOF 10
