REMARK  Name = ZINC39662233
REMARK  5 active torsions:
REMARK  status: ('A' for Active; 'I' for Inactive)
REMARK    1  A    between atoms: C_4  and  C_7
REMARK    2  A    between atoms: C_7  and  C_9
REMARK    3  A    between atoms: C_7  and  N_11
REMARK    4  A    between atoms: C_12  and  C_14
REMARK    5  A    between atoms: C_25  and  C_27
REMARK                            x       y       z     vdW  Elec       q    Type
REMARK                         _______ _______ _______ _____ _____    ______ ____
ROOT
ATOM      1  C   UNL     1       4.668  -3.585   2.299  0.00  0.00    +0.100 C 
ATOM      2  C   UNL     1       4.008  -4.772   1.563  0.00  0.00    +0.121 C 
ATOM      3  N   UNL     1       5.144  -5.563   1.034  0.00  0.00    -0.296 N 
ATOM      4  C   UNL     1       6.158  -5.519   2.114  0.00  0.00    +0.115 C 
ATOM      5  C   UNL     1       6.078  -4.080   2.663  0.00  0.00    -0.004 C 
ATOM      6  C   UNL     1       6.264  -4.081   4.177  0.00  0.00    -0.010 C 
ATOM      7  C   UNL     1       7.692  -4.521   4.511  0.00  0.00    -0.082 C 
ATOM      8  N   UNL     1       8.649  -3.604   3.881  0.00  0.00    +0.379 N 
ATOM      9  C   UNL     1       8.527  -3.679   2.420  0.00  0.00    -0.082 C 
ATOM     10  C   UNL     1       7.134  -3.203   1.997  0.00  0.00    -0.010 C 
ATOM     11  C   UNL     1       5.234  -6.183  -0.159  0.00  0.00    +0.249 C 
ATOM     12  O   UNL     1       6.242  -6.799  -0.449  0.00  0.00    -0.270 OA
ATOM     13  H   UNL     1       8.459  -2.660   4.185  0.00  0.00    -0.086 HD
ATOM     14  H   UNL     1       9.586  -3.859   4.152  0.00  0.00    -0.086 HD
ENDROOT
BRANCH  11  15
ATOM     15  C   UNL     1       4.110  -6.115  -1.114  0.00  0.00    +0.073 A 
ATOM     16  C   UNL     1       4.050  -5.085  -2.056  0.00  0.00    +0.054 A 
ATOM     17  C   UNL     1       2.995  -5.028  -2.946  0.00  0.00    +0.021 A 
ATOM     18  C   UNL     1       2.000  -5.987  -2.906  0.00  0.00    +0.003 A 
ATOM     19  C   UNL     1       2.051  -7.010  -1.976  0.00  0.00    +0.021 A 
ATOM     20  C   UNL     1       3.103  -7.083  -1.083  0.00  0.00    +0.054 A 
ATOM     21 CL   UNL     1       3.170  -8.372   0.078  0.00  0.00    -0.083 Cl
ATOM     22 CL   UNL     1       5.298  -3.879  -2.108  0.00  0.00    -0.083 Cl
ENDBRANCH  11  15
BRANCH   1  24
ATOM     23  N   UNL     1       4.805  -1.145   1.916  0.00  0.00    -0.296 N 
ATOM     24  C   UNL     1       4.751  -2.385   1.391  0.00  0.00    +0.219 C 
ATOM     25  O   UNL     1       4.770  -2.535   0.187  0.00  0.00    -0.275 OA
ATOM     26  H   UNL     1       4.790  -1.024   2.878  0.00  0.00    +0.150 HD
BRANCH  23  27
ATOM     27  C   UNL     1       4.886   0.021   1.033  0.00  0.00    +0.207 C 
BRANCH  27  31
ATOM     28  C   UNL     1       6.714   3.268   3.123  0.00  0.00    +0.000 A 
ATOM     29  C   UNL     1       7.026   3.037   1.796  0.00  0.00    +0.000 A 
ATOM     30  C   UNL     1       6.434   1.986   1.120  0.00  0.00    +0.006 A 
ATOM     31  C   UNL     1       5.532   1.166   1.770  0.00  0.00    -0.013 A 
ATOM     32  C   UNL     1       5.221   1.396   3.098  0.00  0.00    +0.006 A 
ATOM     33  C   UNL     1       5.811   2.447   3.774  0.00  0.00    +0.000 A 
ENDBRANCH  27  31
BRANCH  27  34
ATOM     34  C   UNL     1       3.531   0.412   0.610  0.00  0.00    +0.090 C 
ATOM     35  N   UNL     1       2.486   0.713   0.283  0.00  0.00    -0.194 NA
ENDBRANCH  27  34
ENDBRANCH  23  27
ENDBRANCH   1  24
TORSDOF 5
