REMARK  Name = ZINC65183962
REMARK  8 active torsions:
REMARK  status: ('A' for Active; 'I' for Inactive)
REMARK    1  A    between atoms: C_1  and  C_2
REMARK    2  A    between atoms: C_5  and  N_9
REMARK    3  A    between atoms: N_9  and  S_10
REMARK    4  A    between atoms: S_10  and  C_13
REMARK    5  A    between atoms: C_14  and  C_22
REMARK    6  A    between atoms: C_19  and  C_21
REMARK    7  A    between atoms: C_22  and  C_23
REMARK    8  A    between atoms: C_22  and  C_24
REMARK                            x       y       z     vdW  Elec       q    Type
REMARK                         _______ _______ _______ _____ _____    ______ ____
ROOT
ATOM      1  S   UNL     1       0.075  -5.008   1.404  0.00  0.00    +0.111 S 
ATOM      2  O   UNL     1       1.320  -4.722   2.026  0.00  0.00    -0.147 OA
ATOM      3  O   UNL     1      -1.170  -4.754   2.039  0.00  0.00    -0.147 OA
ENDROOT
BRANCH   1   4
ATOM      4  C   UNL     1       0.095  -6.723   1.002  0.00  0.00    +0.224 A 
ATOM      5  C   UNL     1      -0.981  -7.508   0.821  0.00  0.00    +0.092 A 
ATOM      6  N   UNL     1      -0.557  -8.746   0.530  0.00  0.00    -0.223 NA
ATOM      7  C   UNL     1       0.744  -8.756   0.523  0.00  0.00    +0.198 A 
ATOM      8  N   UNL     1       1.227  -7.506   0.809  0.00  0.00    -0.186 N 
ATOM      9  N   UNL     1       2.611  -7.367   0.831  0.00  0.00    -0.161 NA
ATOM     10  C   UNL     1       3.397  -8.372   0.589  0.00  0.00    +0.099 A 
ATOM     11  S   UNL     1       2.235  -9.697   0.298  0.00  0.00    -0.033 S 
ATOM     12  C   UNL     1       4.903  -8.412   0.568  0.00  0.00    +0.075 C 
BRANCH   5  13
ATOM     13  C   UNL     1      -2.420  -7.070   0.929  0.00  0.00    +0.035 C 
ATOM     14  C   UNL     1      -3.126  -7.307  -0.408  0.00  0.00    +0.014 C 
ATOM     15  C   UNL     1      -3.118  -7.878   2.025  0.00  0.00    +0.014 C 
ENDBRANCH   5  13
ENDBRANCH   1   4
BRANCH   1  16
ATOM     16  N   UNL     1       0.057  -4.170  -0.025  0.00  0.00    -0.094 NA
BRANCH  16  21
ATOM     17  C   UNL     1      -0.018   1.503   0.010  0.00  0.00    +0.044 C 
ATOM     18  C   UNL     1       0.002  -0.004   0.002  0.00  0.00    -0.048 A 
ATOM     19  C   UNL     1       0.006  -0.687  -1.200  0.00  0.00    +0.005 A 
ATOM     20  C   UNL     1       0.024  -2.068  -1.212  0.00  0.00    +0.030 A 
ATOM     21  C   UNL     1       0.039  -2.772  -0.016  0.00  0.00    +0.109 A 
ATOM     22  C   UNL     1       0.036  -2.083   1.192  0.00  0.00    +0.148 A 
ATOM     23  C   UNL     1       0.023  -0.700   1.197  0.00  0.00    +0.043 A 
ATOM     24  F   UNL     1       0.050  -2.763   2.359  0.00  0.00    -0.203 F 
ENDBRANCH  16  21
ENDBRANCH   1  16
TORSDOF 4
