REMARK  Name = ZINC36310197
REMARK  13 active torsions:
REMARK  status: ('A' for Active; 'I' for Inactive)
REMARK    1  A    between atoms: C_2  and  C_3
REMARK    2  A    between atoms: C_3  and  C_4
REMARK    3  A    between atoms: C_4  and  C_5
REMARK    4  A    between atoms: C_5  and  C_7
REMARK    5  A    between atoms: C_5  and  O_35
REMARK    6  A    between atoms: C_7  and  N_8
REMARK    7  A    between atoms: N_8  and  C_9
REMARK    8  A    between atoms: N_8  and  C_13
REMARK    9  A    between atoms: C_9  and  C_10
REMARK   10  A    between atoms: C_13  and  C_14
REMARK   11  A    between atoms: C_24  and  C_26
REMARK   12  A    between atoms: C_26  and  O_27
REMARK   13  A    between atoms: O_27  and  C_28
REMARK                            x       y       z     vdW  Elec       q    Type
REMARK                         _______ _______ _______ _____ _____    ______ ____
ROOT
ATOM      1  C   UNL     1       5.617  -5.906   2.814  0.00  0.00    +0.200 C 
ATOM      2  O   UNL     1       6.200  -5.686   1.774  0.00  0.00    -0.278 OA
ATOM      3  N   UNL     1       6.044  -6.890   3.631  0.00  0.00    -0.292 N 
ATOM      4  C   UNL     1       5.341  -7.169   4.892  0.00  0.00    +0.113 C 
ATOM      5  C   UNL     1       4.731  -8.577   4.803  0.00  0.00    +0.061 C 
ATOM      6  C   UNL     1       5.738  -9.497   4.193  0.00  0.00    -0.004 A 
ATOM      7  C   UNL     1       6.859  -9.166   3.496  0.00  0.00    -0.014 A 
ATOM      8  C   UNL     1       7.634 -10.223   3.020  0.00  0.00    +0.013 A 
ATOM      9  C   UNL     1       7.260 -11.499   3.263  0.00  0.00    +0.046 A 
ATOM     10  S   UNL     1       5.757 -11.270   4.201  0.00  0.00    -0.101 S 
ATOM     11  C   UNL     1       7.214  -7.702   3.271  0.00  0.00    +0.144 C 
ENDROOT
BRANCH   1  12
ATOM     12  C   UNL     1       4.416  -5.080   3.194  0.00  0.00    +0.019 C 
BRANCH  12  13
ATOM     13  N   UNL     1       4.069  -4.181   2.085  0.00  0.00    +0.387 N 
ATOM     14  H   UNL     1       4.883  -3.647   1.818  0.00  0.00    -0.081 HD
BRANCH  13  15
ATOM     15  C   UNL     1       3.607  -4.974   0.939  0.00  0.00    -0.046 C 
BRANCH  15  16
ATOM     16  C   UNL     1       3.420  -4.059  -0.273  0.00  0.00    +0.098 C 
BRANCH  16  17
ATOM     17  O   UNL     1       2.319  -3.178  -0.040  0.00  0.00    -0.394 OA
ATOM     18  H   UNL     1       1.478  -3.631   0.108  0.00  0.00    +0.210 HD
ENDBRANCH  16  17
BRANCH  16  19
ATOM     19  C   UNL     1       3.140  -4.907  -1.515  0.00  0.00    +0.033 C 
BRANCH  19  20
ATOM     20  C   UNL     1       3.077  -4.002  -2.747  0.00  0.00    +0.029 C 
BRANCH  20  22
ATOM     21  C   UNL     1       1.782  -4.553  -4.742  0.00  0.00    +0.004 C 
ATOM     22  C   UNL     1       2.801  -4.838  -3.971  0.00  0.00    -0.034 C 
ENDBRANCH  20  22
ENDBRANCH  19  20
ENDBRANCH  16  19
ENDBRANCH  15  16
ENDBRANCH  13  15
BRANCH  13  23
ATOM     23  C   UNL     1       3.001  -3.267   2.511  0.00  0.00    -0.075 C 
BRANCH  23  24
ATOM     24  C   UNL     1       3.499  -2.409   3.676  0.00  0.00    -0.028 C 
ATOM     25  C   UNL     1       2.833  -2.615   5.039  0.00  0.00    +0.002 C 
ATOM     26  C   UNL     1       2.545  -1.349   4.230  0.00  0.00    +0.002 C 
ENDBRANCH  23  24
ENDBRANCH  13  23
ENDBRANCH  12  13
ENDBRANCH   1  12
BRANCH  11  27
ATOM     27  C   UNL     1       8.402  -7.320   4.155  0.00  0.00    +0.256 C 
BRANCH  27  28
ATOM     28  O   UNL     1       8.114  -7.660   5.513  0.00  0.00    -0.490 OA
BRANCH  28  29
ATOM     29  C   UNL     1       9.074  -7.383   6.436  0.00  0.00    +0.121 A 
ATOM     30  C   UNL     1      10.265  -6.793   6.042  0.00  0.00    +0.048 A 
ATOM     31  C   UNL     1      11.240  -6.512   6.980  0.00  0.00    +0.042 A 
ATOM     32  C   UNL     1      11.028  -6.822   8.313  0.00  0.00    +0.124 A 
ATOM     33  C   UNL     1       9.839  -7.412   8.707  0.00  0.00    +0.042 A 
ATOM     34  C   UNL     1       8.860  -7.687   7.772  0.00  0.00    +0.048 A 
ATOM     35  F   UNL     1      11.982  -6.548   9.230  0.00  0.00    -0.205 F 
ENDBRANCH  28  29
ENDBRANCH  27  28
ENDBRANCH  11  27
TORSDOF 13
