REMARK  Name = ZINC41585237
REMARK  7 active torsions:
REMARK  status: ('A' for Active; 'I' for Inactive)
REMARK    1  A    between atoms: C_1  and  C_2
REMARK    2  A    between atoms: C_3  and  O_27
REMARK    3  A    between atoms: C_9  and  O_26
REMARK    4  A    between atoms: C_10  and  C_13
REMARK    5  A    between atoms: C_13  and  N_14
REMARK    6  A    between atoms: N_17  and  C_20
REMARK    7  A    between atoms: O_27  and  C_28
REMARK                            x       y       z     vdW  Elec       q    Type
REMARK                         _______ _______ _______ _____ _____    ______ ____
ROOT
ATOM      1  C   UNL     1       0.322   1.052   0.126  0.00  0.00    +0.090 C 
ATOM      2  C   UNL     1       0.112  -0.440   0.069  0.00  0.00    +0.148 A 
ATOM      3  C   UNL     1      -1.141  -0.921   0.199  0.00  0.00    +0.213 A 
ATOM      4  C   UNL     1      -1.362  -2.326   0.148  0.00  0.00    +0.235 A 
ATOM      5  O   UNL     1      -2.481  -2.798   0.262  0.00  0.00    -0.283 OA
ATOM      6  C   UNL     1      -0.183  -3.187  -0.049  0.00  0.00    +0.068 A 
ATOM      7  C   UNL     1      -0.299  -4.577  -0.113  0.00  0.00    +0.019 A 
ATOM      8  C   UNL     1       0.816  -5.342  -0.297  0.00  0.00    +0.046 A 
ATOM      9  C   UNL     1       2.069  -4.744  -0.420  0.00  0.00    +0.125 A 
ATOM     10  C   UNL     1       2.201  -3.367  -0.359  0.00  0.00    +0.051 A 
ATOM     11  C   UNL     1       1.077  -2.575  -0.173  0.00  0.00    +0.147 A 
ATOM     12  O   UNL     1       1.177  -1.232  -0.115  0.00  0.00    -0.456 OA
ENDROOT
BRANCH   9  13
ATOM     13  O   UNL     1       3.169  -5.518  -0.602  0.00  0.00    -0.506 OA
ATOM     14  H   UNL     1       3.378  -5.693  -1.530  0.00  0.00    +0.292 HD
ENDBRANCH   9  13
BRANCH  10  15
ATOM     15  C   UNL     1       3.561  -2.731  -0.493  0.00  0.00    +0.127 C 
BRANCH  15  16
ATOM     16  N   UNL     1       3.831  -2.446  -1.909  0.00  0.00    -0.295 NA
ATOM     17  C   UNL     1       3.941  -3.689  -2.684  0.00  0.00    +0.103 C 
ATOM     18  C   UNL     1       4.040  -3.351  -4.175  0.00  0.00    +0.120 C 
ATOM     19  N   UNL     1       5.146  -2.400  -4.365  0.00  0.00    -0.327 N 
ATOM     20  C   UNL     1       5.178  -1.193  -3.525  0.00  0.00    +0.120 C 
ATOM     21  C   UNL     1       5.034  -1.617  -2.059  0.00  0.00    +0.103 C 
BRANCH  19  22
ATOM     22  C   UNL     1       6.139  -2.636  -5.318  0.00  0.00    +0.030 A 
ATOM     23  C   UNL     1       6.042  -3.731  -6.168  0.00  0.00    +0.023 A 
ATOM     24  C   UNL     1       7.025  -3.961  -7.110  0.00  0.00    +0.002 A 
ATOM     25  C   UNL     1       8.106  -3.104  -7.207  0.00  0.00    +0.000 A 
ATOM     26  C   UNL     1       8.207  -2.014  -6.362  0.00  0.00    +0.002 A 
ATOM     27  C   UNL     1       7.224  -1.774  -5.422  0.00  0.00    +0.023 A 
ENDBRANCH  19  22
ENDBRANCH  15  16
ENDBRANCH  10  15
BRANCH   3  28
ATOM     28  O   UNL     1      -2.187  -0.068   0.379  0.00  0.00    -0.448 OA
BRANCH  28  29
ATOM     29  C   UNL     1      -2.850  -0.114   1.564  0.00  0.00    +0.143 A 
ATOM     30  C   UNL     1      -2.383  -0.921   2.591  0.00  0.00    +0.047 A 
ATOM     31  C   UNL     1      -3.059  -0.966   3.795  0.00  0.00    +0.004 A 
ATOM     32  C   UNL     1      -4.200  -0.207   3.978  0.00  0.00    +0.001 A 
ATOM     33  C   UNL     1      -4.668   0.599   2.956  0.00  0.00    +0.019 A 
ATOM     34  C   UNL     1      -3.993   0.652   1.752  0.00  0.00    +0.060 A 
ATOM     35 BR   UNL     1      -4.628   1.760   0.357  0.00  0.00    -0.046 Br
ENDBRANCH  28  29
ENDBRANCH   3  28
TORSDOF 6
