REMARK  Name = ZINC44875718
REMARK  12 active torsions:
REMARK  status: ('A' for Active; 'I' for Inactive)
REMARK    1  A    between atoms: C_1  and  C_2
REMARK    2  A    between atoms: C_5  and  N_9
REMARK    3  A    between atoms: C_6  and  C_8
REMARK    4  A    between atoms: N_9  and  C_10
REMARK    5  A    between atoms: N_9  and  S_29
REMARK    6  A    between atoms: C_10  and  C_11
REMARK    7  A    between atoms: N_13  and  C_14
REMARK    8  A    between atoms: C_14  and  C_15
REMARK    9  A    between atoms: C_18  and  C_21
REMARK   10  A    between atoms: C_21  and  N_22
REMARK   11  A    between atoms: C_25  and  C_28
REMARK   12  A    between atoms: S_29  and  C_32
REMARK                            x       y       z     vdW  Elec       q    Type
REMARK                         _______ _______ _______ _____ _____    ______ ____
ROOT
ATOM      1  C   UNL     1       1.951  -5.484   0.568  0.00  0.00    +0.232 C 
ATOM      2  O   UNL     1       1.484  -5.195   1.649  0.00  0.00    -0.274 OA
ATOM      3  N   UNL     1       3.084  -6.210   0.494  0.00  0.00    -0.310 N 
ATOM      4  H   UNL     1       3.458  -6.440  -0.370  0.00  0.00    +0.149 HD
ENDROOT
BRANCH   1   5
ATOM      5  C   UNL     1       1.264  -5.031  -0.695  0.00  0.00    +0.227 C 
BRANCH   5   6
ATOM      6  N   UNL     1       0.141  -4.155  -0.352  0.00  0.00    -0.194 N 
BRANCH   6  11
ATOM      7  C   UNL     1       1.033   1.369   0.570  0.00  0.00    +0.044 C 
ATOM      8  C   UNL     1       0.796  -0.099   0.325  0.00  0.00    -0.050 A 
ATOM      9  C   UNL     1       0.932  -1.003   1.363  0.00  0.00    +0.005 A 
ATOM     10  C   UNL     1       0.715  -2.348   1.142  0.00  0.00    +0.025 A 
ATOM     11  C   UNL     1       0.360  -2.794  -0.125  0.00  0.00    +0.055 A 
ATOM     12  C   UNL     1       0.225  -1.884  -1.165  0.00  0.00    -0.028 A 
ATOM     13  C   UNL     1       0.438  -0.539  -0.936  0.00  0.00    +0.008 A 
ATOM     14  C   UNL     1      -0.160  -2.363  -2.541  0.00  0.00    +0.046 C 
ENDBRANCH   6  11
BRANCH   6  15
ATOM     15  S   UNL     1      -1.389  -4.778  -0.234  0.00  0.00    +0.075 S 
ATOM     16  O   UNL     1      -1.247  -6.129   0.182  0.00  0.00    -0.150 OA
ATOM     17  O   UNL     1      -2.157  -3.832   0.498  0.00  0.00    -0.150 OA
BRANCH  15  18
ATOM     18  C   UNL     1      -2.061  -4.820  -1.862  0.00  0.00    +0.109 A 
ATOM     19  C   UNL     1      -2.878  -3.795  -2.300  0.00  0.00    +0.029 A 
ATOM     20  C   UNL     1      -3.406  -3.829  -3.577  0.00  0.00    +0.002 A 
ATOM     21  C   UNL     1      -3.116  -4.887  -4.417  0.00  0.00    +0.000 A 
ATOM     22  C   UNL     1      -2.298  -5.912  -3.980  0.00  0.00    +0.002 A 
ATOM     23  C   UNL     1      -1.767  -5.877  -2.704  0.00  0.00    +0.029 A 
ENDBRANCH  15  18
ENDBRANCH   6  15
ENDBRANCH   5   6
ENDBRANCH   1   5
BRANCH   3  24
ATOM     24  C   UNL     1       3.752  -6.650   1.722  0.00  0.00    +0.139 C 
BRANCH  24  25
ATOM     25  C   UNL     1       4.987  -7.438   1.367  0.00  0.00    -0.030 A 
ATOM     26  C   UNL     1       4.906  -8.806   1.188  0.00  0.00    +0.005 A 
ATOM     27  C   UNL     1       6.038  -9.529   0.862  0.00  0.00    +0.002 A 
ATOM     28  C   UNL     1       7.252  -8.883   0.714  0.00  0.00    -0.064 A 
ATOM     29  C   UNL     1       7.332  -7.515   0.892  0.00  0.00    +0.002 A 
ATOM     30  C   UNL     1       6.199  -6.791   1.213  0.00  0.00    +0.005 A 
BRANCH  28  31
ATOM     31  C   UNL     1       8.486  -9.671   0.360  0.00  0.00    -0.043 C 
BRANCH  31  32
ATOM     32  N   UNL     1       8.623  -9.738  -1.101  0.00  0.00    +0.382 N 
ATOM     33  C   UNL     1       8.848  -8.388  -1.632  0.00  0.00    -0.078 C 
ATOM     34  C   UNL     1       8.909  -8.440  -3.160  0.00  0.00    -0.016 C 
ATOM     35  C   UNL     1      10.059  -9.357  -3.588  0.00  0.00    -0.018 C 
ATOM     36  C   UNL     1       9.852 -10.742  -2.967  0.00  0.00    -0.016 C 
ATOM     37  C   UNL     1       9.756 -10.604  -1.446  0.00  0.00    -0.078 C 
ATOM     38  C   UNL     1      10.077  -9.477  -5.113  0.00  0.00    +0.007 C 
ATOM     39  H   UNL     1       7.777 -10.117  -1.500  0.00  0.00    -0.081 HD
ENDBRANCH  31  32
ENDBRANCH  28  31
ENDBRANCH  24  25
ENDBRANCH   3  24
TORSDOF 9
