REMARK  Name = ZINC11817183
REMARK  10 active torsions:
REMARK  status: ('A' for Active; 'I' for Inactive)
REMARK    1  A    between atoms: C_1  and  N_2
REMARK    2  A    between atoms: C_6  and  C_7
REMARK    3  A    between atoms: C_7  and  N_8
REMARK    4  A    between atoms: N_8  and  C_9
REMARK    5  A    between atoms: C_10  and  C_12
REMARK    6  A    between atoms: C_12  and  C_13
REMARK    7  A    between atoms: C_20  and  C_21
REMARK    8  A    between atoms: C_20  and  N_64
REMARK    9  A    between atoms: C_21  and  C_22
REMARK   10  A    between atoms: C_21  and  C_28
REMARK                            x       y       z     vdW  Elec       q    Type
REMARK                         _______ _______ _______ _____ _____    ______ ____
ROOT
ATOM      1  C   UNL     1      -5.491   2.203  -0.296  0.00  0.00    +0.028 C 
ATOM      2  C   UNL     1      -6.415   1.677  -1.357  0.00  0.00    +0.200 C 
ATOM      3  O   UNL     1      -5.994   1.560  -2.489  0.00  0.00    -0.278 OA
ATOM      4  N   UNL     1      -7.683   1.331  -1.107  0.00  0.00    -0.318 N 
ATOM      5  C   UNL     1      -8.275   1.400   0.226  0.00  0.00    +0.085 C 
ATOM      6  C   UNL     1      -7.435   2.307   1.127  0.00  0.00    -0.059 C 
ATOM      7  H   UNL     1      -8.233   1.022  -1.843  0.00  0.00    +0.149 HD
ATOM      8  N   UNL     1      -6.029   1.866   1.036  0.00  0.00    +0.389 N 
ATOM      9  H   UNL     1      -5.986   0.849   1.167  0.00  0.00    -0.081 HD
ENDROOT
BRANCH   1  10
ATOM     10  C   UNL     1      -4.114   1.555  -0.455  0.00  0.00    +0.090 C 
BRANCH  10  13
ATOM     11  N   UNL     1      -2.320   1.488  -2.157  0.00  0.00    -0.297 N 
ATOM     12  C   UNL     1      -1.733   0.361  -1.429  0.00  0.00    +0.132 C 
ATOM     13  C   UNL     1      -3.479   2.033  -1.736  0.00  0.00    +0.215 C 
ATOM     14  O   UNL     1      -4.011   2.906  -2.387  0.00  0.00    -0.276 OA
BRANCH  11  15
ATOM     15  C   UNL     1      -1.648   2.024  -3.343  0.00  0.00    +0.181 C 
BRANCH  15  21
ATOM     16  C   UNL     1      -0.397  -0.414  -4.788  0.00  0.00    +0.150 C 
ATOM     17  N   UNL     1      -1.623   0.278  -5.192  0.00  0.00    -0.336 N 
ATOM     18  C   UNL     1      -2.416  -0.033  -6.263  0.00  0.00    +0.106 A 
ATOM     19  C   UNL     1      -3.432   0.851  -6.265  0.00  0.00    +0.130 A 
ATOM     20  N   UNL     1      -3.267   1.675  -5.220  0.00  0.00    -0.239 NA
ATOM     21  C   UNL     1      -2.183   1.341  -4.575  0.00  0.00    +0.127 A 
ENDBRANCH  15  21
ENDBRANCH  11  15
ENDBRANCH  10  13
ENDBRANCH   1  10
BRANCH   8  22
ATOM     22  C   UNL     1      -5.221   2.523   2.089  0.00  0.00    -0.065 C 
BRANCH  22  23
ATOM     23  C   UNL     1      -5.556   1.886   3.439  0.00  0.00    +0.032 C 
BRANCH  23  24
ATOM     24  C   UNL     1      -5.135   0.439   3.430  0.00  0.00    -0.042 A 
ATOM     25  C   UNL     1      -6.037  -0.545   3.790  0.00  0.00    +0.004 A 
ATOM     26  C   UNL     1      -5.653  -1.873   3.777  0.00  0.00    +0.000 A 
ATOM     27  C   UNL     1      -4.364  -2.216   3.416  0.00  0.00    +0.000 A 
ATOM     28  C   UNL     1      -3.460  -1.231   3.061  0.00  0.00    +0.000 A 
ATOM     29  C   UNL     1      -3.846   0.096   3.068  0.00  0.00    +0.004 A 
ENDBRANCH  23  24
BRANCH  23  30
ATOM     30  C   UNL     1      -4.822   2.616   4.534  0.00  0.00    -0.042 A 
ATOM     31  C   UNL     1      -3.454   2.797   4.449  0.00  0.00    +0.004 A 
ATOM     32  C   UNL     1      -2.782   3.471   5.451  0.00  0.00    +0.000 A 
ATOM     33  C   UNL     1      -3.476   3.955   6.544  0.00  0.00    +0.000 A 
ATOM     34  C   UNL     1      -4.843   3.770   6.632  0.00  0.00    +0.000 A 
ATOM     35  C   UNL     1      -5.516   3.100   5.628  0.00  0.00    +0.004 A 
ENDBRANCH  23  30
ENDBRANCH  22  23
ENDBRANCH   8  22
TORSDOF 8
