REMARK  Name = ZINC05640558
REMARK  8 active torsions:
REMARK  status: ('A' for Active; 'I' for Inactive)
REMARK    1  A    between atoms: C_1  and  C_2
REMARK    2  A    between atoms: C_5  and  C_8
REMARK    3  A    between atoms: C_11  and  S_20
REMARK    4  A    between atoms: N_12  and  C_13
REMARK    5  A    between atoms: C_16  and  C_19
REMARK    6  A    between atoms: S_20  and  C_21
REMARK    7  A    between atoms: C_21  and  C_22
REMARK    8  A    between atoms: C_28  and  C_31
REMARK                            x       y       z     vdW  Elec       q    Type
REMARK                         _______ _______ _______ _____ _____    ______ ____
ROOT
ATOM      1  C   UNL     1       7.227  -1.551   5.559  0.00  0.00    +0.169 A 
ATOM      2  N   UNL     1       6.087  -1.032   5.955  0.00  0.00    -0.128 NA
ATOM      3  N   UNL     1       5.340  -0.786   4.939  0.00  0.00    -0.122 NA
ATOM      4  C   UNL     1       5.952  -1.141   3.830  0.00  0.00    +0.197 A 
ATOM      5  N   UNL     1       7.176  -1.638   4.185  0.00  0.00    -0.270 N 
ENDROOT
BRANCH   1  10
ATOM      6  C   UNL     1      11.606  -3.158   8.929  0.00  0.00    +0.044 C 
ATOM      7  C   UNL     1      10.459  -2.737   8.046  0.00  0.00    -0.050 A 
ATOM      8  C   UNL     1      10.669  -2.534   6.694  0.00  0.00    +0.004 A 
ATOM      9  C   UNL     1       9.624  -2.149   5.880  0.00  0.00    +0.012 A 
ATOM     10  C   UNL     1       8.352  -1.964   6.425  0.00  0.00    +0.020 A 
ATOM     11  C   UNL     1       8.148  -2.166   7.791  0.00  0.00    +0.012 A 
ATOM     12  C   UNL     1       9.201  -2.555   8.592  0.00  0.00    +0.004 A 
ENDBRANCH   1  10
BRANCH   5  13
ATOM     13  C   UNL     1       8.171  -2.130   3.329  0.00  0.00    +0.051 A 
ATOM     14  C   UNL     1       8.493  -3.481   3.342  0.00  0.00    +0.026 A 
ATOM     15  C   UNL     1       9.470  -3.964   2.494  0.00  0.00    +0.005 A 
ATOM     16  C   UNL     1      10.136  -3.103   1.641  0.00  0.00    -0.050 A 
ATOM     17  C   UNL     1       9.821  -1.756   1.630  0.00  0.00    +0.005 A 
ATOM     18  C   UNL     1       8.841  -1.268   2.472  0.00  0.00    +0.026 A 
ATOM     19  C   UNL     1      11.206  -3.633   0.722  0.00  0.00    +0.044 C 
ENDBRANCH   5  13
BRANCH   4  20
ATOM     20  S   UNL     1       5.316  -0.997   2.193  0.00  0.00    -0.076 S 
BRANCH  20  21
ATOM     21  C   UNL     1       3.694  -0.275   2.548  0.00  0.00    +0.173 C 
BRANCH  21  22
ATOM     22  C   UNL     1       2.948  -0.057   1.257  0.00  0.00    +0.226 C 
ATOM     23  O   UNL     1       3.462  -0.359   0.201  0.00  0.00    -0.275 OA
ATOM     24  N   UNL     1       1.710   0.475   1.276  0.00  0.00    -0.301 N 
ATOM     25  C   UNL     1       1.074   0.846   2.548  0.00  0.00    +0.108 C 
ATOM     26  C   UNL     1      -0.296   0.165   2.631  0.00  0.00    +0.019 C 
ATOM     27  C   UNL     1      -1.116   0.524   1.390  0.00  0.00    +0.006 C 
ATOM     28  C   UNL     1      -0.399   0.014   0.137  0.00  0.00    +0.003 C 
ATOM     29  C   UNL     1       0.970   0.694   0.026  0.00  0.00    +0.111 C 
ATOM     30  C   UNL     1      -1.235   0.344  -1.101  0.00  0.00    +0.009 C 
ENDBRANCH  21  22
ENDBRANCH  20  21
ENDBRANCH   4  20
TORSDOF 5
