REMARK  Name = ZINC13638254
REMARK  12 active torsions:
REMARK  status: ('A' for Active; 'I' for Inactive)
REMARK    1  A    between atoms: C_1  and  C_2
REMARK    2  A    between atoms: C_2  and  C_3
REMARK    3  A    between atoms: C_2  and  C_4
REMARK    4  A    between atoms: C_2  and  C_5
REMARK    5  A    between atoms: C_8  and  C_11
REMARK    6  A    between atoms: C_11  and  N_12
REMARK    7  A    between atoms: N_12  and  C_13
REMARK    8  A    between atoms: N_12  and  C_14
REMARK    9  A    between atoms: C_14  and  C_15
REMARK   10  A    between atoms: N_17  and  C_18
REMARK   11  A    between atoms: C_22  and  S_24
REMARK   12  A    between atoms: S_24  and  N_27
REMARK                            x       y       z     vdW  Elec       q    Type
REMARK                         _______ _______ _______ _____ _____    ______ ____
ROOT
ATOM      1  C   UNL     1       2.804  -0.484  -8.214  0.00  0.00    +0.201 C 
ATOM      2  O   UNL     1       2.159   0.524  -8.015  0.00  0.00    -0.278 OA
ATOM      3  N   UNL     1       3.246  -0.766  -9.456  0.00  0.00    -0.287 N 
ATOM      4  H   UNL     1       3.818  -1.535  -9.604  0.00  0.00    +0.155 HD
ENDROOT
BRANCH   3   5
ATOM      5  C   UNL     1       2.881   0.052 -10.531  0.00  0.00    +0.035 A 
ATOM      6  C   UNL     1       2.657  -0.505 -11.784  0.00  0.00    +0.023 A 
ATOM      7  C   UNL     1       2.297   0.305 -12.843  0.00  0.00    +0.004 A 
ATOM      8  C   UNL     1       2.159   1.668 -12.658  0.00  0.00    +0.029 A 
ATOM      9  C   UNL     1       2.382   2.225 -11.412  0.00  0.00    +0.114 A 
ATOM     10  C   UNL     1       2.736   1.420 -10.347  0.00  0.00    +0.052 A 
BRANCH   9  11
ATOM     11  S   UNL     1       2.206   3.963 -11.181  0.00  0.00    +0.100 S 
ATOM     12  O   UNL     1       2.999   4.306 -10.053  0.00  0.00    -0.146 OA
ATOM     13  O   UNL     1       2.393   4.564 -12.455  0.00  0.00    -0.146 OA
BRANCH  11  14
ATOM     14  N   UNL     1       0.630   4.243 -10.753  0.00  0.00    -0.118 NA
ATOM     15  C   UNL     1       0.228   5.450 -10.522  0.00  0.00    +0.117 C 
ATOM     16  N   UNL     1       1.104   6.541 -10.632  0.00  0.00    -0.331 N 
ATOM     17  C   UNL     1       0.869   7.463 -11.705  0.00  0.00    +0.102 C 
ATOM     18  C   UNL     1      -0.093   8.622 -11.394  0.00  0.00    +0.019 C 
ATOM     19  C   UNL     1      -1.305   8.114 -10.573  0.00  0.00    +0.002 C 
ATOM     20  C   UNL     1      -1.809   6.776 -11.038  0.00  0.00    +0.008 C 
ATOM     21  C   UNL     1      -1.143   5.723 -10.147  0.00  0.00    +0.073 C 
ATOM     22  H   UNL     1       1.837   6.666 -10.009  0.00  0.00    +0.147 HD
ENDBRANCH  11  14
ENDBRANCH   9  11
ENDBRANCH   3   5
BRANCH   1  23
ATOM     23  C   UNL     1       3.110  -1.421  -7.075  0.00  0.00    +0.019 C 
BRANCH  23  24
ATOM     24  N   UNL     1       2.522  -0.894  -5.836  0.00  0.00    +0.386 N 
ATOM     25  C   UNL     1       3.177   0.373  -5.484  0.00  0.00    -0.095 C 
ATOM     26  H   UNL     1       1.535  -0.736  -5.973  0.00  0.00    -0.081 HD
BRANCH  24  27
ATOM     27  C   UNL     1       2.717  -1.864  -4.750  0.00  0.00    -0.043 C 
BRANCH  27  31
ATOM     28  C   UNL     1       0.710  -0.494  -1.237  0.00  0.00    -0.042 A 
ATOM     29  C   UNL     1       0.043  -1.295  -2.146  0.00  0.00    +0.004 A 
ATOM     30  C   UNL     1       0.693  -1.738  -3.283  0.00  0.00    +0.002 A 
ATOM     31  C   UNL     1       2.009  -1.380  -3.511  0.00  0.00    -0.064 A 
ATOM     32  C   UNL     1       2.675  -0.578  -2.603  0.00  0.00    +0.002 A 
ATOM     33  C   UNL     1       2.023  -0.132  -1.468  0.00  0.00    +0.004 A 
BRANCH  28  35
ATOM     34  C   UNL     1      -0.031   1.519   0.008  0.00  0.00    +0.015 C 
ATOM     35  C   UNL     1       0.001  -0.011   0.002  0.00  0.00    -0.013 C 
ATOM     36  C   UNL     1       0.746  -0.510   1.242  0.00  0.00    +0.015 C 
ATOM     37  C   UNL     1      -1.430  -0.551   0.015  0.00  0.00    +0.015 C 
ENDBRANCH  28  35
ENDBRANCH  27  31
ENDBRANCH  24  27
ENDBRANCH  23  24
ENDBRANCH   1  23
TORSDOF 8
