REMARK  Name = ZINC06134326
REMARK  12 active torsions:
REMARK  status: ('A' for Active; 'I' for Inactive)
REMARK    1  A    between atoms: C_1  and  C_2
REMARK    2  A    between atoms: C_2  and  C_3
REMARK    3  A    between atoms: C_2  and  C_4
REMARK    4  A    between atoms: C_4  and  C_5
REMARK    5  A    between atoms: C_5  and  N_6
REMARK    6  A    between atoms: C_7  and  C_9
REMARK    7  A    between atoms: C_9  and  C_11
REMARK    8  A    between atoms: C_9  and  N_16
REMARK    9  A    between atoms: N_16  and  C_17
REMARK   10  A    between atoms: C_26  and  C_28
REMARK   11  A    between atoms: C_29  and  N_36
REMARK   12  A    between atoms: C_30  and  C_33
REMARK                            x       y       z     vdW  Elec       q    Type
REMARK                         _______ _______ _______ _____ _____    ______ ____
ROOT
ATOM      1  N   UNL     1       3.909   2.383  -0.262  0.00  0.00    -0.250 N 
ATOM      2  C   UNL     1       4.170   3.572   0.316  0.00  0.00    +0.262 C 
ATOM      3  O   UNL     1       5.268   3.787   0.796  0.00  0.00    -0.269 OA
ENDROOT
BRANCH   1   4
ATOM      4  C   UNL     1       2.672   2.161  -0.880  0.00  0.00    +0.041 A 
ATOM      5  C   UNL     1       2.509   2.444  -2.229  0.00  0.00    +0.027 A 
ATOM      6  C   UNL     1       1.289   2.227  -2.840  0.00  0.00    +0.051 A 
ATOM      7  C   UNL     1       0.225   1.725  -2.108  0.00  0.00    +0.166 A 
ATOM      8  C   UNL     1       0.385   1.440  -0.754  0.00  0.00    +0.168 A 
ATOM      9  C   UNL     1       1.608   1.659  -0.143  0.00  0.00    +0.073 A 
ATOM     10  O   UNL     1      -0.799   0.969  -0.264  0.00  0.00    -0.453 OA
ATOM     11  C   UNL     1      -1.794   1.344  -1.232  0.00  0.00    +0.466 C 
ATOM     12  O   UNL     1      -1.059   1.427  -2.467  0.00  0.00    -0.453 OA
ENDBRANCH   1   4
BRANCH   2  13
ATOM     13  C   UNL     1       3.134   4.604   0.367  0.00  0.00    +0.116 A 
ATOM     14  C   UNL     1       3.223   5.927   0.804  0.00  0.00    +0.076 A 
ATOM     15  C   UNL     1       2.011   6.609   0.695  0.00  0.00    +0.155 A 
ATOM     16  N   UNL     1       0.957   5.976   0.229  0.00  0.00    -0.203 NA
ATOM     17  S   UNL     1       1.419   4.507  -0.104  0.00  0.00    +0.019 S 
BRANCH  15  18
ATOM     18  C   UNL     1       1.911   8.022   1.104  0.00  0.00    +0.262 C 
ATOM     19  O   UNL     1       2.890   8.601   1.535  0.00  0.00    -0.269 OA
ATOM     20  N   UNL     1       0.735   8.672   1.001  0.00  0.00    -0.324 N 
ATOM     21  H   UNL     1      -0.046   8.210   0.657  0.00  0.00    +0.145 HD
ATOM     22  H   UNL     1       0.669   9.601   1.270  0.00  0.00    +0.145 HD
ENDBRANCH  15  18
BRANCH  14  23
ATOM     23  N   UNL     1       4.390   6.502   1.290  0.00  0.00    -0.355 N 
ATOM     24  H   UNL     1       5.205   5.978   1.339  0.00  0.00    +0.142 HD
ATOM     25  H   UNL     1       4.391   7.428   1.579  0.00  0.00    +0.142 HD
ENDBRANCH  14  23
ENDBRANCH   2  13
BRANCH   1  26
ATOM     26  C   UNL     1       4.919   1.322  -0.244  0.00  0.00    +0.204 C 
BRANCH  26  27
ATOM     27  C   UNL     1       5.166   0.840  -1.650  0.00  0.00    +0.019 A 
ATOM     28  C   UNL     1       6.327   0.808  -2.350  0.00  0.00    +0.013 A 
ATOM     29  C   UNL     1       6.317   0.314  -3.641  0.00  0.00    +0.008 A 
ATOM     30  C   UNL     1       5.146  -0.114  -4.173  0.00  0.00    +0.045 A 
ATOM     31  S   UNL     1       4.005   0.170  -2.829  0.00  0.00    -0.099 S 
ENDBRANCH  26  27
BRANCH  26  33
ATOM     32  N   UNL     1       5.173  -0.943   0.719  0.00  0.00    -0.313 N 
ATOM     33  C   UNL     1       4.429   0.175   0.601  0.00  0.00    +0.239 C 
ATOM     34  O   UNL     1       3.364   0.258   1.176  0.00  0.00    -0.273 OA
ATOM     35  H   UNL     1       6.024  -1.008   0.259  0.00  0.00    +0.149 HD
BRANCH  32  36
ATOM     36  C   UNL     1       4.696  -2.058   1.540  0.00  0.00    +0.104 C 
BRANCH  36  37
ATOM     37  C   UNL     1       5.721  -3.193   1.504  0.00  0.00    +0.022 C 
BRANCH  37  39
ATOM     38  C   UNL     1       6.185  -5.539   2.227  0.00  0.00    +0.007 C 
ATOM     39  C   UNL     1       5.222  -4.357   2.362  0.00  0.00    -0.016 C 
ATOM     40  C   UNL     1       5.155  -3.919   3.827  0.00  0.00    +0.007 C 
ENDBRANCH  37  39
ENDBRANCH  36  37
ENDBRANCH  32  36
ENDBRANCH  26  33
ENDBRANCH   1  26
TORSDOF 10
