REMARK  Name = ZINC17597764
REMARK  9 active torsions:
REMARK  status: ('A' for Active; 'I' for Inactive)
REMARK    1  A    between atoms: C_1  and  C_2
REMARK    2  A    between atoms: C_3  and  C_12
REMARK    3  A    between atoms: C_12  and  C_14
REMARK    4  A    between atoms: C_14  and  C_16
REMARK    5  A    between atoms: C_14  and  O_17
REMARK    6  A    between atoms: O_17  and  C_18
REMARK    7  A    between atoms: C_18  and  C_20
REMARK    8  A    between atoms: C_23  and  C_26
REMARK    9  A    between atoms: C_26  and  N_27
REMARK                            x       y       z     vdW  Elec       q    Type
REMARK                         _______ _______ _______ _____ _____    ______ ____
ROOT
ATOM      1  C   UNL     1      -1.436  -0.680   0.191  0.00  0.00    +0.340 C 
ATOM      2  O   UNL     1      -2.533  -0.165   0.100  0.00  0.00    -0.245 OA
ENDROOT
BRANCH   1   3
ATOM      3  C   UNL     1      -0.233   0.165   0.332  0.00  0.00    +0.059 A 
ATOM      4  C   UNL     1      -0.352   1.556   0.359  0.00  0.00    +0.015 A 
ATOM      5  C   UNL     1       0.776   2.339   0.491  0.00  0.00    +0.006 A 
ATOM      6  C   UNL     1       2.024   1.749   0.596  0.00  0.00    -0.030 A 
ATOM      7  C   UNL     1       2.149   0.371   0.570  0.00  0.00    +0.006 A 
ATOM      8  C   UNL     1       1.029  -0.424   0.438  0.00  0.00    +0.015 A 
BRANCH   6   9
ATOM      9  C   UNL     1       3.251   2.611   0.741  0.00  0.00    +0.153 C 
BRANCH   9  10
ATOM     10  N   UNL     1       3.784   2.929  -0.587  0.00  0.00    -0.220 N 
ATOM     11  C   UNL     1       4.700   2.182  -1.234  0.00  0.00    +0.240 C 
ATOM     12  O   UNL     1       5.220   1.159  -0.842  0.00  0.00    -0.273 OA
ATOM     13  C   UNL     1       4.944   2.886  -2.554  0.00  0.00    +0.202 C 
ATOM     14  N   UNL     1       4.059   4.062  -2.488  0.00  0.00    -0.290 N 
ATOM     15  C   UNL     1       3.424   4.000  -1.304  0.00  0.00    +0.309 C 
ATOM     16  O   UNL     1       2.614   4.824  -0.927  0.00  0.00    -0.252 OA
ATOM     17  H   UNL     1       3.955   4.748  -3.166  0.00  0.00    +0.151 HD
ENDBRANCH   9  10
ENDBRANCH   6   9
ENDBRANCH   1   3
BRANCH   1  18
ATOM     18  O   UNL     1      -1.318  -2.022   0.165  0.00  0.00    -0.450 OA
BRANCH  18  19
ATOM     19  C   UNL     1      -2.543  -2.789   0.025  0.00  0.00    +0.244 C 
ATOM     20  C   UNL     1      -2.834  -3.018  -1.460  0.00  0.00    +0.061 C 
BRANCH  19  21
ATOM     21  C   UNL     1      -2.385  -4.118   0.717  0.00  0.00    +0.205 C 
ATOM     22  O   UNL     1      -1.277  -4.535   0.984  0.00  0.00    -0.288 OA
BRANCH  21  25
ATOM     23  C   UNL     1      -4.078  -3.748   3.287  0.00  0.00    +0.064 C 
ATOM     24  C   UNL     1      -4.309  -4.749   2.185  0.00  0.00    +0.025 A 
ATOM     25  C   UNL     1      -3.530  -4.881   1.055  0.00  0.00    +0.049 A 
ATOM     26  C   UNL     1      -4.133  -5.973   0.265  0.00  0.00    +0.011 A 
ATOM     27  C   UNL     1      -3.815  -6.579  -0.947  0.00  0.00    +0.011 A 
ATOM     28  C   UNL     1      -4.598  -7.610  -1.420  0.00  0.00    +0.001 A 
ATOM     29  C   UNL     1      -5.694  -8.047  -0.691  0.00  0.00    +0.002 A 
ATOM     30  C   UNL     1      -6.016  -7.460   0.513  0.00  0.00    +0.026 A 
ATOM     31  C   UNL     1      -5.238  -6.418   1.008  0.00  0.00    +0.047 A 
ATOM     32  N   UNL     1      -5.308  -5.651   2.153  0.00  0.00    -0.358 N 
ATOM     33  H   UNL     1      -5.985  -5.749   2.842  0.00  0.00    +0.166 HD
ENDBRANCH  21  25
ENDBRANCH  19  21
ENDBRANCH  18  19
ENDBRANCH   1  18
TORSDOF 7
