REMARK  Name = ZINC14184644
REMARK  8 active torsions:
REMARK  status: ('A' for Active; 'I' for Inactive)
REMARK    1  A    between atoms: C_3  and  C_6
REMARK    2  A    between atoms: C_6  and  C_8
REMARK    3  A    between atoms: C_6  and  N_62
REMARK    4  A    between atoms: C_8  and  N_9
REMARK    5  A    between atoms: C_10  and  C_12
REMARK    6  A    between atoms: C_12  and  C_13
REMARK    7  A    between atoms: C_16  and  S_18
REMARK    8  A    between atoms: S_18  and  N_21
REMARK                            x       y       z     vdW  Elec       q    Type
REMARK                         _______ _______ _______ _____ _____    ______ ____
ROOT
ATOM      1  N   UNL     1       5.600   1.943   1.855  0.00  0.00    -0.316 N 
ATOM      2  C   UNL     1       4.500   1.171   1.759  0.00  0.00    +0.218 C 
ATOM      3  O   UNL     1       3.984   0.722   2.761  0.00  0.00    -0.275 OA
ATOM      4  H   UNL     1       6.012   2.302   1.054  0.00  0.00    +0.149 HD
ENDROOT
BRANCH   1   5
ATOM      5  C   UNL     1       6.174   2.240   3.170  0.00  0.00    +0.096 C 
BRANCH   5   6
ATOM      6  C   UNL     1       7.408   3.129   2.999  0.00  0.00    +0.016 C 
BRANCH   6  12
ATOM      7  C   UNL     1       8.722   1.144   2.560  0.00  0.00    -0.078 C 
ATOM      8  C   UNL     1       9.589   0.445   1.510  0.00  0.00    -0.019 C 
ATOM      9  C   UNL     1      10.847   1.281   1.256  0.00  0.00    -0.004 C 
ATOM     10  C   UNL     1      10.435   2.685   0.804  0.00  0.00    -0.019 C 
ATOM     11  C   UNL     1       9.543   3.318   1.874  0.00  0.00    -0.078 C 
ATOM     12  N   UNL     1       8.339   2.479   2.054  0.00  0.00    +0.387 N 
ATOM     13  H   UNL     1       7.871   2.370   1.147  0.00  0.00    -0.081 HD
ENDBRANCH   6  12
BRANCH   6  16
ATOM     14  C   UNL     1       8.794   4.220   6.235  0.00  0.00    +0.041 A 
ATOM     15  C   UNL     1       8.062   4.474   5.052  0.00  0.00    +0.043 A 
ATOM     16  C   UNL     1       8.069   3.334   4.338  0.00  0.00    +0.093 A 
ATOM     17  O   UNL     1       8.769   2.411   5.018  0.00  0.00    -0.469 OA
ATOM     18  C   UNL     1       9.211   2.943   6.169  0.00  0.00    +0.195 A 
ENDBRANCH   6  16
ENDBRANCH   5   6
ENDBRANCH   1   5
BRANCH   2  19
ATOM     19  C   UNL     1       3.909   0.865   0.407  0.00  0.00    +0.138 C 
BRANCH  19  20
ATOM     20  C   UNL     1       2.694  -0.010   0.575  0.00  0.00    +0.000 A 
ATOM     21  C   UNL     1       1.399   0.351   0.743  0.00  0.00    +0.013 A 
ATOM     22  C   UNL     1       0.440  -0.635   0.879  0.00  0.00    +0.036 A 
ATOM     23  C   UNL     1       0.824  -1.935   0.842  0.00  0.00    +0.143 A 
ATOM     24  S   UNL     1       2.588  -1.792   0.608  0.00  0.00    -0.073 S 
BRANCH  23  25
ATOM     25  S   UNL     1      -0.162  -3.388   0.987  0.00  0.00    +0.067 S 
ATOM     26  O   UNL     1       0.702  -4.421   1.439  0.00  0.00    -0.152 OA
ATOM     27  O   UNL     1      -1.336  -3.013   1.694  0.00  0.00    -0.152 OA
BRANCH  25  28
ATOM     28  N   UNL     1      -0.643  -3.808  -0.541  0.00  0.00    -0.176 NA
ATOM     29  C   UNL     1      -1.899  -3.287  -1.100  0.00  0.00    +0.109 C 
ATOM     30  C   UNL     1      -1.594  -2.626  -2.453  0.00  0.00    +0.017 C 
ATOM     31  C   UNL     1      -0.874  -3.632  -3.354  0.00  0.00    +0.003 C 
ATOM     32  C   UNL     1       0.452  -4.040  -2.709  0.00  0.00    +0.017 C 
ATOM     33  C   UNL     1       0.173  -4.713  -1.361  0.00  0.00    +0.109 C 
ENDBRANCH  25  28
ENDBRANCH  23  25
ENDBRANCH  19  20
ENDBRANCH   2  19
TORSDOF 8
