REMARK  Name = ZINC21343267
REMARK  12 active torsions:
REMARK  status: ('A' for Active; 'I' for Inactive)
REMARK    1  A    between atoms: C_1  and  C_2
REMARK    2  A    between atoms: C_4  and  C_32
REMARK    3  A    between atoms: C_6  and  C_31
REMARK    4  A    between atoms: C_7  and  C_8
REMARK    5  A    between atoms: C_8  and  C_10
REMARK    6  A    between atoms: C_10  and  C_11
REMARK    7  A    between atoms: C_11  and  O_30
REMARK    8  A    between atoms: N_18  and  C_21
REMARK    9  A    between atoms: C_21  and  C_22
REMARK   10  A    between atoms: C_32  and  C_33
REMARK   11  A    between atoms: C_32  and  C_34
REMARK   12  A    between atoms: C_32  and  C_35
REMARK                            x       y       z     vdW  Elec       q    Type
REMARK                         _______ _______ _______ _____ _____    ______ ____
ROOT
ATOM      1  C   UNL     1      -2.208   0.280   0.033  0.00  0.00    +0.176 C 
ATOM      2  C   UNL     1      -3.605   0.713  -0.346  0.00  0.00    +0.016 A 
ATOM      3  C   UNL     1      -4.438   1.703   0.124  0.00  0.00    +0.028 A 
ATOM      4  C   UNL     1      -5.696   1.869  -0.431  0.00  0.00    +0.041 A 
ATOM      5  C   UNL     1      -6.110   1.038  -1.457  0.00  0.00    +0.022 A 
ATOM      6  C   UNL     1      -5.276   0.045  -1.930  0.00  0.00    +0.025 A 
ATOM      7  C   UNL     1      -4.009  -0.128  -1.375  0.00  0.00    +0.043 A 
ATOM      8  N   UNL     1      -2.999  -1.043  -1.675  0.00  0.00    -0.264 N 
ATOM      9  C   UNL     1      -1.914  -0.875  -0.901  0.00  0.00    +0.257 C 
ATOM     10  O   UNL     1      -0.892  -1.526  -0.942  0.00  0.00    -0.272 OA
ATOM     11 CL   UNL     1      -6.750   3.116   0.158  0.00  0.00    -0.084 Cl
ENDROOT
BRANCH   1  12
ATOM     12  O   UNL     1      -2.169  -0.152   1.395  0.00  0.00    -0.374 OA
ATOM     13  H   UNL     1      -2.825  -0.968   1.732  0.00  0.00    +0.211 HD
ENDBRANCH   1  12
BRANCH   1  14
ATOM     14  C   UNL     1      -1.213   1.419  -0.195  0.00  0.00    +0.129 C 
BRANCH  14  15
ATOM     15  C   UNL     1       0.186   0.926   0.072  0.00  0.00    +0.167 C 
ATOM     16  O   UNL     1       0.361  -0.189   0.517  0.00  0.00    -0.292 OA
BRANCH  15  23
ATOM     17  C   UNL     1       1.297   0.992  -2.599  0.00  0.00    +0.044 C 
ATOM     18  C   UNL     1       1.887   1.836  -1.499  0.00  0.00    -0.039 A 
ATOM     19  C   UNL     1       2.965   2.656  -1.759  0.00  0.00    +0.008 A 
ATOM     20  C   UNL     1       3.511   3.428  -0.748  0.00  0.00    -0.041 A 
ATOM     21  C   UNL     1       2.979   3.388   0.529  0.00  0.00    +0.008 A 
ATOM     22  C   UNL     1       1.898   2.577   0.803  0.00  0.00    -0.039 A 
ATOM     23  C   UNL     1       1.340   1.794  -0.212  0.00  0.00    +0.023 A 
ATOM     24  C   UNL     1       1.319   2.535   2.194  0.00  0.00    +0.044 C 
BRANCH  20  25
ATOM     25  C   UNL     1       4.692   4.318  -1.040  0.00  0.00    -0.013 C 
ATOM     26  C   UNL     1       5.872   3.905  -0.157  0.00  0.00    +0.015 C 
ATOM     27  C   UNL     1       5.084   4.179  -2.512  0.00  0.00    +0.015 C 
ATOM     28  C   UNL     1       4.320   5.772  -0.746  0.00  0.00    +0.015 C 
ENDBRANCH  20  25
ENDBRANCH  15  23
ENDBRANCH  14  15
ENDBRANCH   1  14
BRANCH   8  29
ATOM     29  C   UNL     1      -3.110  -2.070  -2.715  0.00  0.00    +0.148 C 
BRANCH  29  30
ATOM     30  C   UNL     1      -2.609  -1.515  -4.024  0.00  0.00    -0.030 A 
ATOM     31  C   UNL     1      -3.484  -0.883  -4.887  0.00  0.00    +0.006 A 
ATOM     32  C   UNL     1      -3.024  -0.370  -6.085  0.00  0.00    +0.020 A 
ATOM     33  C   UNL     1      -1.689  -0.498  -6.425  0.00  0.00    +0.041 A 
ATOM     34  C   UNL     1      -0.815  -1.136  -5.563  0.00  0.00    +0.020 A 
ATOM     35  C   UNL     1      -1.275  -1.644  -4.363  0.00  0.00    +0.006 A 
ATOM     36 CL   UNL     1      -1.112   0.140  -7.933  0.00  0.00    -0.084 Cl
ENDBRANCH  29  30
ENDBRANCH   8  29
TORSDOF 7
