REMARK  Name = ZINC02408047
REMARK  7 active torsions:
REMARK  status: ('A' for Active; 'I' for Inactive)
REMARK    1  A    between atoms: C_2  and  C_3
REMARK    2  A    between atoms: C_3  and  N_4
REMARK    3  A    between atoms: C_16  and  S_17
REMARK    4  A    between atoms: S_17  and  C_18
REMARK    5  A    between atoms: C_18  and  C_19
REMARK    6  A    between atoms: C_28  and  C_29
REMARK    7  A    between atoms: C_28  and  N_60
REMARK                            x       y       z     vdW  Elec       q    Type
REMARK                         _______ _______ _______ _____ _____    ______ ____
ROOT
ATOM      1  N   UNL     1       5.123   6.309  -7.202  0.00  0.00    -0.273 N 
ATOM      2  C   UNL     1       5.087   5.963  -5.905  0.00  0.00    +0.264 A 
ATOM      3  O   UNL     1       6.120   5.883  -5.264  0.00  0.00    -0.267 OA
ATOM      4  C   UNL     1       3.786   5.680  -5.256  0.00  0.00    +0.074 A 
ATOM      5  C   UNL     1       3.535   5.292  -3.869  0.00  0.00    -0.026 A 
ATOM      6  C   UNL     1       2.242   5.092  -3.535  0.00  0.00    -0.021 A 
ATOM      7  S   UNL     1       1.339   5.409  -5.022  0.00  0.00    -0.076 S 
ATOM      8  C   UNL     1       2.659   5.797  -6.063  0.00  0.00    +0.102 A 
ATOM      9  N   UNL     1       2.745   6.154  -7.390  0.00  0.00    -0.249 N 
ATOM     10  C   UNL     1       3.967   6.408  -7.957  0.00  0.00    +0.241 A 
ATOM     11  N   UNL     1       3.771   6.723  -9.216  0.00  0.00    -0.109 NA
ATOM     12  N   UNL     1       2.395   6.672  -9.468  0.00  0.00    -0.120 NA
ATOM     13  C   UNL     1       1.790   6.328  -8.358  0.00  0.00    +0.198 A 
ATOM     14  C   UNL     1       1.723   4.687  -2.190  0.00  0.00    -0.035 C 
ATOM     15  C   UNL     1       3.982   5.141  -1.440  0.00  0.00    -0.073 C 
ATOM     16  C   UNL     1       4.632   5.112  -2.826  0.00  0.00    +0.018 C 
ATOM     17  N   UNL     1       2.867   4.171  -1.400  0.00  0.00    +0.386 N 
ATOM     18  H   UNL     1       3.182   3.283  -1.808  0.00  0.00    -0.081 HD
ENDROOT
BRANCH   1  19
ATOM     19  C   UNL     1       6.416   6.587  -7.833  0.00  0.00    +0.155 C 
BRANCH  19  21
ATOM     20  C   UNL     1       7.872   8.420  -7.139  0.00  0.00    +0.005 C 
ATOM     21  C   UNL     1       6.741   8.051  -7.688  0.00  0.00    -0.013 C 
ENDBRANCH  19  21
ENDBRANCH   1  19
BRANCH  13  22
ATOM     22  S   UNL     1       0.053   6.124  -8.146  0.00  0.00    -0.081 S 
BRANCH  22  23
ATOM     23  C   UNL     1      -0.635   6.497  -9.782  0.00  0.00    +0.112 C 
BRANCH  23  24
ATOM     24  C   UNL     1      -2.135   6.357  -9.740  0.00  0.00    -0.037 A 
ATOM     25  C   UNL     1      -2.725   5.141 -10.030  0.00  0.00    +0.004 A 
ATOM     26  C   UNL     1      -4.101   5.012  -9.986  0.00  0.00    +0.000 A 
ATOM     27  C   UNL     1      -4.887   6.102  -9.662  0.00  0.00    +0.000 A 
ATOM     28  C   UNL     1      -4.297   7.320  -9.378  0.00  0.00    +0.000 A 
ATOM     29  C   UNL     1      -2.921   7.447  -9.416  0.00  0.00    +0.004 A 
ENDBRANCH  23  24
ENDBRANCH  22  23
ENDBRANCH  13  22
BRANCH  17  30
ATOM     30  C   UNL     1       2.451   3.937  -0.001  0.00  0.00    -0.043 C 
BRANCH  30  31
ATOM     31  C   UNL     1       1.156   3.165   0.008  0.00  0.00    -0.064 A 
ATOM     32  C   UNL     1       1.175   1.783   0.000  0.00  0.00    +0.002 A 
ATOM     33  C   UNL     1      -0.013   1.076   0.008  0.00  0.00    +0.000 A 
ATOM     34  C   UNL     1      -1.219   1.751   0.017  0.00  0.00    +0.000 A 
ATOM     35  C   UNL     1      -1.238   3.133   0.030  0.00  0.00    +0.000 A 
ATOM     36  C   UNL     1      -0.050   3.840   0.023  0.00  0.00    +0.002 A 
ENDBRANCH  30  31
ENDBRANCH  17  30
TORSDOF 7
