REMARK  Name = ZINC23635008
REMARK  7 active torsions:
REMARK  status: ('A' for Active; 'I' for Inactive)
REMARK    1  A    between atoms: C_1  and  C_2
REMARK    2  A    between atoms: C_5  and  N_8
REMARK    3  A    between atoms: C_9  and  C_29
REMARK    4  A    between atoms: C_12  and  S_13
REMARK    5  A    between atoms: S_13  and  C_14
REMARK    6  A    between atoms: C_14  and  C_16
REMARK    7  A    between atoms: C_14  and  C_17
REMARK                            x       y       z     vdW  Elec       q    Type
REMARK                         _______ _______ _______ _____ _____    ______ ____
ROOT
ATOM      1  N   UNL     1       3.711   1.614  -0.310  0.00  0.00    -0.270 N 
ATOM      2  C   UNL     1       2.478   1.075  -0.015  0.00  0.00    +0.169 A 
ATOM      3  N   UNL     1       2.669  -0.196   0.256  0.00  0.00    -0.128 NA
ATOM      4  N   UNL     1       3.916  -0.487   0.144  0.00  0.00    -0.122 NA
ATOM      5  C   UNL     1       4.601   0.582  -0.197  0.00  0.00    +0.197 A 
ENDROOT
BRANCH   1  10
ATOM      6  C   UNL     1       4.857   6.995  -1.705  0.00  0.00    +0.044 C 
ATOM      7  C   UNL     1       4.552   5.566  -1.335  0.00  0.00    -0.050 A 
ATOM      8  C   UNL     1       5.051   5.038  -0.158  0.00  0.00    +0.005 A 
ATOM      9  C   UNL     1       4.773   3.728   0.184  0.00  0.00    +0.026 A 
ATOM     10  C   UNL     1       3.994   2.943  -0.655  0.00  0.00    +0.051 A 
ATOM     11  C   UNL     1       3.500   3.475  -1.838  0.00  0.00    +0.026 A 
ATOM     12  C   UNL     1       3.776   4.787  -2.172  0.00  0.00    +0.005 A 
ENDBRANCH   1  10
BRANCH   2  13
ATOM     13  C   UNL     1       1.186   1.792   0.000  0.00  0.00    +0.020 A 
ATOM     14  C   UNL     1      -0.013   1.076   0.008  0.00  0.00    +0.013 A 
ATOM     15  C   UNL     1      -1.216   1.751   0.017  0.00  0.00    +0.021 A 
ATOM     16  C   UNL     1      -1.236   3.135   0.029  0.00  0.00    +0.041 A 
ATOM     17  C   UNL     1      -0.050   3.851   0.022  0.00  0.00    +0.021 A 
ATOM     18  C   UNL     1       1.159   3.187   0.008  0.00  0.00    +0.013 A 
ATOM     19 CL   UNL     1      -2.754   3.977   0.046  0.00  0.00    -0.084 Cl
ENDBRANCH   2  13
BRANCH   5  20
ATOM     20  S   UNL     1       6.342   0.668  -0.459  0.00  0.00    -0.075 S 
BRANCH  20  21
ATOM     21  C   UNL     1       6.795  -1.053  -0.127  0.00  0.00    +0.117 C 
ATOM     22  C   UNL     1       6.514  -1.381   1.341  0.00  0.00    +0.027 C 
BRANCH  21  23
ATOM     23  C   UNL     1       8.261  -1.250  -0.413  0.00  0.00    +0.124 A 
ATOM     24  N   UNL     1       9.082  -0.170  -0.346  0.00  0.00    -0.309 N 
ATOM     25  H   UNL     1       8.671   0.819  -0.093  0.00  0.00    +0.170 HD
ATOM     26  C   UNL     1      10.408  -0.295  -0.590  0.00  0.00    +0.259 A 
ATOM     27  O   UNL     1      11.155   0.663  -0.529  0.00  0.00    -0.267 OA
ATOM     28  C   UNL     1      10.908  -1.634  -0.936  0.00  0.00    +0.065 A 
ATOM     29  C   UNL     1      12.254  -1.869  -1.210  0.00  0.00    +0.015 A 
ATOM     30  C   UNL     1      12.669  -3.143  -1.530  0.00  0.00    +0.001 A 
ATOM     31  C   UNL     1      11.758  -4.191  -1.581  0.00  0.00    +0.002 A 
ATOM     32  C   UNL     1      10.424  -3.979  -1.313  0.00  0.00    +0.028 A 
ATOM     33  C   UNL     1       9.979  -2.696  -0.987  0.00  0.00    +0.078 A 
ATOM     34  N   UNL     1       8.674  -2.443  -0.717  0.00  0.00    -0.233 NA
ENDBRANCH  21  23
ENDBRANCH  20  21
ENDBRANCH   5  20
TORSDOF 5
