REMARK  Name = ZINC21224951
REMARK  7 active torsions:
REMARK  status: ('A' for Active; 'I' for Inactive)
REMARK    1  A    between atoms: C_1  and  C_2
REMARK    2  A    between atoms: C_2  and  C_3
REMARK    3  A    between atoms: C_3  and  O_4
REMARK    4  A    between atoms: O_4  and  C_5
REMARK    5  A    between atoms: C_8  and  C_11
REMARK    6  A    between atoms: C_16  and  C_26
REMARK    7  A    between atoms: C_30  and  N_32
REMARK                            x       y       z     vdW  Elec       q    Type
REMARK                         _______ _______ _______ _____ _____    ______ ____
ROOT
ATOM      1  C   UNL     1      -0.841   1.568  -1.261  0.00  0.00    +0.032 C 
ATOM      2  C   UNL     1      -2.293   1.111  -1.134  0.00  0.00    +0.059 C 
ATOM      3  C   UNL     1      -2.901   1.671   0.141  0.00  0.00    +0.017 C 
ATOM      4  C   UNL     1      -2.143   1.846   1.236  0.00  0.00    +0.036 C 
ATOM      5  C   UNL     1      -2.619   2.370   2.570  0.00  0.00    +0.136 C 
ATOM      6  N   UNL     1      -3.949   2.943   2.548  0.00  0.00    -0.331 N 
ATOM      7  C   UNL     1      -5.066   2.158   2.268  0.00  0.00    +0.049 A 
ATOM      8  C   UNL     1      -6.049   1.931   3.218  0.00  0.00    +0.025 A 
ATOM      9  C   UNL     1      -7.117   1.108   2.908  0.00  0.00    +0.002 A 
ATOM     10  C   UNL     1      -7.205   0.512   1.663  0.00  0.00    +0.002 A 
ATOM     11  C   UNL     1      -6.233   0.751   0.706  0.00  0.00    +0.025 A 
ATOM     12  C   UNL     1      -5.176   1.591   1.007  0.00  0.00    +0.052 A 
ATOM     13  N   UNL     1      -4.226   1.957   0.059  0.00  0.00    -0.316 N 
ATOM     14  C   UNL     1      -0.757   1.543   1.203  0.00  0.00    +0.163 C 
ATOM     15  O   UNL     1      -0.097   1.692   2.212  0.00  0.00    -0.292 OA
ATOM     16  C   UNL     1      -0.079   1.045  -0.037  0.00  0.00    +0.088 C 
ATOM     17  H   UNL     1      -4.089   4.014   2.755  0.00  0.00    +0.147 HD
ATOM     18  H   UNL     1      -4.615   2.517  -0.804  0.00  0.00    +0.152 HD
ENDROOT
BRANCH   1  22
ATOM     19  C   UNL     1       0.880  -0.031  -4.831  0.00  0.00    +0.121 A 
ATOM     20  C   UNL     1       0.841   1.341  -4.633  0.00  0.00    +0.046 A 
ATOM     21  C   UNL     1       0.284   1.856  -3.478  0.00  0.00    +0.007 A 
ATOM     22  C   UNL     1      -0.234   1.004  -2.519  0.00  0.00    -0.043 A 
ATOM     23  C   UNL     1      -0.191  -0.364  -2.712  0.00  0.00    +0.007 A 
ATOM     24  C   UNL     1       0.360  -0.884  -3.868  0.00  0.00    +0.046 A 
BRANCH  19  25
ATOM     25  O   UNL     1       1.427  -0.540  -5.966  0.00  0.00    -0.492 OA
BRANCH  25  26
ATOM     26  C   UNL     1       1.433  -1.962  -6.103  0.00  0.00    +0.229 C 
BRANCH  26  28
ATOM     27  C   UNL     1       2.090  -3.867  -7.580  0.00  0.00    +0.007 C 
ATOM     28  C   UNL     1       2.083  -2.344  -7.434  0.00  0.00    +0.038 C 
ENDBRANCH  26  28
ENDBRANCH  25  26
ENDBRANCH  19  25
ENDBRANCH   1  22
BRANCH   5  29
ATOM     29  C   UNL     1      -2.604   1.235   3.562  0.00  0.00    -0.021 A 
ATOM     30  C   UNL     1      -3.429   0.142   3.374  0.00  0.00    +0.006 A 
ATOM     31  C   UNL     1      -3.415  -0.899   4.284  0.00  0.00    +0.003 A 
ATOM     32  C   UNL     1      -2.576  -0.846   5.381  0.00  0.00    +0.033 A 
ATOM     33  C   UNL     1      -1.750   0.246   5.568  0.00  0.00    +0.127 A 
ATOM     34  C   UNL     1      -1.761   1.285   4.656  0.00  0.00    +0.038 A 
BRANCH  33  35
ATOM     35  N   UNL     1      -0.851   0.302   6.742  0.00  0.00    +0.056 N 
ATOM     36  O   UNL     1      -0.839  -0.614   7.545  0.00  0.00    -0.126 OA
ATOM     37  O   UNL     1      -0.123   1.265   6.907  0.00  0.00    -0.126 OA
ENDBRANCH  33  35
ENDBRANCH   5  29
TORSDOF 6
