REMARK  Name = ZINC45922058
REMARK  9 active torsions:
REMARK  status: ('A' for Active; 'I' for Inactive)
REMARK    1  A    between atoms: C_1  and  C_2
REMARK    2  A    between atoms: C_2  and  C_3
REMARK    3  A    between atoms: C_6  and  C_9
REMARK    4  A    between atoms: C_9  and  N_10
REMARK    5  A    between atoms: C_23  and  S_24
REMARK    6  A    between atoms: S_24  and  C_25
REMARK    7  A    between atoms: C_25  and  C_26
REMARK    8  A    between atoms: N_28  and  C_29
REMARK    9  A    between atoms: C_34  and  C_35
REMARK                            x       y       z     vdW  Elec       q    Type
REMARK                         _______ _______ _______ _____ _____    ______ ____
ROOT
ATOM      1  N   UNL     1      -6.330  -0.855   0.052  0.00  0.00    -0.282 N 
ATOM      2  C   UNL     1      -6.746  -0.320   1.224  0.00  0.00    +0.269 A 
ATOM      3  O   UNL     1      -6.355  -0.766   2.290  0.00  0.00    -0.266 OA
ATOM      4  C   UNL     1      -7.635   0.758   1.180  0.00  0.00    +0.105 A 
ATOM      5  C   UNL     1      -8.088   1.276  -0.032  0.00  0.00    +0.095 A 
ATOM      6  C   UNL     1      -9.022   2.413   0.060  0.00  0.00    +0.034 A 
ATOM      7  C   UNL     1      -9.628   3.120  -1.004  0.00  0.00    +0.014 A 
ATOM      8  C   UNL     1     -10.480   4.161  -0.712  0.00  0.00    +0.020 A 
ATOM      9  C   UNL     1     -10.736   4.507   0.605  0.00  0.00    +0.112 A 
ATOM     10  N   UNL     1     -10.167   3.844   1.593  0.00  0.00    -0.248 NA
ATOM     11  C   UNL     1      -9.347   2.841   1.361  0.00  0.00    +0.111 A 
ATOM     12  S   UNL     1      -8.426   1.750   2.418  0.00  0.00    -0.062 S 
ATOM     13  N   UNL     1      -7.620   0.679  -1.163  0.00  0.00    -0.222 NA
ATOM     14  C   UNL     1      -6.784  -0.325  -1.120  0.00  0.00    +0.173 A 
ENDROOT
BRANCH   1  15
ATOM     15  C   UNL     1      -5.399  -1.986   0.043  0.00  0.00    +0.162 C 
BRANCH  15  19
ATOM     16  C   UNL     1      -1.384  -0.527  -0.012  0.00  0.00    -0.048 A 
ATOM     17  C   UNL     1      -2.019  -0.759   1.194  0.00  0.00    +0.004 A 
ATOM     18  C   UNL     1      -3.318  -1.231   1.212  0.00  0.00    +0.005 A 
ATOM     19  C   UNL     1      -3.983  -1.470   0.024  0.00  0.00    -0.028 A 
ATOM     20  C   UNL     1      -3.349  -1.238  -1.182  0.00  0.00    +0.005 A 
ATOM     21  C   UNL     1      -2.051  -0.761  -1.200  0.00  0.00    +0.004 A 
BRANCH  16  23
ATOM     22  C   UNL     1       0.019   1.518  -0.030  0.00  0.00    +0.009 C 
ATOM     23  C   UNL     1       0.032  -0.012  -0.032  0.00  0.00    +0.032 C 
ENDBRANCH  16  23
ENDBRANCH  15  19
ENDBRANCH   1  15
BRANCH  14  24
ATOM     24  S   UNL     1      -6.228  -1.028  -2.637  0.00  0.00    -0.078 S 
BRANCH  24  25
ATOM     25  C   UNL     1      -7.061  -0.040  -3.910  0.00  0.00    +0.173 C 
BRANCH  25  26
ATOM     26  C   UNL     1      -6.667  -0.543  -5.274  0.00  0.00    +0.227 C 
ATOM     27  O   UNL     1      -5.900  -1.476  -5.378  0.00  0.00    -0.275 OA
ATOM     28  N   UNL     1      -7.168   0.044  -6.380  0.00  0.00    -0.285 N 
ATOM     29  H   UNL     1      -7.842   0.737  -6.298  0.00  0.00    +0.155 HD
BRANCH  28  30
ATOM     30  C   UNL     1      -6.715  -0.345  -7.645  0.00  0.00    +0.036 A 
ATOM     31  C   UNL     1      -5.455  -0.913  -7.789  0.00  0.00    +0.023 A 
ATOM     32  C   UNL     1      -5.011  -1.296  -9.039  0.00  0.00    +0.002 A 
ATOM     33  C   UNL     1      -5.819  -1.115 -10.147  0.00  0.00    +0.000 A 
ATOM     34  C   UNL     1      -7.073  -0.550 -10.007  0.00  0.00    +0.005 A 
ATOM     35  C   UNL     1      -7.526  -0.171  -8.758  0.00  0.00    -0.029 A 
ATOM     36  C   UNL     1      -8.896   0.438  -8.606  0.00  0.00    +0.045 C 
ENDBRANCH  28  30
ENDBRANCH  25  26
ENDBRANCH  24  25
ENDBRANCH  14  24
TORSDOF 7
