REMARK  Name = ZINC57476722
REMARK  3 active torsions:
REMARK  status: ('A' for Active; 'I' for Inactive)
REMARK    1  A    between atoms: C_1  and  C_2
REMARK    2  A    between atoms: N_8  and  C_9
REMARK    3  A    between atoms: C_14  and  N_15
REMARK                            x       y       z     vdW  Elec       q    Type
REMARK                         _______ _______ _______ _____ _____    ______ ____
ROOT
ATOM      1  C   UNL     1       1.138   0.397   2.187  0.00  0.00    +0.053 A 
ATOM      2  C   UNL     1       0.301   0.685   3.255  0.00  0.00    +0.052 A 
ATOM      3  C   UNL     1       0.719   1.565   4.241  0.00  0.00    +0.078 A 
ATOM      4  C   UNL     1       1.977   2.160   4.160  0.00  0.00    +0.144 A 
ATOM      5  C   UNL     1       2.812   1.873   3.095  0.00  0.00    +0.072 A 
ATOM      6  C   UNL     1       2.398   0.987   2.110  0.00  0.00    +0.049 A 
ATOM      7  O   UNL     1       2.371   3.023   5.136  0.00  0.00    -0.481 OA
ATOM      8  C   UNL     1       1.349   3.817   5.744  0.00  0.00    +0.325 C 
ATOM      9  C   UNL     1       0.171   2.944   6.094  0.00  0.00    +0.255 C 
ATOM     10  O   UNL     1      -0.517   3.208   7.057  0.00  0.00    -0.272 OA
ATOM     11  N   UNL     1      -0.115   1.867   5.330  0.00  0.00    -0.280 N 
ATOM     12  H   UNL     1      -0.884   1.311   5.531  0.00  0.00    +0.155 HD
ENDROOT
BRANCH   1  19
ATOM     13  C   UNL     1      -0.019   1.526   0.010  0.00  0.00    +0.028 C 
ATOM     14  C   UNL     1       0.002  -0.004   0.002  0.00  0.00    +0.070 C 
ATOM     15  C   UNL     1       0.725  -0.501  -1.254  0.00  0.00    +0.022 C 
ATOM     16  C   UNL     1       0.865  -2.023  -1.188  0.00  0.00    +0.003 C 
ATOM     17  C   UNL     1       1.701  -2.408   0.034  0.00  0.00    +0.019 C 
ATOM     18  C   UNL     1       0.989  -1.933   1.305  0.00  0.00    +0.105 C 
ATOM     19  N   UNL     1       0.718  -0.493   1.188  0.00  0.00    -0.326 N 
ENDBRANCH   1  19
BRANCH   6  20
ATOM     20  N   UNL     1       3.246   0.691   1.033  0.00  0.00    -0.356 N 
ATOM     21  H   UNL     1       2.955   0.075   0.342  0.00  0.00    +0.142 HD
ATOM     22  H   UNL     1       4.123   1.102   0.979  0.00  0.00    +0.142 HD
ENDBRANCH   6  20
TORSDOF 2
