REMARK  Name = ZINC21225996
REMARK  8 active torsions:
REMARK  status: ('A' for Active; 'I' for Inactive)
REMARK    1  A    between atoms: C_1  and  O_2
REMARK    2  A    between atoms: O_2  and  C_3
REMARK    3  A    between atoms: C_5  and  C_13
REMARK    4  A    between atoms: C_6  and  O_11
REMARK    5  A    between atoms: C_8  and  O_9
REMARK    6  A    between atoms: O_9  and  C_10
REMARK    7  A    between atoms: O_11  and  C_12
REMARK    8  A    between atoms: C_18  and  C_23
REMARK                            x       y       z     vdW  Elec       q    Type
REMARK                         _______ _______ _______ _____ _____    ______ ____
ROOT
ATOM      1  C   UNL     1      -2.557   3.874   0.045  0.00  0.00    +0.140 C 
ATOM      2  C   UNL     1      -3.078   3.953  -1.370  0.00  0.00    +0.037 C 
ATOM      3  C   UNL     1      -3.155   5.059  -2.125  0.00  0.00    +0.017 C 
ATOM      4  C   UNL     1      -3.717   4.996  -3.535  0.00  0.00    +0.059 C 
ATOM      5  C   UNL     1      -3.402   3.640  -4.163  0.00  0.00    +0.032 C 
ATOM      6  C   UNL     1      -4.040   2.558  -3.282  0.00  0.00    +0.088 C 
ATOM      7  C   UNL     1      -3.510   2.705  -1.888  0.00  0.00    +0.163 C 
ATOM      8  O   UNL     1      -3.448   1.721  -1.177  0.00  0.00    -0.292 OA
ATOM      9  N   UNL     1      -2.771   6.296  -1.719  0.00  0.00    -0.316 N 
ATOM     10  C   UNL     1      -1.579   6.587  -1.067  0.00  0.00    +0.052 A 
ATOM     11  C   UNL     1      -0.623   7.427  -1.612  0.00  0.00    +0.025 A 
ATOM     12  C   UNL     1       0.488   7.768  -0.860  0.00  0.00    +0.002 A 
ATOM     13  C   UNL     1       0.643   7.271   0.421  0.00  0.00    +0.002 A 
ATOM     14  C   UNL     1      -0.301   6.414   0.959  0.00  0.00    +0.025 A 
ATOM     15  C   UNL     1      -1.405   6.056   0.203  0.00  0.00    +0.049 A 
ATOM     16  N   UNL     1      -2.358   5.159   0.682  0.00  0.00    -0.331 N 
ATOM     17  H   UNL     1      -3.425   7.162  -1.900  0.00  0.00    +0.152 HD
ATOM     18  H   UNL     1      -2.962   5.438   1.558  0.00  0.00    +0.147 HD
ENDROOT
BRANCH   5  19
ATOM     19  C   UNL     1      -3.980   3.574  -5.553  0.00  0.00    -0.043 A 
ATOM     20  C   UNL     1      -5.342   3.711  -5.743  0.00  0.00    +0.005 A 
ATOM     21  C   UNL     1      -5.872   3.657  -7.018  0.00  0.00    +0.020 A 
ATOM     22  C   UNL     1      -5.039   3.454  -8.104  0.00  0.00    +0.041 A 
ATOM     23  C   UNL     1      -3.676   3.312  -7.914  0.00  0.00    +0.020 A 
ATOM     24  C   UNL     1      -3.147   3.372  -6.638  0.00  0.00    +0.005 A 
ATOM     25 CL   UNL     1      -5.704   3.380  -9.706  0.00  0.00    -0.084 Cl
ENDBRANCH   5  19
BRANCH   1  28
ATOM     26  C   UNL     1       0.705   2.394  -1.154  0.00  0.00    +0.162 A 
ATOM     27  C   UNL     1      -0.504   3.069  -1.138  0.00  0.00    +0.058 A 
ATOM     28  C   UNL     1      -1.241   3.140   0.029  0.00  0.00    +0.023 A 
ATOM     29  C   UNL     1      -0.774   2.532   1.185  0.00  0.00    +0.129 A 
ATOM     30  C   UNL     1       0.439   1.860   1.174  0.00  0.00    +0.095 A 
ATOM     31  C   UNL     1       1.179   1.788   0.005  0.00  0.00    +0.165 A 
BRANCH  26  33
ATOM     32  C   UNL     1       0.884   2.970  -3.456  0.00  0.00    +0.277 C 
ATOM     33  O   UNL     1       1.430   2.324  -2.304  0.00  0.00    -0.491 OA
ENDBRANCH  26  33
BRANCH  31  34
ATOM     34  O   UNL     1       2.366   1.125  -0.009  0.00  0.00    -0.491 OA
ATOM     35  C   UNL     1       2.790   0.527   1.217  0.00  0.00    +0.277 C 
ENDBRANCH  31  34
BRANCH  29  36
ATOM     36  O   UNL     1      -1.503   2.599   2.331  0.00  0.00    -0.495 OA
ATOM     37  C   UNL     1      -0.959   1.955   3.485  0.00  0.00    +0.277 C 
ENDBRANCH  29  36
ENDBRANCH   1  28
TORSDOF 5
