REMARK  Name = ZINC40315531
REMARK  15 active torsions:
REMARK  status: ('A' for Active; 'I' for Inactive)
REMARK    1  A    between atoms: C_1  and  C_2
REMARK    2  A    between atoms: C_5  and  O_9
REMARK    3  A    between atoms: C_6  and  C_8
REMARK    4  A    between atoms: O_9  and  C_10
REMARK    5  A    between atoms: C_10  and  C_11
REMARK    6  A    between atoms: C_11  and  C_13
REMARK    7  A    between atoms: C_11  and  O_34
REMARK    8  A    between atoms: C_13  and  N_14
REMARK    9  A    between atoms: N_14  and  C_15
REMARK   10  A    between atoms: N_14  and  C_26
REMARK   11  A    between atoms: C_15  and  C_16
REMARK   12  A    between atoms: C_19  and  C_22
REMARK   13  A    between atoms: C_22  and  C_23
REMARK   14  A    between atoms: C_22  and  C_24
REMARK   15  A    between atoms: C_22  and  C_25
REMARK                            x       y       z     vdW  Elec       q    Type
REMARK                         _______ _______ _______ _____ _____    ______ ____
ROOT
ATOM      1  N   UNL     1       0.561  -8.390  -2.196  0.00  0.00    +0.387 N 
ATOM      2  H   UNL     1       1.429  -8.683  -1.775  0.00  0.00    -0.081 HD
ENDROOT
BRANCH   1   3
ATOM      3  C   UNL     1      -0.564  -8.854  -1.373  0.00  0.00    -0.045 C 
ATOM      4  C   UNL     1      -0.284 -10.279  -0.868  0.00  0.00    +0.009 C 
ATOM      5  C   UNL     1      -1.577 -10.894  -0.279  0.00  0.00    +0.164 C 
ATOM      6  S   UNL     1      -2.900 -10.030  -1.221  0.00  0.00    -0.033 S 
ATOM      7  O   UNL     1      -3.685  -9.264  -0.319  0.00  0.00    -0.174 OA
ATOM      8  O   UNL     1      -3.536 -10.963  -2.084  0.00  0.00    -0.174 OA
ATOM      9  C   UNL     1      -1.862  -8.891  -2.230  0.00  0.00    +0.151 C 
ENDBRANCH   1   3
BRANCH   1  10
ATOM     10  C   UNL     1       0.530  -6.924  -2.286  0.00  0.00    -0.043 C 
BRANCH  10  11
ATOM     11  C   UNL     1       0.934  -6.323  -0.938  0.00  0.00    +0.135 C 
BRANCH  11  12
ATOM     12  O   UNL     1      -0.089  -6.582   0.025  0.00  0.00    -0.390 OA
ATOM     13  H   UNL     1      -0.966  -6.271  -0.239  0.00  0.00    +0.210 HD
ENDBRANCH  11  12
BRANCH  11  14
ATOM     14  C   UNL     1       1.121  -4.812  -1.090  0.00  0.00    +0.258 C 
BRANCH  14  15
ATOM     15  O   UNL     1       1.611  -4.267   0.137  0.00  0.00    -0.489 OA
BRANCH  15  20
ATOM     16  C   UNL     1       2.527   1.289   0.282  0.00  0.00    +0.044 C 
ATOM     17  C   UNL     1       2.282  -0.198   0.243  0.00  0.00    -0.050 A 
ATOM     18  C   UNL     1       1.809  -0.789  -0.914  0.00  0.00    +0.007 A 
ATOM     19  C   UNL     1       1.584  -2.151  -0.952  0.00  0.00    +0.046 A 
ATOM     20  C   UNL     1       1.832  -2.926   0.172  0.00  0.00    +0.124 A 
ATOM     21  C   UNL     1       2.307  -2.331   1.331  0.00  0.00    -0.009 A 
ATOM     22  C   UNL     1       2.536  -0.969   1.363  0.00  0.00    +0.010 A 
ATOM     23  C   UNL     1       2.578  -3.169   2.554  0.00  0.00    +0.047 C 
ENDBRANCH  15  20
ENDBRANCH  14  15
ENDBRANCH  11  14
ENDBRANCH  10  11
ENDBRANCH   1  10
BRANCH   1  24
ATOM     24  C   UNL     1       0.452  -8.965  -3.544  0.00  0.00    -0.042 C 
BRANCH  24  25
ATOM     25  C   UNL     1       0.655 -10.457  -3.471  0.00  0.00    -0.064 A 
ATOM     26  C   UNL     1       1.919 -10.972  -3.252  0.00  0.00    +0.002 A 
ATOM     27  C   UNL     1       2.105 -12.341  -3.185  0.00  0.00    +0.004 A 
ATOM     28  C   UNL     1       1.028 -13.193  -3.338  0.00  0.00    -0.042 A 
ATOM     29  C   UNL     1      -0.236 -12.677  -3.557  0.00  0.00    +0.004 A 
ATOM     30  C   UNL     1      -0.423 -11.309  -3.619  0.00  0.00    +0.002 A 
BRANCH  28  31
ATOM     31  C   UNL     1       1.231 -14.684  -3.267  0.00  0.00    -0.013 C 
ATOM     32  C   UNL     1       1.805 -15.056  -1.898  0.00  0.00    +0.015 C 
ATOM     33  C   UNL     1      -0.111 -15.392  -3.466  0.00  0.00    +0.015 C 
ATOM     34  C   UNL     1       2.205 -15.120  -4.363  0.00  0.00    +0.015 C 
ENDBRANCH  28  31
ENDBRANCH  24  25
ENDBRANCH   1  24
TORSDOF 10
