REMARK  Name = ZINC39879232
REMARK  8 active torsions:
REMARK  status: ('A' for Active; 'I' for Inactive)
REMARK    1  A    between atoms: C_1  and  C_2
REMARK    2  A    between atoms: N_15  and  C_27
REMARK    3  A    between atoms: C_16  and  C_18
REMARK    4  A    between atoms: C_21  and  O_26
REMARK    5  A    between atoms: C_22  and  O_24
REMARK    6  A    between atoms: O_24  and  C_25
REMARK    7  A    between atoms: C_30  and  O_34
REMARK    8  A    between atoms: O_34  and  C_35
REMARK                            x       y       z     vdW  Elec       q    Type
REMARK                         _______ _______ _______ _____ _____    ______ ____
ROOT
ATOM      1  C   UNL     1      -0.018   1.503   0.010  0.00  0.00    +0.044 C 
ATOM      2  C   UNL     1       0.002  -0.004   0.002  0.00  0.00    -0.050 A 
ATOM      3  C   UNL     1       0.006  -0.689  -1.205  0.00  0.00    +0.007 A 
ATOM      4  C   UNL     1       0.021  -2.065  -1.235  0.00  0.00    +0.047 A 
ATOM      5  C   UNL     1       0.034  -2.790  -0.043  0.00  0.00    +0.139 A 
ATOM      6  C   UNL     1       0.036  -2.086   1.172  0.00  0.00    +0.065 A 
ATOM      7  C   UNL     1       0.023  -0.692   1.183  0.00  0.00    +0.018 A 
ATOM      8  C   UNL     1       0.067  -2.849   2.446  0.00  0.00    +0.199 A 
ATOM      9  O   UNL     1      -0.098  -2.332   3.537  0.00  0.00    -0.287 OA
ATOM     10  C   UNL     1       0.313  -4.283   2.265  0.00  0.00    +0.072 A 
ATOM     11  C   UNL     1       0.293  -4.850   1.023  0.00  0.00    +0.199 A 
ATOM     12  O   UNL     1       0.042  -4.142  -0.096  0.00  0.00    -0.450 OA
ATOM     13  C   UNL     1       0.582  -6.287   1.166  0.00  0.00    +0.287 C 
ATOM     14  O   UNL     1       0.642  -7.080   0.247  0.00  0.00    -0.266 OA
ATOM     15  N   UNL     1       0.769  -6.595   2.466  0.00  0.00    -0.253 N 
ATOM     16  C   UNL     1       0.613  -5.362   3.254  0.00  0.00    +0.150 C 
ENDROOT
BRANCH  15  17
ATOM     17  C   UNL     1       1.061  -7.865   2.976  0.00  0.00    +0.039 A 
ATOM     18  C   UNL     1       1.224  -8.044   4.343  0.00  0.00    +0.027 A 
ATOM     19  C   UNL     1       1.513  -9.297   4.846  0.00  0.00    +0.049 A 
ATOM     20  C   UNL     1       1.640 -10.378   3.986  0.00  0.00    +0.138 A 
ATOM     21  C   UNL     1       1.477 -10.201   2.619  0.00  0.00    +0.084 A 
ATOM     22  C   UNL     1       1.182  -8.948   2.115  0.00  0.00    +0.047 A 
ATOM     23 CL   UNL     1       1.636 -11.554   1.543  0.00  0.00    -0.080 Cl
BRANCH  20  24
ATOM     24  O   UNL     1       1.925 -11.612   4.482  0.00  0.00    -0.494 OA
ATOM     25  C   UNL     1       2.080 -11.721   5.899  0.00  0.00    +0.277 C 
ENDBRANCH  20  24
ENDBRANCH  15  17
BRANCH  16  26
ATOM     26  C   UNL     1       1.889  -5.051   3.991  0.00  0.00    -0.018 A 
ATOM     27  C   UNL     1       3.110  -5.280   3.385  0.00  0.00    +0.009 A 
ATOM     28  C   UNL     1       4.284  -4.997   4.057  0.00  0.00    +0.049 A 
ATOM     29  C   UNL     1       4.239  -4.481   5.343  0.00  0.00    +0.158 A 
ATOM     30  C   UNL     1       3.010  -4.250   5.953  0.00  0.00    +0.162 A 
ATOM     31  C   UNL     1       1.837  -4.532   5.272  0.00  0.00    +0.055 A 
BRANCH  30  32
ATOM     32  O   UNL     1       2.961  -3.743   7.215  0.00  0.00    -0.491 OA
ATOM     33  C   UNL     1       1.665  -3.532   7.778  0.00  0.00    +0.277 C 
ENDBRANCH  30  32
BRANCH  29  34
ATOM     34  O   UNL     1       5.393  -4.202   6.006  0.00  0.00    -0.503 OA
ATOM     35  H   UNL     1       5.718  -3.302   5.868  0.00  0.00    +0.292 HD
ENDBRANCH  29  34
ENDBRANCH  16  26
TORSDOF 5
