REMARK  Name = ZINC08882949
REMARK  8 active torsions:
REMARK  status: ('A' for Active; 'I' for Inactive)
REMARK    1  A    between atoms: C_1  and  C_2
REMARK    2  A    between atoms: C_2  and  C_3
REMARK    3  A    between atoms: C_2  and  O_4
REMARK    4  A    between atoms: O_4  and  C_5
REMARK    5  A    between atoms: C_8  and  C_11
REMARK    6  A    between atoms: N_13  and  C_14
REMARK    7  A    between atoms: C_17  and  S_20
REMARK    8  A    between atoms: S_20  and  N_23
REMARK                            x       y       z     vdW  Elec       q    Type
REMARK                         _______ _______ _______ _____ _____    ______ ____
ROOT
ATOM      1  C   UNL     1      -5.050  -1.571  -0.162  0.00  0.00    +0.034 A 
ATOM      2  C   UNL     1      -4.042  -2.497  -0.398  0.00  0.00    +0.025 A 
ATOM      3  C   UNL     1      -2.761  -2.251   0.054  0.00  0.00    +0.030 A 
ATOM      4  C   UNL     1      -2.481  -1.085   0.744  0.00  0.00    +0.106 A 
ATOM      5  C   UNL     1      -3.484  -0.164   0.986  0.00  0.00    +0.030 A 
ATOM      6  C   UNL     1      -4.766  -0.401   0.531  0.00  0.00    +0.025 A 
ENDROOT
BRANCH   1   9
ATOM      7  C   UNL     1      -7.131  -0.792  -1.011  0.00  0.00    +0.248 C 
ATOM      8  O   UNL     1      -6.677   0.335  -1.059  0.00  0.00    -0.270 OA
ATOM      9  N   UNL     1      -6.349  -1.818  -0.618  0.00  0.00    -0.282 N 
ATOM     10  H   UNL     1      -6.687  -2.726  -0.652  0.00  0.00    +0.155 HD
BRANCH   7  14
ATOM     11  C   UNL     1     -11.178  -1.499  -2.084  0.00  0.00    +0.121 A 
ATOM     12  C   UNL     1     -10.662  -0.210  -2.138  0.00  0.00    +0.046 A 
ATOM     13  C   UNL     1      -9.350   0.024  -1.791  0.00  0.00    +0.016 A 
ATOM     14  C   UNL     1      -8.538  -1.038  -1.383  0.00  0.00    +0.037 A 
ATOM     15  C   UNL     1      -9.059  -2.333  -1.335  0.00  0.00    +0.016 A 
ATOM     16  C   UNL     1     -10.374  -2.558  -1.678  0.00  0.00    +0.046 A 
BRANCH  11  17
ATOM     17  O   UNL     1     -12.472  -1.725  -2.427  0.00  0.00    -0.489 OA
BRANCH  17  19
ATOM     18  C   UNL     1     -13.075  -0.172  -4.177  0.00  0.00    +0.051 C 
ATOM     19  C   UNL     1     -13.276  -0.580  -2.716  0.00  0.00    +0.167 C 
ATOM     20  C   UNL     1     -14.749  -0.917  -2.478  0.00  0.00    +0.051 C 
ENDBRANCH  17  19
ENDBRANCH  11  17
ENDBRANCH   7  14
ENDBRANCH   1   9
BRANCH   4  21
ATOM     21  S   UNL     1      -0.846  -0.775   1.320  0.00  0.00    +0.061 S 
ATOM     22  O   UNL     1      -0.213  -2.041   1.447  0.00  0.00    -0.153 OA
ATOM     23  O   UNL     1      -0.963   0.130   2.410  0.00  0.00    -0.153 OA
BRANCH  21  24
ATOM     24  N   UNL     1      -0.047   0.035   0.117  0.00  0.00    -0.176 NA
ATOM     25  C   UNL     1       0.694  -0.698  -0.917  0.00  0.00    +0.114 C 
ATOM     26  C   UNL     1       2.102  -0.136  -1.054  0.00  0.00    +0.025 C 
ATOM     27  C   UNL     1       2.074   1.385  -1.204  0.00  0.00    +0.017 C 
ATOM     28  C   UNL     1       1.397   1.982   0.032  0.00  0.00    +0.052 C 
ATOM     29  C   UNL     1      -0.066   1.505   0.059  0.00  0.00    +0.119 C 
ATOM     30  C   UNL     1       2.071   1.465   1.282  0.00  0.00    +0.026 A 
ATOM     31  C   UNL     1       1.980   2.230   2.402  0.00  0.00    +0.022 A 
ATOM     32  C   UNL     1       2.463   1.757   3.627  0.00  0.00    +0.007 A 
ATOM     33  C   UNL     1       3.014   0.510   3.680  0.00  0.00    +0.070 A 
ATOM     34  C   UNL     1       3.105  -0.246   2.504  0.00  0.00    +0.251 A 
ATOM     35  O   UNL     1       3.555  -1.380   2.549  0.00  0.00    -0.268 OA
ATOM     36  N   UNL     1       2.699   0.267   1.317  0.00  0.00    -0.312 N 
ATOM     37  C   UNL     1       2.986  -0.522   0.119  0.00  0.00    +0.130 C 
ENDBRANCH  21  24
ENDBRANCH   4  21
TORSDOF 6
