REMARK  Name = ZINC65098387
REMARK  8 active torsions:
REMARK  status: ('A' for Active; 'I' for Inactive)
REMARK    1  A    between atoms: C_1  and  C_2
REMARK    2  A    between atoms: C_2  and  C_3
REMARK    3  A    between atoms: C_3  and  N_4
REMARK    4  A    between atoms: C_7  and  C_15
REMARK    5  A    between atoms: C_17  and  C_20
REMARK    6  A    between atoms: C_20  and  N_21
REMARK    7  A    between atoms: C_22  and  C_24
REMARK    8  A    between atoms: C_24  and  C_25
REMARK                            x       y       z     vdW  Elec       q    Type
REMARK                         _______ _______ _______ _____ _____    ______ ____
ROOT
ATOM      1  C   UNL     1       4.642  -2.065   1.715  0.00  0.00    +0.202 A 
ATOM      2  N   UNL     1       5.689  -2.641   2.333  0.00  0.00    -0.190 NA
ATOM      3  C   UNL     1       6.300  -1.768   3.082  0.00  0.00    +0.245 A 
ATOM      4  O   UNL     1       5.665  -0.595   2.972  0.00  0.00    -0.336 OA
ATOM      5  N   UNL     1       4.587  -0.805   2.072  0.00  0.00    -0.056 NA
ENDROOT
BRANCH   1   9
ATOM      6  N   UNL     1       0.738  -1.962  -1.265  0.00  0.00    -0.265 N 
ATOM      7  C   UNL     1       1.797  -2.663  -0.669  0.00  0.00    +0.079 A 
ATOM      8  C   UNL     1       2.662  -2.027   0.201  0.00  0.00    +0.039 A 
ATOM      9  C   UNL     1       3.709  -2.742   0.781  0.00  0.00    +0.024 A 
ATOM     10  C   UNL     1       3.878  -4.093   0.483  0.00  0.00    +0.015 A 
ATOM     11  C   UNL     1       3.012  -4.724  -0.386  0.00  0.00    +0.048 A 
ATOM     12  C   UNL     1       1.970  -4.016  -0.964  0.00  0.00    +0.143 A 
ATOM     13  O   UNL     1       1.109  -4.629  -1.819  0.00  0.00    -0.481 OA
ATOM     14  C   UNL     1      -0.244  -4.166  -1.810  0.00  0.00    +0.325 C 
ATOM     15  C   UNL     1      -0.266  -2.659  -1.841  0.00  0.00    +0.258 C 
ATOM     16  O   UNL     1      -1.179  -2.074  -2.384  0.00  0.00    -0.272 OA
BRANCH   6  17
ATOM     17  C   UNL     1       0.718  -0.497  -1.257  0.00  0.00    +0.113 C 
BRANCH  17  19
ATOM     18  C   UNL     1      -0.019   1.526   0.010  0.00  0.00    +0.005 C 
ATOM     19  C   UNL     1       0.002  -0.004   0.002  0.00  0.00    +0.016 C 
ENDBRANCH  17  19
ENDBRANCH   6  17
ENDBRANCH   1   9
BRANCH   3  20
ATOM     20  C   UNL     1       7.517  -2.034   3.930  0.00  0.00    +0.203 C 
BRANCH  20  21
ATOM     21  N   UNL     1       8.726  -1.780   3.143  0.00  0.00    -0.306 N 
ATOM     22  C   UNL     1       9.941  -1.953   3.700  0.00  0.00    +0.218 C 
ATOM     23  O   UNL     1      10.034  -2.320   4.852  0.00  0.00    -0.275 OA
ATOM     24  H   UNL     1       8.652  -1.486   2.222  0.00  0.00    +0.149 HD
BRANCH  22  25
ATOM     25  C   UNL     1      11.185  -1.690   2.890  0.00  0.00    +0.130 C 
BRANCH  25  26
ATOM     26  C   UNL     1      12.402  -1.957   3.739  0.00  0.00    -0.039 A 
ATOM     27  C   UNL     1      12.953  -0.939   4.495  0.00  0.00    +0.005 A 
ATOM     28  C   UNL     1      14.069  -1.183   5.274  0.00  0.00    +0.020 A 
ATOM     29  C   UNL     1      14.635  -2.445   5.295  0.00  0.00    +0.041 A 
ATOM     30  C   UNL     1      14.083  -3.463   4.537  0.00  0.00    +0.020 A 
ATOM     31  C   UNL     1      12.964  -3.220   3.764  0.00  0.00    +0.005 A 
ATOM     32 CL   UNL     1      16.037  -2.751   6.272  0.00  0.00    -0.084 Cl
ENDBRANCH  25  26
ENDBRANCH  22  25
ENDBRANCH  20  21
ENDBRANCH   3  20
TORSDOF 7
