REMARK  Name = ZINC13785342
REMARK  12 active torsions:
REMARK  status: ('A' for Active; 'I' for Inactive)
REMARK    1  A    between atoms: C_1  and  C_2
REMARK    2  A    between atoms: C_2  and  C_3
REMARK    3  A    between atoms: C_3  and  O_4
REMARK    4  A    between atoms: O_4  and  C_5
REMARK    5  A    between atoms: C_8  and  C_13
REMARK    6  A    between atoms: C_10  and  O_11
REMARK    7  A    between atoms: O_11  and  C_12
REMARK    8  A    between atoms: N_14  and  N_15
REMARK    9  A    between atoms: C_16  and  C_18
REMARK   10  A    between atoms: C_18  and  C_20
REMARK   11  A    between atoms: C_18  and  N_32
REMARK   12  A    between atoms: C_33  and  C_35
REMARK                            x       y       z     vdW  Elec       q    Type
REMARK                         _______ _______ _______ _____ _____    ______ ____
ROOT
ATOM      1  C   UNL     1       2.424  -8.445  -0.068  0.00  0.00    +0.212 C 
ENDROOT
BRANCH   1   2
ATOM      2  C   UNL     1       1.733  -8.966   1.166  0.00  0.00    +0.099 A 
ATOM      3  C   UNL     1       0.279  -9.124   1.179  0.00  0.00    +0.013 A 
ATOM      4  C   UNL     1      -0.506  -8.814   0.066  0.00  0.00    +0.010 A 
ATOM      5  C   UNL     1      -1.861  -8.985   0.125  0.00  0.00    +0.001 A 
ATOM      6  C   UNL     1      -2.470  -9.467   1.276  0.00  0.00    +0.001 A 
ATOM      7  C   UNL     1      -1.721  -9.785   2.388  0.00  0.00    +0.014 A 
ATOM      8  C   UNL     1      -0.337  -9.620   2.351  0.00  0.00    +0.050 A 
ATOM      9  C   UNL     1       0.516  -9.941   3.501  0.00  0.00    +0.272 A 
ATOM     10  O   UNL     1       0.031 -10.366   4.534  0.00  0.00    -0.266 OA
ATOM     11  N   UNL     1       1.849  -9.756   3.393  0.00  0.00    -0.242 N 
ATOM     12  H   UNL     1       2.507  -9.991   4.242  0.00  0.00    +0.192 HD
ATOM     13  N   UNL     1       2.429  -9.270   2.221  0.00  0.00    -0.173 NA
ENDBRANCH   1   2
BRANCH   1  15
ATOM     14  N   UNL     1       1.222  -6.284  -0.044  0.00  0.00    -0.205 N 
ATOM     15  C   UNL     1       2.400  -6.938  -0.059  0.00  0.00    +0.259 C 
ATOM     16  O   UNL     1       3.440  -6.315  -0.065  0.00  0.00    -0.272 OA
ATOM     17  H   UNL     1       0.278  -6.849  -0.039  0.00  0.00    +0.177 HD
BRANCH  14  19
ATOM     18  C   UNL     1       0.065  -4.252  -0.022  0.00  0.00    +0.138 C 
ATOM     19  N   UNL     1       1.199  -4.883  -0.036  0.00  0.00    -0.188 NA
BRANCH  18  23
ATOM     20  C   UNL     1       0.002  -0.004   0.002  0.00  0.00    +0.162 A 
ATOM     21  C   UNL     1       1.214  -0.679  -0.019  0.00  0.00    +0.050 A 
ATOM     22  C   UNL     1       1.238  -2.058  -0.021  0.00  0.00    +0.013 A 
ATOM     23  C   UNL     1       0.041  -2.778  -0.013  0.00  0.00    -0.002 A 
ATOM     24  C   UNL     1      -1.179  -2.097   0.002  0.00  0.00    +0.059 A 
ATOM     25  C   UNL     1      -1.196  -0.715   0.010  0.00  0.00    +0.162 A 
BRANCH  25  26
ATOM     26  O   UNL     1      -2.382  -0.050   0.025  0.00  0.00    -0.491 OA
ATOM     27  C   UNL     1      -3.571  -0.842   0.032  0.00  0.00    +0.277 C 
ENDBRANCH  25  26
BRANCH  20  28
ATOM     28  O   UNL     1      -0.016   1.355   0.009  0.00  0.00    -0.488 OA
BRANCH  28  29
ATOM     29  C   UNL     1       1.248   2.021   0.001  0.00  0.00    +0.229 C 
BRANCH  29  31
ATOM     30  C   UNL     1       2.381   4.248   0.002  0.00  0.00    +0.007 C 
ATOM     31  C   UNL     1       1.027   3.535   0.011  0.00  0.00    +0.038 C 
ENDBRANCH  29  31
ENDBRANCH  28  29
ENDBRANCH  20  28
ENDBRANCH  18  23
ENDBRANCH  14  19
ENDBRANCH   1  15
BRANCH   1  32
ATOM     32  N   UNL     1       3.813  -8.911  -0.084  0.00  0.00    -0.295 N 
ATOM     33  C   UNL     1       4.111 -10.125  -0.587  0.00  0.00    +0.245 C 
ATOM     34  O   UNL     1       3.227 -10.834  -1.027  0.00  0.00    -0.270 OA
ATOM     35  H   UNL     1       4.612  -8.270   0.315  0.00  0.00    +0.150 HD
BRANCH  33  36
ATOM     36  C   UNL     1       5.512 -10.596  -0.602  0.00  0.00    +0.037 A 
ATOM     37  C   UNL     1       6.530  -9.782  -0.102  0.00  0.00    +0.013 A 
ATOM     38  C   UNL     1       7.835 -10.229  -0.115  0.00  0.00    +0.001 A 
ATOM     39  C   UNL     1       8.137 -11.476  -0.632  0.00  0.00    +0.000 A 
ATOM     40  C   UNL     1       7.134 -12.285  -1.135  0.00  0.00    +0.001 A 
ATOM     41  C   UNL     1       5.824 -11.853  -1.123  0.00  0.00    +0.013 A 
ENDBRANCH  33  36
ENDBRANCH   1  32
TORSDOF 10
