REMARK  Name = ZINC63234646
REMARK  8 active torsions:
REMARK  status: ('A' for Active; 'I' for Inactive)
REMARK    1  A    between atoms: C_1  and  O_2
REMARK    2  A    between atoms: O_2  and  C_3
REMARK    3  A    between atoms: C_5  and  C_13
REMARK    4  A    between atoms: C_7  and  O_11
REMARK    5  A    between atoms: C_8  and  O_9
REMARK    6  A    between atoms: O_9  and  C_10
REMARK    7  A    between atoms: O_11  and  C_12
REMARK    8  A    between atoms: N_31  and  C_34
REMARK                            x       y       z     vdW  Elec       q    Type
REMARK                         _______ _______ _______ _____ _____    ______ ____
ROOT
ATOM      1  C   UNL     1       2.869   0.603  -3.707  0.00  0.00    +0.133 C 
ATOM      2  C   UNL     1       4.391   0.731  -3.540  0.00  0.00    +0.131 C 
ATOM      3  C   UNL     1       4.915   1.449  -4.775  0.00  0.00    -0.034 C 
ATOM      4  C   UNL     1       5.562   2.524  -4.335  0.00  0.00    -0.001 A 
ATOM      5  C   UNL     1       6.328   3.563  -5.043  0.00  0.00    +0.010 A 
ATOM      6  C   UNL     1       6.862   4.545  -4.270  0.00  0.00    +0.001 A 
ATOM      7  C   UNL     1       6.714   4.596  -2.881  0.00  0.00    +0.002 A 
ATOM      8  C   UNL     1       6.030   3.682  -2.148  0.00  0.00    +0.026 A 
ATOM      9  C   UNL     1       5.425   2.599  -2.849  0.00  0.00    +0.043 A 
ATOM     10  N   UNL     1       4.733   1.571  -2.391  0.00  0.00    -0.375 N 
ATOM     11  C   UNL     1       4.635   0.986  -6.186  0.00  0.00    +0.065 C 
ATOM     12  C   UNL     1       3.109   0.827  -6.299  0.00  0.00    +0.166 C 
ATOM     13  N   UNL     1       2.625   0.145  -5.081  0.00  0.00    -0.291 N 
ATOM     14  C   UNL     1       1.967  -0.949  -5.485  0.00  0.00    +0.143 C 
ATOM     15  S   UNL     1       1.086  -1.975  -4.436  0.00  0.00    -0.018 S 
ATOM     16  N   UNL     1       2.078  -1.146  -6.806  0.00  0.00    -0.249 N 
ATOM     17  C   UNL     1       2.772  -0.135  -7.417  0.00  0.00    +0.242 C 
ATOM     18  O   UNL     1       3.060  -0.025  -8.590  0.00  0.00    -0.273 OA
ATOM     19  H   UNL     1       4.487   1.399  -1.468  0.00  0.00    +0.160 HD
ENDROOT
BRANCH   1  22
ATOM     20  C   UNL     1       0.695  -1.029  -1.081  0.00  0.00    +0.165 A 
ATOM     21  C   UNL     1       1.198  -0.105  -1.985  0.00  0.00    +0.055 A 
ATOM     22  C   UNL     1       2.326  -0.404  -2.725  0.00  0.00    -0.018 A 
ATOM     23  C   UNL     1       2.958  -1.623  -2.567  0.00  0.00    +0.055 A 
ATOM     24  C   UNL     1       2.462  -2.552  -1.666  0.00  0.00    +0.165 A 
ATOM     25  C   UNL     1       1.331  -2.254  -0.915  0.00  0.00    +0.204 A 
BRANCH  20  27
ATOM     26  C   UNL     1      -1.017   0.542  -0.575  0.00  0.00    +0.277 C 
ATOM     27  O   UNL     1      -0.416  -0.735  -0.353  0.00  0.00    -0.491 OA
ENDBRANCH  20  27
BRANCH  25  28
ATOM     28  O   UNL     1       0.844  -3.161  -0.025  0.00  0.00    -0.488 OA
ATOM     29  C   UNL     1      -0.120  -4.096  -0.514  0.00  0.00    +0.277 C 
ENDBRANCH  25  28
BRANCH  24  30
ATOM     30  O   UNL     1       3.084  -3.751  -1.512  0.00  0.00    -0.491 OA
ATOM     31  C   UNL     1       4.311  -3.942  -2.221  0.00  0.00    +0.277 C 
ENDBRANCH  24  30
ENDBRANCH   1  22
BRANCH  16  32
ATOM     32  C   UNL     1       1.519  -2.300  -7.515  0.00  0.00    +0.083 C 
ATOM     33  C   UNL     1      -0.003  -2.307  -7.358  0.00  0.00    +0.023 C 
ATOM     34  C   UNL     1      -0.587  -3.511  -8.099  0.00  0.00    +0.002 C 
ATOM     35  C   UNL     1      -0.007  -4.800  -7.512  0.00  0.00    +0.000 C 
ATOM     36  C   UNL     1       1.514  -4.793  -7.669  0.00  0.00    +0.002 C 
ATOM     37  C   UNL     1       2.098  -3.589  -6.928  0.00  0.00    +0.023 C 
ENDBRANCH  16  32
TORSDOF 5
