REMARK  Name = ZINC28842774
REMARK  14 active torsions:
REMARK  status: ('A' for Active; 'I' for Inactive)
REMARK    1  A    between atoms: C_1  and  C_2
REMARK    2  A    between atoms: C_2  and  O_3
REMARK    3  A    between atoms: O_3  and  C_4
REMARK    4  A    between atoms: C_4  and  C_6
REMARK    5  A    between atoms: C_7  and  C_35
REMARK    6  A    between atoms: C_8  and  C_13
REMARK    7  A    between atoms: C_11  and  C_12
REMARK    8  A    between atoms: N_15  and  C_16
REMARK    9  A    between atoms: C_18  and  S_23
REMARK   10  A    between atoms: C_21  and  O_22
REMARK   11  A    between atoms: S_23  and  N_26
REMARK   12  A    between atoms: N_26  and  C_27
REMARK   13  A    between atoms: C_32  and  O_33
REMARK   14  A    between atoms: O_33  and  C_34
REMARK                            x       y       z     vdW  Elec       q    Type
REMARK                         _______ _______ _______ _____ _____    ______ ____
ROOT
ATOM      1  C   UNL     1       0.447  -0.585  -0.296  0.00  0.00    +0.077 A 
ATOM      2  C   UNL     1       1.718  -0.029  -0.248  0.00  0.00    +0.055 A 
ATOM      3  C   UNL     1       1.878   1.298   0.100  0.00  0.00    +0.110 A 
ATOM      4  C   UNL     1       0.774   2.076   0.401  0.00  0.00    +0.032 A 
ATOM      5  C   UNL     1      -0.495   1.529   0.355  0.00  0.00    +0.049 A 
ATOM      6  C   UNL     1      -0.664   0.199   0.006  0.00  0.00    +0.138 A 
ENDROOT
BRANCH   1   9
ATOM      7  C   UNL     1       1.109  -2.497  -1.550  0.00  0.00    +0.265 C 
ATOM      8  O   UNL     1       2.052  -1.866  -1.992  0.00  0.00    -0.268 OA
ATOM      9  N   UNL     1       0.282  -1.930  -0.649  0.00  0.00    -0.277 N 
ATOM     10  H   UNL     1      -0.522  -2.524  -0.192  0.00  0.00    +0.155 HD
BRANCH   7  13
ATOM     11  C   UNL     1       1.050  -5.843  -3.038  0.00  0.00    +0.083 A 
ATOM     12  C   UNL     1       1.628  -4.560  -2.904  0.00  0.00    -0.006 A 
ATOM     13  C   UNL     1       0.874  -3.875  -1.998  0.00  0.00    +0.106 A 
ATOM     14  N   UNL     1      -0.152  -4.695  -1.580  0.00  0.00    -0.354 N 
ATOM     15  H   UNL     1      -0.883  -4.329  -0.845  0.00  0.00    +0.166 HD
ATOM     16  C   UNL     1      -0.051  -5.880  -2.201  0.00  0.00    +0.028 A 
ATOM     17  C   UNL     1      -0.980  -7.053  -2.019  0.00  0.00    +0.064 C 
ATOM     18  C   UNL     1       2.848  -4.047  -3.625  0.00  0.00    +0.047 C 
BRANCH  11  19
ATOM     19  C   UNL     1       1.526  -6.931  -3.907  0.00  0.00    +0.341 C 
ATOM     20  O   UNL     1       1.116  -7.021  -5.048  0.00  0.00    -0.245 OA
BRANCH  19  21
ATOM     21  O   UNL     1       2.416  -7.828  -3.438  0.00  0.00    -0.461 OA
BRANCH  21  23
ATOM     22  C   UNL     1       3.845  -9.788  -3.646  0.00  0.00    +0.048 C 
ATOM     23  C   UNL     1       2.842  -8.874  -4.351  0.00  0.00    +0.229 C 
ENDBRANCH  21  23
ENDBRANCH  19  21
ENDBRANCH  11  19
ENDBRANCH   7  13
ENDBRANCH   1   9
BRANCH   3  24
ATOM     24  S   UNL     1       3.492   2.002   0.162  0.00  0.00    +0.073 S 
ATOM     25  O   UNL     1       3.417   3.115   1.043  0.00  0.00    -0.150 OA
ATOM     26  O   UNL     1       4.396   0.926   0.369  0.00  0.00    -0.150 OA
BRANCH  24  27
ATOM     27  N   UNL     1       3.817   2.612  -1.343  0.00  0.00    -0.213 N 
ATOM     28  H   UNL     1       4.677   2.233  -1.916  0.00  0.00    +0.174 HD
BRANCH  27  29
ATOM     29  C   UNL     1       2.999   3.609  -1.887  0.00  0.00    +0.090 A 
ATOM     30  C   UNL     1       2.447   4.580  -1.065  0.00  0.00    +0.028 A 
ATOM     31  C   UNL     1       1.643   5.567  -1.604  0.00  0.00    +0.002 A 
ATOM     32  C   UNL     1       1.379   5.582  -2.961  0.00  0.00    +0.004 A 
ATOM     33  C   UNL     1       1.921   4.614  -3.786  0.00  0.00    +0.047 A 
ATOM     34  C   UNL     1       2.732   3.625  -3.254  0.00  0.00    +0.142 A 
BRANCH  34  35
ATOM     35  O   UNL     1       3.265   2.671  -4.064  0.00  0.00    -0.493 OA
ATOM     36  C   UNL     1       2.948   2.750  -5.455  0.00  0.00    +0.277 C 
ENDBRANCH  34  35
ENDBRANCH  27  29
ENDBRANCH  24  27
ENDBRANCH   3  24
BRANCH   6  37
ATOM     37  O   UNL     1      -1.911  -0.340  -0.039  0.00  0.00    -0.505 OA
ATOM     38  H   UNL     1      -2.788   0.280   0.200  0.00  0.00    +0.292 HD
ENDBRANCH   6  37
TORSDOF 10
