REMARK  Name = ZINC19094360
REMARK  5 active torsions:
REMARK  status: ('A' for Active; 'I' for Inactive)
REMARK    1  A    between atoms: C_1  and  C_2
REMARK    2  A    between atoms: C_2  and  C_3
REMARK    3  A    between atoms: C_2  and  N_4
REMARK    4  A    between atoms: C_5  and  C_7
REMARK    5  A    between atoms: C_16  and  C_18
REMARK                            x       y       z     vdW  Elec       q    Type
REMARK                         _______ _______ _______ _____ _____    ______ ____
ROOT
ATOM      1  C   UNL     1      -2.249   1.149   0.803  0.00  0.00    +0.092 C 
ATOM      2  C   UNL     1      -0.826   1.690   1.138  0.00  0.00    +0.002 C 
ATOM      3  C   UNL     1      -0.870   3.190   0.711  0.00  0.00    +0.004 C 
ATOM      4  C   UNL     1      -0.919   3.155  -0.834  0.00  0.00    +0.004 C 
ATOM      5  C   UNL     1      -0.902   1.639  -1.195  0.00  0.00    +0.004 C 
ATOM      6  C   UNL     1       0.004   1.076  -0.044  0.00  0.00    +0.008 C 
ATOM      7  C   UNL     1      -2.300   1.115  -0.745  0.00  0.00    +0.117 C 
ENDROOT
BRANCH   1   9
ATOM      8  N   UNL     1      -3.595  -0.891   1.188  0.00  0.00    -0.313 N 
ATOM      9  C   UNL     1      -2.430  -0.238   1.366  0.00  0.00    +0.217 C 
ATOM     10  O   UNL     1      -1.526  -0.766   1.979  0.00  0.00    -0.275 OA
ATOM     11  H   UNL     1      -4.318  -0.469   0.698  0.00  0.00    +0.149 HD
BRANCH   8  13
ATOM     12  C   UNL     1      -4.216  -2.143   3.195  0.00  0.00    +0.027 C 
ATOM     13  C   UNL     1      -3.770  -2.239   1.735  0.00  0.00    +0.067 C 
ATOM     14  C   UNL     1      -4.834  -2.983   0.925  0.00  0.00    +0.027 C 
ENDBRANCH   8  13
ENDBRANCH   1   9
BRANCH   7  15
ATOM     15  C   UNL     1      -3.391   2.020  -1.256  0.00  0.00    +0.360 C 
ATOM     16  O   UNL     1      -3.852   2.876  -0.537  0.00  0.00    -0.246 OA
ATOM     17  O   UNL     1      -3.850   1.877  -2.509  0.00  0.00    -0.246 OA
ENDBRANCH   7  15
TORSDOF 3
