REMARK  Name = ZINC13831079
REMARK  7 active torsions:
REMARK  status: ('A' for Active; 'I' for Inactive)
REMARK    1  A    between atoms: C_1  and  C_2
REMARK    2  A    between atoms: C_2  and  O_3
REMARK    3  A    between atoms: O_3  and  C_4
REMARK    4  A    between atoms: C_8  and  C_11
REMARK    5  A    between atoms: C_9  and  O_10
REMARK    6  A    between atoms: C_14  and  C_26
REMARK    7  A    between atoms: C_16  and  C_19
REMARK                            x       y       z     vdW  Elec       q    Type
REMARK                         _______ _______ _______ _____ _____    ______ ____
ROOT
ATOM      1  C   UNL     1       2.224  -4.267  -3.827  0.00  0.00    -0.028 C 
ATOM      2  C   UNL     1       3.731  -4.346  -3.565  0.00  0.00    +0.044 C 
ATOM      3  C   UNL     1       4.380  -5.178  -4.636  0.00  0.00    +0.040 C 
ATOM      4  N   UNL     1       3.714  -5.940  -5.422  0.00  0.00    -0.299 NA
ATOM      5  C   UNL     1       2.264  -6.084  -5.381  0.00  0.00    +0.081 C 
ATOM      6  N   UNL     1       1.729  -5.628  -4.094  0.00  0.00    +0.401 N 
ATOM      7  H   UNL     1       2.037  -6.249  -3.361  0.00  0.00    -0.081 HD
ATOM      8  H   UNL     1       0.721  -5.620  -4.131  0.00  0.00    -0.081 HD
ENDROOT
BRANCH   3   9
ATOM      9  C   UNL     1       5.846  -5.115  -4.788  0.00  0.00    -0.001 A 
ATOM     10  C   UNL     1       6.603  -4.299  -3.944  0.00  0.00    +0.013 A 
ATOM     11  C   UNL     1       7.972  -4.242  -4.087  0.00  0.00    +0.050 A 
ATOM     12  C   UNL     1       8.604  -4.993  -5.069  0.00  0.00    +0.166 A 
ATOM     13  C   UNL     1       7.854  -5.810  -5.915  0.00  0.00    +0.167 A 
ATOM     14  C   UNL     1       6.481  -5.876  -5.773  0.00  0.00    +0.059 A 
ATOM     15  O   UNL     1       8.703  -6.435  -6.783  0.00  0.00    -0.453 OA
ATOM     16  C   UNL     1       9.930  -5.684  -6.728  0.00  0.00    +0.466 C 
ATOM     17  O   UNL     1       9.920  -5.109  -5.408  0.00  0.00    -0.453 OA
ENDBRANCH   3   9
BRANCH   5  18
ATOM     18  C   UNL     1       1.905  -7.534  -5.581  0.00  0.00    -0.040 A 
ATOM     19  C   UNL     1       0.756  -8.047  -5.007  0.00  0.00    +0.005 A 
ATOM     20  C   UNL     1       0.426  -9.376  -5.190  0.00  0.00    +0.015 A 
ATOM     21  C   UNL     1       1.245 -10.194  -5.947  0.00  0.00    +0.018 A 
ATOM     22  C   UNL     1       2.394  -9.681  -6.521  0.00  0.00    +0.015 A 
ATOM     23  C   UNL     1       2.721  -8.350  -6.342  0.00  0.00    +0.005 A 
ATOM     24 BR   UNL     1       0.794 -12.014  -6.197  0.00  0.00    -0.050 Br
ENDBRANCH   5  18
BRANCH   1  29
ATOM     25  C   UNL     1       0.777  -1.811  -1.336  0.00  0.00    +0.162 A 
ATOM     26  C   UNL     1       0.243  -2.669  -0.388  0.00  0.00    +0.049 A 
ATOM     27  C   UNL     1       0.352  -4.037  -0.555  0.00  0.00    +0.004 A 
ATOM     28  C   UNL     1       0.992  -4.552  -1.667  0.00  0.00    +0.006 A 
ATOM     29  C   UNL     1       1.526  -3.702  -2.616  0.00  0.00    -0.016 A 
ATOM     30  C   UNL     1       1.416  -2.330  -2.458  0.00  0.00    +0.160 A 
BRANCH  30  31
ATOM     31  O   UNL     1       1.936  -1.492  -3.394  0.00  0.00    -0.503 OA
ATOM     32  H   UNL     1       2.856  -1.241  -3.231  0.00  0.00    +0.292 HD
ENDBRANCH  30  31
BRANCH  25  33
ATOM     33  O   UNL     1       0.671  -0.465  -1.174  0.00  0.00    -0.489 OA
BRANCH  33  35
ATOM     34  C   UNL     1      -0.019   1.526   0.010  0.00  0.00    +0.048 C 
ATOM     35  C   UNL     1       0.002  -0.004   0.002  0.00  0.00    +0.226 C 
ENDBRANCH  33  35
ENDBRANCH  25  33
ENDBRANCH   1  29
TORSDOF 6
