REMARK  Name = ZINC63159846
REMARK  11 active torsions:
REMARK  status: ('A' for Active; 'I' for Inactive)
REMARK    1  A    between atoms: C_1  and  C_2
REMARK    2  A    between atoms: C_3  and  C_32
REMARK    3  A    between atoms: C_4  and  C_31
REMARK    4  A    between atoms: C_7  and  C_8
REMARK    5  A    between atoms: N_10  and  C_11
REMARK    6  A    between atoms: C_11  and  C_12
REMARK    7  A    between atoms: C_12  and  C_14
REMARK    8  A    between atoms: C_12  and  C_22
REMARK    9  A    between atoms: C_17  and  O_20
REMARK   10  A    between atoms: O_20  and  C_21
REMARK   11  A    between atoms: C_32  and  C_34
REMARK                            x       y       z     vdW  Elec       q    Type
REMARK                         _______ _______ _______ _____ _____    ______ ____
ROOT
ATOM      1  C   UNL     1      -1.076  -2.365   5.621  0.00  0.00    +0.064 C 
ENDROOT
BRANCH   1   2
ATOM      2  C   UNL     1      -2.274  -3.161   5.174  0.00  0.00    -0.033 C 
ATOM      3  C   UNL     1      -2.279  -4.430   4.707  0.00  0.00    -0.000 A 
ATOM      4  C   UNL     1      -1.211  -5.411   4.483  0.00  0.00    +0.010 A 
ATOM      5  C   UNL     1      -1.532  -6.630   3.993  0.00  0.00    +0.001 A 
ATOM      6  C   UNL     1      -2.856  -6.979   3.694  0.00  0.00    +0.002 A 
ATOM      7  C   UNL     1      -3.891  -6.132   3.873  0.00  0.00    +0.026 A 
ATOM      8  C   UNL     1      -3.669  -4.823   4.383  0.00  0.00    +0.043 A 
ATOM      9  N   UNL     1      -4.492  -3.836   4.641  0.00  0.00    -0.380 N 
ATOM     10  C   UNL     1      -3.716  -2.705   5.163  0.00  0.00    +0.145 C 
ATOM     11  H   UNL     1      -5.453  -3.851   4.512  0.00  0.00    +0.160 HD
ENDBRANCH   1   2
BRANCH   1  12
ATOM     12  C   UNL     1      -1.243  -1.975   7.067  0.00  0.00    -0.038 A 
ATOM     13  C   UNL     1      -2.325  -1.206   7.454  0.00  0.00    +0.008 A 
ATOM     14  C   UNL     1      -2.480  -0.847   8.779  0.00  0.00    +0.046 A 
ATOM     15  C   UNL     1      -1.549  -1.259   9.722  0.00  0.00    +0.120 A 
ATOM     16  C   UNL     1      -0.464  -2.031   9.331  0.00  0.00    +0.046 A 
ATOM     17  C   UNL     1      -0.317  -2.391   8.006  0.00  0.00    +0.008 A 
BRANCH  15  18
ATOM     18  O   UNL     1      -1.699  -0.906  11.026  0.00  0.00    -0.495 OA
ATOM     19  C   UNL     1      -0.702  -1.366  11.941  0.00  0.00    +0.277 C 
ENDBRANCH  15  18
ENDBRANCH   1  12
BRANCH   1  20
ATOM     20  C   UNL     1      -0.953  -1.103   4.764  0.00  0.00    +0.117 C 
BRANCH  20  23
ATOM     21  C   UNL     1      -0.521  -0.528   2.436  0.00  0.00    +0.261 C 
ATOM     22  O   UNL     1      -0.620   0.647   2.738  0.00  0.00    -0.269 OA
ATOM     23  N   UNL     1      -0.671  -1.481   3.377  0.00  0.00    -0.309 N 
ATOM     24  H   UNL     1      -0.593  -2.417   3.135  0.00  0.00    +0.149 HD
BRANCH  21  31
ATOM     25  C   UNL     1      -0.130   1.459   0.065  0.00  0.00    +0.047 C 
ATOM     26  C   UNL     1      -0.067  -0.045   0.004  0.00  0.00    -0.010 A 
ATOM     27  C   UNL     1       0.188  -0.832  -1.145  0.00  0.00    +0.041 A 
ATOM     28  C   UNL     1       0.153  -2.158  -0.744  0.00  0.00    +0.024 A 
ATOM     29  N   UNL     1      -0.108  -2.194   0.571  0.00  0.00    -0.354 N 
ATOM     30  H   UNL     1      -0.187  -3.000   1.105  0.00  0.00    +0.166 HD
ATOM     31  C   UNL     1      -0.239  -0.907   1.045  0.00  0.00    +0.106 A 
ATOM     32  C   UNL     1       0.371  -3.355  -1.633  0.00  0.00    +0.064 C 
BRANCH  27  33
ATOM     33  C   UNL     1       0.442  -0.337  -2.502  0.00  0.00    +0.162 C 
ATOM     34  O   UNL     1      -0.484  -0.161  -3.266  0.00  0.00    -0.292 OA
ATOM     35  C   UNL     1       1.852  -0.048  -2.948  0.00  0.00    +0.091 C 
ENDBRANCH  27  33
ENDBRANCH  21  31
ENDBRANCH  20  23
ENDBRANCH   1  20
TORSDOF 7
