REMARK  Name = ZINC34686444
REMARK  12 active torsions:
REMARK  status: ('A' for Active; 'I' for Inactive)
REMARK    1  A    between atoms: C_1  and  C_2
REMARK    2  A    between atoms: C_2  and  C_3
REMARK    3  A    between atoms: C_3  and  C_5
REMARK    4  A    between atoms: C_3  and  O_13
REMARK    5  A    between atoms: N_7  and  C_8
REMARK    6  A    between atoms: C_8  and  C_9
REMARK    7  A    between atoms: C_9  and  N_10
REMARK    8  A    between atoms: N_10  and  C_11
REMARK    9  A    between atoms: N_10  and  C_12
REMARK   10  A    between atoms: O_13  and  C_14
REMARK   11  A    between atoms: C_20  and  C_32
REMARK   12  A    between atoms: C_25  and  C_27
REMARK                            x       y       z     vdW  Elec       q    Type
REMARK                         _______ _______ _______ _____ _____    ______ ____
ROOT
ATOM      1  C   UNL     1       2.412   1.138   1.643  0.00  0.00    +0.122 A 
ATOM      2  C   UNL     1       1.441   1.923   2.248  0.00  0.00    +0.046 A 
ATOM      3  C   UNL     1       1.764   3.185   2.699  0.00  0.00    +0.007 A 
ATOM      4  C   UNL     1       3.056   3.678   2.558  0.00  0.00    -0.040 A 
ATOM      5  C   UNL     1       4.023   2.895   1.967  0.00  0.00    -0.016 A 
ATOM      6  C   UNL     1       3.701   1.626   1.510  0.00  0.00    +0.051 A 
ATOM      7  C   UNL     1       5.450   3.357   1.809  0.00  0.00    +0.137 C 
ATOM      8  N   UNL     1       5.540   4.792   2.103  0.00  0.00    -0.290 N 
ATOM      9  C   UNL     1       4.824   5.284   3.292  0.00  0.00    +0.113 C 
ATOM     10  C   UNL     1       3.329   5.072   3.061  0.00  0.00    +0.054 C 
ATOM     11  C   UNL     1       6.250   5.625   1.317  0.00  0.00    +0.219 C 
ATOM     12  O   UNL     1       6.830   5.193   0.343  0.00  0.00    -0.275 OA
ENDROOT
BRANCH   7  13
ATOM     13  C   UNL     1       6.333   2.594   2.762  0.00  0.00    -0.022 A 
ATOM     14  C   UNL     1       7.437   1.913   2.286  0.00  0.00    +0.008 A 
ATOM     15  C   UNL     1       8.248   1.213   3.159  0.00  0.00    +0.038 A 
ATOM     16  C   UNL     1       7.953   1.194   4.512  0.00  0.00    +0.123 A 
ATOM     17  C   UNL     1       6.847   1.877   4.988  0.00  0.00    +0.038 A 
ATOM     18  C   UNL     1       6.041   2.580   4.113  0.00  0.00    +0.008 A 
ATOM     19  F   UNL     1       8.745   0.510   5.367  0.00  0.00    -0.205 F 
ENDBRANCH   7  13
BRANCH  11  20
ATOM     20  C   UNL     1       6.322   7.094   1.648  0.00  0.00    +0.075 C 
ATOM     21  C   UNL     1       4.916   7.722   1.574  0.00  0.00    +0.013 C 
ATOM     22  C   UNL     1       5.160   9.132   0.980  0.00  0.00    +0.001 C 
ATOM     23  C   UNL     1       6.275   8.874  -0.064  0.00  0.00    +0.001 C 
ATOM     24  C   UNL     1       7.187   7.826   0.607  0.00  0.00    +0.013 C 
ENDBRANCH  11  20
BRANCH   1  25
ATOM     25  O   UNL     1       2.101  -0.106   1.191  0.00  0.00    -0.480 OA
BRANCH  25  26
ATOM     26  C   UNL     1       0.736  -0.513   1.298  0.00  0.00    +0.258 C 
BRANCH  26  27
ATOM     27  C   UNL     1       0.673  -1.991   1.583  0.00  0.00    +0.254 C 
ATOM     28  O   UNL     1       1.691  -2.650   1.594  0.00  0.00    -0.272 OA
ATOM     29  N   UNL     1      -0.514  -2.581   1.825  0.00  0.00    -0.314 N 
ATOM     30  H   UNL     1      -1.329  -2.054   1.816  0.00  0.00    +0.149 HD
BRANCH  29  31
ATOM     31  C   UNL     1      -0.575  -4.019   2.102  0.00  0.00    +0.086 C 
BRANCH  31  32
ATOM     32  C   UNL     1      -2.029  -4.431   2.340  0.00  0.00    -0.061 C 
BRANCH  32  33
ATOM     33  N   UNL     1      -2.090  -5.872   2.618  0.00  0.00    +0.377 N 
ATOM     34  C   UNL     1      -3.468  -6.246   2.964  0.00  0.00    -0.097 C 
ATOM     35  C   UNL     1      -1.665  -6.619   1.426  0.00  0.00    -0.097 C 
ATOM     36  H   UNL     1      -1.478  -6.093   3.389  0.00  0.00    -0.083 HD
ENDBRANCH  32  33
ENDBRANCH  31  32
ENDBRANCH  29  31
ENDBRANCH  26  27
BRANCH  26  38
ATOM     37  C   UNL     1      -0.035   1.298  -0.241  0.00  0.00    +0.008 C 
ATOM     38  C   UNL     1       0.010  -0.215  -0.015  0.00  0.00    +0.051 C 
ENDBRANCH  26  38
ENDBRANCH  25  26
ENDBRANCH   1  25
TORSDOF 9
