REMARK  Name = ZINC62828823
REMARK  6 active torsions:
REMARK  status: ('A' for Active; 'I' for Inactive)
REMARK    1  A    between atoms: C_1  and  C_2
REMARK    2  A    between atoms: C_2  and  C_4
REMARK    3  A    between atoms: C_2  and  N_7
REMARK    4  A    between atoms: C_4  and  C_5
REMARK    5  A    between atoms: N_10  and  C_11
REMARK    6  A    between atoms: C_12  and  C_16
REMARK                            x       y       z     vdW  Elec       q    Type
REMARK                         _______ _______ _______ _____ _____    ______ ____
ROOT
ATOM      1  N   UNL     1       0.711  -0.489   1.189  0.00  0.00    -0.296 N 
ATOM      2  C   UNL     1       2.054  -0.600   1.174  0.00  0.00    +0.304 C 
ATOM      3  O   UNL     1       2.677  -0.297   0.175  0.00  0.00    -0.252 OA
ATOM      4  N   UNL     1       2.706  -1.046   2.266  0.00  0.00    -0.263 N 
ATOM      5  H   UNL     1       0.213  -0.731   1.986  0.00  0.00    +0.151 HD
ATOM      6  H   UNL     1       2.208  -1.288   3.062  0.00  0.00    +0.157 HD
ENDROOT
BRANCH   4   7
ATOM      7  C   UNL     1       4.085  -1.160   2.250  0.00  0.00    +0.087 A 
ATOM      8  C   UNL     1       4.919  -1.603   3.271  0.00  0.00    +0.092 A 
ATOM      9  C   UNL     1       6.337  -1.621   2.984  0.00  0.00    +0.024 A 
ATOM     10  C   UNL     1       6.691  -1.205   1.756  0.00  0.00    +0.048 A 
ATOM     11  S   UNL     1       5.136  -0.801   0.992  0.00  0.00    -0.081 S 
BRANCH   8  12
ATOM     12  C   UNL     1       4.406  -2.014   4.527  0.00  0.00    +0.389 C 
ATOM     13  O   UNL     1       5.170  -2.399   5.404  0.00  0.00    -0.241 OA
ATOM     14  O   UNL     1       3.200  -1.985   4.736  0.00  0.00    -0.241 OA
ENDBRANCH   8  12
ENDBRANCH   4   7
BRANCH   1  16
ATOM     15  C   UNL     1      -0.019   1.526   0.010  0.00  0.00    +0.029 C 
ATOM     16  C   UNL     1       0.002  -0.004   0.002  0.00  0.00    +0.085 C 
BRANCH  16  17
ATOM     17  C   UNL     1      -1.433  -0.534   0.013  0.00  0.00    +0.140 C 
BRANCH  17  18
ATOM     18  C   UNL     1      -1.416  -2.000  -0.116  0.00  0.00    +0.064 C 
ATOM     19  N   UNL     1      -1.403  -3.131  -0.216  0.00  0.00    -0.197 NA
ENDBRANCH  17  18
ENDBRANCH  16  17
ENDBRANCH   1  16
TORSDOF 5
