REMARK  Name = ZINC14460702
REMARK  5 active torsions:
REMARK  status: ('A' for Active; 'I' for Inactive)
REMARK    1  A    between atoms: C_1  and  C_2
REMARK    2  A    between atoms: C_2  and  N_3
REMARK    3  A    between atoms: N_3  and  C_4
REMARK    4  A    between atoms: C_10  and  C_12
REMARK    5  A    between atoms: C_25  and  C_28
REMARK                            x       y       z     vdW  Elec       q    Type
REMARK                         _______ _______ _______ _____ _____    ______ ____
ROOT
ATOM      1  C   UNL     1      -3.547   4.961   1.987  0.00  0.00    +0.038 A 
ATOM      2  C   UNL     1      -2.835   6.164   1.968  0.00  0.00    +0.015 A 
ATOM      3  C   UNL     1      -1.465   6.153   2.084  0.00  0.00    +0.024 A 
ATOM      4  C   UNL     1      -0.776   4.950   2.220  0.00  0.00    +0.031 A 
ATOM      5  C   UNL     1      -1.490   3.743   2.225  0.00  0.00    -0.019 A 
ATOM      6  C   UNL     1      -2.859   3.752   2.116  0.00  0.00    +0.019 A 
ATOM      7  C   UNL     1      -0.713   2.491   2.348  0.00  0.00    +0.049 C 
ATOM      8  C   UNL     1      -1.301   1.249   2.912  0.00  0.00    -0.023 C 
ATOM      9  C   UNL     1      -0.340   0.562   3.518  0.00  0.00    -0.030 C 
ATOM     10  C   UNL     1       0.985   1.322   3.424  0.00  0.00    +0.033 C 
ATOM     11  C   UNL     1       0.500   2.772   3.284  0.00  0.00    +0.029 C 
ATOM     12  C   UNL     1       1.404   3.735   2.536  0.00  0.00    +0.105 C 
ATOM     13  N   UNL     1       0.610   4.976   2.371  0.00  0.00    -0.336 N 
ATOM     14  H   UNL     1       1.071   5.830   2.383  0.00  0.00    +0.147 HD
ENDROOT
BRANCH  12  15
ATOM     15  C   UNL     1       2.657   3.998   3.331  0.00  0.00    -0.026 A 
ATOM     16  C   UNL     1       2.636   4.905   4.374  0.00  0.00    +0.005 A 
ATOM     17  C   UNL     1       3.783   5.143   5.106  0.00  0.00    +0.002 A 
ATOM     18  C   UNL     1       4.955   4.482   4.790  0.00  0.00    +0.020 A 
ATOM     19  C   UNL     1       4.978   3.578   3.743  0.00  0.00    +0.041 A 
ATOM     20  C   UNL     1       3.828   3.336   3.013  0.00  0.00    +0.025 A 
ATOM     21 CL   UNL     1       6.450   2.748   3.345  0.00  0.00    -0.084 Cl
ENDBRANCH  12  15
BRANCH   1  23
ATOM     22  N   UNL     1      -5.726   6.016   2.338  0.00  0.00    -0.268 N 
ATOM     23  C   UNL     1      -5.018   4.969   1.870  0.00  0.00    +0.251 C 
ATOM     24  O   UNL     1      -5.591   4.030   1.352  0.00  0.00    -0.270 OA
BRANCH  22  25
ATOM     25  C   UNL     1      -7.122   5.958   2.368  0.00  0.00    +0.037 A 
ATOM     26  C   UNL     1      -7.859   7.088   2.700  0.00  0.00    +0.023 A 
ATOM     27  C   UNL     1      -9.238   7.030   2.723  0.00  0.00    +0.002 A 
ATOM     28  C   UNL     1      -9.886   5.844   2.428  0.00  0.00    +0.000 A 
ATOM     29  C   UNL     1      -9.156   4.716   2.103  0.00  0.00    +0.002 A 
ATOM     30  C   UNL     1      -7.777   4.769   2.072  0.00  0.00    +0.023 A 
ENDBRANCH  22  25
BRANCH  22  32
ATOM     31  C   UNL     1      -5.040   8.280   1.715  0.00  0.00    +0.025 C 
ATOM     32  C   UNL     1      -5.031   7.215   2.814  0.00  0.00    +0.110 C 
ENDBRANCH  22  32
ENDBRANCH   1  23
TORSDOF 4
