REMARK  Name = ZINC13629864
REMARK  10 active torsions:
REMARK  status: ('A' for Active; 'I' for Inactive)
REMARK    1  A    between atoms: C_1  and  C_2
REMARK    2  A    between atoms: C_5  and  S_8
REMARK    3  A    between atoms: S_8  and  N_11
REMARK    4  A    between atoms: N_11  and  C_12
REMARK    5  A    between atoms: C_12  and  C_13
REMARK    6  A    between atoms: C_16  and  C_19
REMARK    7  A    between atoms: N_21  and  C_22
REMARK    8  A    between atoms: C_22  and  C_24
REMARK    9  A    between atoms: C_22  and  C_25
REMARK   10  A    between atoms: N_27  and  C_28
REMARK                            x       y       z     vdW  Elec       q    Type
REMARK                         _______ _______ _______ _____ _____    ______ ____
ROOT
ATOM      1  C   UNL     1       0.742  -0.511   1.242  0.00  0.00    +0.005 C 
ATOM      2  C   UNL     1       0.002  -0.004   0.002  0.00  0.00    +0.005 C 
ATOM      3  C   UNL     1      -0.019   1.526   0.010  0.00  0.00    +0.013 C 
ATOM      4  C   UNL     1       1.417   2.055  -0.000  0.00  0.00    +0.075 C 
ATOM      5  C   UNL     1       2.157   1.548   1.239  0.00  0.00    +0.013 C 
ATOM      6  C   UNL     1       2.178   0.019   1.231  0.00  0.00    +0.005 C 
ENDROOT
BRANCH   4   7
ATOM      7  C   UNL     1       2.122   1.569  -1.240  0.00  0.00    +0.217 C 
ATOM      8  O   UNL     1       1.535   0.868  -2.037  0.00  0.00    -0.275 OA
ATOM      9  N   UNL     1       3.406   1.914  -1.464  0.00  0.00    -0.304 N 
ATOM     10  H   UNL     1       3.876   2.474  -0.827  0.00  0.00    +0.149 HD
BRANCH   9  11
ATOM     11  C   UNL     1       4.091   1.441  -2.669  0.00  0.00    +0.156 C 
ATOM     12  C   UNL     1       4.663   0.045  -2.417  0.00  0.00    +0.038 C 
BRANCH  11  13
ATOM     13  C   UNL     1       5.212   2.388  -3.014  0.00  0.00    +0.233 C 
ATOM     14  O   UNL     1       5.418   3.362  -2.320  0.00  0.00    -0.274 OA
ATOM     15  N   UNL     1       5.986   2.153  -4.092  0.00  0.00    -0.309 N 
ATOM     16  H   UNL     1       5.821   1.374  -4.646  0.00  0.00    +0.149 HD
BRANCH  15  17
ATOM     17  C   UNL     1       7.075   3.074  -4.427  0.00  0.00    +0.095 C 
ATOM     18  C   UNL     1       6.535   4.225  -5.290  0.00  0.00    +0.046 C 
ATOM     19  C   UNL     1       7.711   5.017  -5.910  0.00  0.00    +0.168 C 
ATOM     20  S   UNL     1       9.035   3.745  -6.030  0.00  0.00    -0.029 S 
ATOM     21  O   UNL     1      10.124   4.133  -5.205  0.00  0.00    -0.174 OA
ATOM     22  O   UNL     1       9.266   3.447  -7.400  0.00  0.00    -0.174 OA
ATOM     23  C   UNL     1       8.164   2.324  -5.246  0.00  0.00    +0.188 C 
ENDBRANCH  15  17
ENDBRANCH  11  13
ENDBRANCH   9  11
ENDBRANCH   4   7
BRANCH   1  24
ATOM     24  C   UNL     1       0.763  -2.041   1.233  0.00  0.00    +0.109 C 
BRANCH  24  25
ATOM     25  N   UNL     1       1.365  -2.528   2.477  0.00  0.00    -0.190 NA
ATOM     26  H   UNL     1       1.867  -1.921   3.043  0.00  0.00    +0.148 HD
BRANCH  25  27
ATOM     27  S   UNL     1       1.189  -4.115   2.916  0.00  0.00    +0.058 S 
ATOM     28  O   UNL     1       1.898  -4.280   4.136  0.00  0.00    -0.153 OA
ATOM     29  O   UNL     1      -0.193  -4.420   2.791  0.00  0.00    -0.153 OA
BRANCH  27  34
ATOM     30  C   UNL     1       4.069  -7.439  -1.215  0.00  0.00    +0.044 C 
ATOM     31  C   UNL     1       3.350  -6.609  -0.183  0.00  0.00    -0.050 A 
ATOM     32  C   UNL     1       4.025  -6.160   0.936  0.00  0.00    +0.005 A 
ATOM     33  C   UNL     1       3.365  -5.399   1.883  0.00  0.00    +0.029 A 
ATOM     34  C   UNL     1       2.030  -5.085   1.709  0.00  0.00    +0.105 A 
ATOM     35  C   UNL     1       1.353  -5.538   0.592  0.00  0.00    +0.029 A 
ATOM     36  C   UNL     1       2.014  -6.296  -0.356  0.00  0.00    +0.005 A 
ENDBRANCH  27  34
ENDBRANCH  25  27
ENDBRANCH  24  25
ENDBRANCH   1  24
TORSDOF 8
