REMARK  Name = ZINC39324277
REMARK  10 active torsions:
REMARK  status: ('A' for Active; 'I' for Inactive)
REMARK    1  A    between atoms: C_1  and  C_2
REMARK    2  A    between atoms: C_2  and  C_3
REMARK    3  A    between atoms: C_2  and  C_4
REMARK    4  A    between atoms: C_11  and  N_29
REMARK    5  A    between atoms: C_12  and  C_27
REMARK    6  A    between atoms: C_13  and  C_15
REMARK    7  A    between atoms: C_17  and  N_24
REMARK    8  A    between atoms: C_18  and  O_22
REMARK    9  A    between atoms: C_19  and  O_21
REMARK   10  A    between atoms: O_22  and  C_23
REMARK                            x       y       z     vdW  Elec       q    Type
REMARK                         _______ _______ _______ _____ _____    ______ ____
ROOT
ATOM      1  C   UNL     1      -1.412  -0.526   0.013  0.00  0.00    +0.046 A 
ATOM      2  C   UNL     1      -1.974  -1.307  -0.921  0.00  0.00    +0.049 A 
ATOM      3  C   UNL     1      -3.306  -1.568  -0.530  0.00  0.00    +0.245 A 
ATOM      4  N   UNL     1      -3.522  -0.958   0.599  0.00  0.00    -0.135 NA
ATOM      5  N   UNL     1      -2.341  -0.295   0.969  0.00  0.00    -0.278 N 
ATOM      6  H   UNL     1      -2.214   0.237   1.770  0.00  0.00    +0.189 HD
ATOM      7  O   UNL     1      -4.139  -2.342  -1.278  0.00  0.00    -0.421 OA
ATOM      8  C   UNL     1      -3.585  -3.075  -2.264  0.00  0.00    +0.201 C 
ATOM      9  C   UNL     1      -2.330  -2.909  -2.729  0.00  0.00    +0.098 C 
ATOM     10  C   UNL     1      -1.386  -1.862  -2.193  0.00  0.00    +0.101 C 
ENDROOT
BRANCH  10  11
ATOM     11  C   UNL     1      -1.226  -0.756  -3.204  0.00  0.00    -0.029 A 
ATOM     12  C   UNL     1       0.028  -0.457  -3.705  0.00  0.00    +0.041 A 
ATOM     13  C   UNL     1       0.180   0.557  -4.633  0.00  0.00    +0.171 A 
ATOM     14  C   UNL     1      -0.924   1.274  -5.063  0.00  0.00    +0.192 A 
ATOM     15  C   UNL     1      -2.186   0.972  -4.559  0.00  0.00    +0.161 A 
ATOM     16  C   UNL     1      -2.333  -0.048  -3.633  0.00  0.00    +0.054 A 
BRANCH  13  17
ATOM     17  N   UNL     1       1.523   0.876  -5.167  0.00  0.00    +0.060 N 
ATOM     18  O   UNL     1       2.487   0.250  -4.791  0.00  0.00    -0.126 OA
ATOM     19  O   UNL     1       1.657   1.762  -5.978  0.00  0.00    -0.126 OA
ENDBRANCH  13  17
BRANCH  15  20
ATOM     20  O   UNL     1      -3.273   1.673  -4.979  0.00  0.00    -0.503 OA
ATOM     21  H   UNL     1      -3.710   1.296  -5.754  0.00  0.00    +0.292 HD
ENDBRANCH  15  20
BRANCH  14  22
ATOM     22  O   UNL     1      -0.776   2.272  -5.976  0.00  0.00    -0.489 OA
ATOM     23  C   UNL     1      -0.881   1.911  -7.354  0.00  0.00    +0.277 C 
ENDBRANCH  14  22
ENDBRANCH  10  11
BRANCH   1  25
ATOM     24  C   UNL     1      -0.019   1.526   0.010  0.00  0.00    +0.014 C 
ATOM     25  C   UNL     1       0.002  -0.004   0.002  0.00  0.00    +0.031 C 
ATOM     26  C   UNL     1       0.742  -0.511   1.242  0.00  0.00    +0.014 C 
ENDBRANCH   1  25
BRANCH   8  27
ATOM     27  N   UNL     1      -4.353  -4.061  -2.834  0.00  0.00    -0.328 N 
ATOM     28  H   UNL     1      -5.260  -4.209  -2.525  0.00  0.00    +0.145 HD
ATOM     29  H   UNL     1      -3.987  -4.608  -3.547  0.00  0.00    +0.145 HD
ENDBRANCH   8  27
BRANCH   9  30
ATOM     30  C   UNL     1      -1.872  -3.767  -3.780  0.00  0.00    +0.101 C 
ATOM     31  N   UNL     1      -1.508  -4.448  -4.614  0.00  0.00    -0.191 NA
ENDBRANCH   9  30
TORSDOF 7
