REMARK  Name = ZINC40876380
REMARK  7 active torsions:
REMARK  status: ('A' for Active; 'I' for Inactive)
REMARK    1  A    between atoms: C_1  and  C_2
REMARK    2  A    between atoms: C_2  and  C_3
REMARK    3  A    between atoms: C_3  and  C_4
REMARK    4  A    between atoms: C_6  and  C_9
REMARK    5  A    between atoms: C_12  and  N_16
REMARK    6  A    between atoms: C_20  and  C_23
REMARK    7  A    between atoms: C_28  and  N_31
REMARK                            x       y       z     vdW  Elec       q    Type
REMARK                         _______ _______ _______ _____ _____    ______ ____
ROOT
ATOM      1  N   UNL     1       4.474  -8.436  -0.922  0.00  0.00    -0.327 N 
ATOM      2  C   UNL     1       4.265  -9.004  -2.261  0.00  0.00    +0.105 C 
ATOM      3  C   UNL     1       4.048 -10.514  -2.128  0.00  0.00    +0.020 C 
ATOM      4  C   UNL     1       5.221 -11.128  -1.361  0.00  0.00    +0.016 C 
ATOM      5  C   UNL     1       5.287 -10.524   0.043  0.00  0.00    +0.092 C 
ATOM      6  C   UNL     1       5.522  -9.010  -0.068  0.00  0.00    +0.118 C 
ENDROOT
BRANCH   5   7
ATOM      7  C   UNL     1       6.423 -11.153   0.809  0.00  0.00    +0.220 C 
ATOM      8  O   UNL     1       7.361 -11.637   0.213  0.00  0.00    -0.275 OA
ATOM      9  N   UNL     1       6.394 -11.178   2.156  0.00  0.00    -0.301 N 
ATOM     10  C   UNL     1       5.217 -10.695   2.890  0.00  0.00    +0.106 C 
ATOM     11  C   UNL     1       5.668  -9.646   3.911  0.00  0.00    +0.004 C 
ATOM     12  C   UNL     1       6.761 -10.244   4.801  0.00  0.00    -0.066 C 
ATOM     13  C   UNL     1       7.966 -10.631   3.940  0.00  0.00    +0.004 C 
ATOM     14  C   UNL     1       7.539 -11.696   2.919  0.00  0.00    +0.106 C 
BRANCH  12  15
ATOM     15  N   UNL     1       7.173  -9.252   5.803  0.00  0.00    +0.382 N 
ATOM     16  C   UNL     1       8.227  -9.823   6.649  0.00  0.00    -0.078 C 
ATOM     17  C   UNL     1       8.717  -8.767   7.643  0.00  0.00    -0.019 C 
ATOM     18  C   UNL     1       7.545  -8.316   8.519  0.00  0.00    -0.004 C 
ATOM     19  C   UNL     1       6.421  -7.791   7.620  0.00  0.00    -0.019 C 
ATOM     20  C   UNL     1       6.017  -8.883   6.628  0.00  0.00    -0.078 C 
ATOM     21  H   UNL     1       7.527  -8.431   5.336  0.00  0.00    -0.081 HD
ENDBRANCH  12  15
ENDBRANCH   5   7
BRANCH   1  25
ATOM     22  C   UNL     1       2.150  -5.246   0.417  0.00  0.00    +0.025 A 
ATOM     23  C   UNL     1       3.340  -5.005  -0.268  0.00  0.00    +0.013 A 
ATOM     24  C   UNL     1       4.107  -6.061  -0.709  0.00  0.00    +0.027 A 
ATOM     25  C   UNL     1       3.696  -7.368  -0.473  0.00  0.00    +0.065 A 
ATOM     26  C   UNL     1       2.507  -7.612   0.210  0.00  0.00    +0.145 A 
ATOM     27  C   UNL     1       1.740  -6.557   0.658  0.00  0.00    +0.052 A 
ATOM     28  F   UNL     1       2.108  -8.882   0.438  0.00  0.00    -0.204 F 
BRANCH  22  31
ATOM     29  C   UNL     1       0.678  -2.072   1.261  0.00  0.00    +0.228 A 
ATOM     30  N   UNL     1       1.610  -2.806   0.723  0.00  0.00    -0.191 NA
ATOM     31  C   UNL     1       1.324  -4.110   0.893  0.00  0.00    +0.202 A 
ATOM     32  N   UNL     1       0.193  -4.209   1.548  0.00  0.00    -0.056 NA
ATOM     33  O   UNL     1      -0.241  -2.881   1.803  0.00  0.00    -0.338 OA
BRANCH  29  34
ATOM     34  C   UNL     1       0.644  -0.565   1.277  0.00  0.00    +0.098 C 
BRANCH  34  36
ATOM     35  C   UNL     1      -0.132   1.470   0.053  0.00  0.00    +0.004 C 
ATOM     36  C   UNL     1      -0.097  -0.059   0.037  0.00  0.00    +0.006 C 
ENDBRANCH  34  36
ENDBRANCH  29  34
ENDBRANCH  22  31
ENDBRANCH   1  25
TORSDOF 6
