REMARK  Name = ZINC58940091
REMARK  9 active torsions:
REMARK  status: ('A' for Active; 'I' for Inactive)
REMARK    1  A    between atoms: C_1  and  C_2
REMARK    2  A    between atoms: C_2  and  N_3
REMARK    3  A    between atoms: C_6  and  C_21
REMARK    4  A    between atoms: N_8  and  N_11
REMARK    5  A    between atoms: C_12  and  C_14
REMARK    6  A    between atoms: C_21  and  C_22
REMARK    7  A    between atoms: N_24  and  C_25
REMARK    8  A    between atoms: C_28  and  C_32
REMARK    9  A    between atoms: C_30  and  C_31
REMARK                            x       y       z     vdW  Elec       q    Type
REMARK                         _______ _______ _______ _____ _____    ______ ____
ROOT
ATOM      1  N   UNL     1      -1.375  -0.500   0.043  0.00  0.00    -0.251 N 
ATOM      2  C   UNL     1      -2.084  -0.765   1.157  0.00  0.00    +0.244 C 
ATOM      3  O   UNL     1      -1.720  -0.630   2.306  0.00  0.00    -0.273 OA
ATOM      4  C   UNL     1      -3.432  -1.265   0.677  0.00  0.00    +0.191 C 
ATOM      5  N   UNL     1      -3.315  -1.220  -0.791  0.00  0.00    -0.219 N 
ATOM      6  C   UNL     1      -2.082  -0.756  -1.064  0.00  0.00    +0.159 C 
ATOM      7  S   UNL     1      -1.482  -0.524  -2.651  0.00  0.00    -0.017 S 
ENDROOT
BRANCH   5   8
ATOM      8  N   UNL     1      -4.297  -1.585  -1.721  0.00  0.00    -0.228 N 
ATOM      9  C   UNL     1      -4.975  -0.633  -2.393  0.00  0.00    +0.260 C 
ATOM     10  O   UNL     1      -4.734   0.541  -2.192  0.00  0.00    -0.269 OA
ATOM     11  H   UNL     1      -4.489  -2.522  -1.881  0.00  0.00    +0.173 HD
BRANCH   9  12
ATOM     12  C   UNL     1      -6.011  -1.018  -3.374  0.00  0.00    +0.038 A 
ATOM     13  C   UNL     1      -6.295  -2.366  -3.602  0.00  0.00    +0.014 A 
ATOM     14  C   UNL     1      -7.263  -2.718  -4.519  0.00  0.00    +0.016 A 
ATOM     15  C   UNL     1      -7.953  -1.739  -5.213  0.00  0.00    +0.018 A 
ATOM     16  C   UNL     1      -7.677  -0.400  -4.990  0.00  0.00    +0.016 A 
ATOM     17  C   UNL     1      -6.715  -0.035  -4.072  0.00  0.00    +0.014 A 
ATOM     18 BR   UNL     1      -9.278  -2.231  -6.469  0.00  0.00    -0.050 Br
ENDBRANCH   9  12
ENDBRANCH   5   8
BRANCH   1  20
ATOM     19  C   UNL     1      -0.027   1.540   0.050  0.00  0.00    +0.025 C 
ATOM     20  C   UNL     1      -0.002   0.011   0.042  0.00  0.00    +0.112 C 
ENDBRANCH   1  20
BRANCH   4  21
ATOM     21  C   UNL     1      -3.677  -2.697   1.157  0.00  0.00    +0.129 C 
BRANCH  21  22
ATOM     22  C   UNL     1      -5.057  -3.137   0.740  0.00  0.00    +0.220 C 
ATOM     23  O   UNL     1      -5.774  -2.380   0.120  0.00  0.00    -0.275 OA
ATOM     24  N   UNL     1      -5.495  -4.372   1.056  0.00  0.00    -0.285 N 
ATOM     25  H   UNL     1      -4.895  -5.005   1.481  0.00  0.00    +0.155 HD
BRANCH  24  26
ATOM     26  C   UNL     1      -6.814  -4.741   0.772  0.00  0.00    +0.036 A 
ATOM     27  C   UNL     1      -7.800  -3.769   0.661  0.00  0.00    +0.024 A 
ATOM     28  C   UNL     1      -9.101  -4.136   0.380  0.00  0.00    +0.005 A 
ATOM     29  C   UNL     1      -9.423  -5.470   0.210  0.00  0.00    -0.050 A 
ATOM     30  C   UNL     1      -8.444  -6.440   0.320  0.00  0.00    +0.008 A 
ATOM     31  C   UNL     1      -7.140  -6.079   0.594  0.00  0.00    -0.029 A 
ATOM     32  C   UNL     1      -6.072  -7.136   0.707  0.00  0.00    +0.045 C 
ATOM     33  C   UNL     1     -10.845  -5.867  -0.096  0.00  0.00    +0.044 C 
ENDBRANCH  24  26
ENDBRANCH  21  22
ENDBRANCH   4  21
TORSDOF 6
