REMARK  Name = ZINC00071768
REMARK  3 active torsions:
REMARK  status: ('A' for Active; 'I' for Inactive)
REMARK    1  A    between atoms: C_1  and  C_2
REMARK    2  A    between atoms: C_3  and  C_19
REMARK    3  A    between atoms: C_4  and  C_10
REMARK                            x       y       z     vdW  Elec       q    Type
REMARK                         _______ _______ _______ _____ _____    ______ ____
ROOT
ATOM      1  C   UNL     1       5.711   2.509   3.139  0.00  0.00    +0.061 C 
ATOM      2  C   UNL     1       5.283   2.101   1.753  0.00  0.00    +0.019 C 
ATOM      3  C   UNL     1       4.035   2.392   1.332  0.00  0.00    +0.055 C 
ATOM      4  C   UNL     1       3.645   1.963  -0.068  0.00  0.00    +0.142 C 
ATOM      5  N   UNL     1       4.669   1.260  -0.859  0.00  0.00    -0.288 N 
ATOM      6  C   UNL     1       5.875   1.042  -0.300  0.00  0.00    +0.304 C 
ATOM      7  O   UNL     1       6.727   0.463  -0.946  0.00  0.00    -0.252 OA
ATOM      8  N   UNL     1       6.166   1.443   0.944  0.00  0.00    -0.273 N 
ATOM      9  H   UNL     1       4.479   0.960  -1.762  0.00  0.00    +0.151 HD
ATOM     10  H   UNL     1       7.053   1.256   1.289  0.00  0.00    +0.156 HD
ENDROOT
BRANCH   4  11
ATOM     11  C   UNL     1       2.441   1.063   0.039  0.00  0.00    -0.019 A 
ATOM     12  C   UNL     1       2.595  -0.249   0.445  0.00  0.00    +0.009 A 
ATOM     13  C   UNL     1       1.494  -1.078   0.546  0.00  0.00    +0.050 A 
ATOM     14  C   UNL     1       0.232  -0.595   0.240  0.00  0.00    +0.166 A 
ATOM     15  C   UNL     1       0.077   0.727  -0.168  0.00  0.00    +0.167 A 
ATOM     16  C   UNL     1       1.185   1.552  -0.267  0.00  0.00    +0.055 A 
ATOM     17  O   UNL     1      -1.247   0.956  -0.413  0.00  0.00    -0.453 OA
ATOM     18  C   UNL     1      -1.847  -0.345  -0.535  0.00  0.00    +0.466 C 
ATOM     19  O   UNL     1      -0.995  -1.193   0.258  0.00  0.00    -0.453 OA
ENDBRANCH   4  11
BRANCH   3  20
ATOM     20  C   UNL     1       3.119   3.074   2.171  0.00  0.00    +0.241 C 
ATOM     21  O   UNL     1       2.915   4.263   2.009  0.00  0.00    -0.271 OA
ATOM     22  N   UNL     1       2.474   2.407   3.148  0.00  0.00    -0.326 N 
ATOM     23  H   UNL     1       2.689   1.478   3.324  0.00  0.00    +0.145 HD
ATOM     24  H   UNL     1       1.794   2.855   3.674  0.00  0.00    +0.145 HD
ENDBRANCH   3  20
TORSDOF 2
