REMARK  Name = ZINC35926752
REMARK  6 active torsions:
REMARK  status: ('A' for Active; 'I' for Inactive)
REMARK    1  A    between atoms: C_1  and  C_2
REMARK    2  A    between atoms: C_5  and  N_8
REMARK    3  A    between atoms: N_11  and  C_14
REMARK    4  A    between atoms: C_14  and  C_15
REMARK    5  A    between atoms: C_29  and  C_31
REMARK    6  A    between atoms: C_31  and  C_32
REMARK                            x       y       z     vdW  Elec       q    Type
REMARK                         _______ _______ _______ _____ _____    ______ ____
ROOT
ATOM      1  C   UNL     1      -1.493  -8.823   1.260  0.00  0.00    +0.034 A 
ATOM      2  C   UNL     1      -2.319  -8.926   2.341  0.00  0.00    +0.091 A 
ATOM      3  C   UNL     1      -1.956  -9.784   3.395  0.00  0.00    +0.253 A 
ATOM      4  O   UNL     1      -2.671  -9.900   4.377  0.00  0.00    -0.268 OA
ATOM      5  N   UNL     1      -0.801 -10.477   3.299  0.00  0.00    -0.295 N 
ATOM      6  H   UNL     1      -0.532 -11.074   4.014  0.00  0.00    +0.172 HD
ATOM      7  C   UNL     1      -0.018 -10.334   2.196  0.00  0.00    +0.198 A 
ATOM      8  N   UNL     1      -0.367  -9.532   1.211  0.00  0.00    -0.223 NA
ATOM      9  N   UNL     1       1.152 -11.040   2.107  0.00  0.00    -0.298 N 
ATOM     10  C   UNL     1       1.504 -12.037   3.127  0.00  0.00    +0.127 C 
ATOM     11  C   UNL     1       1.767 -13.378   2.431  0.00  0.00    +0.127 C 
ATOM     12  N   UNL     1       2.693 -13.153   1.312  0.00  0.00    -0.298 N 
ATOM     13  C   UNL     1       2.341 -12.156   0.292  0.00  0.00    +0.127 C 
ATOM     14  C   UNL     1       2.075 -10.819   0.985  0.00  0.00    +0.127 C 
ATOM     15  C   UNL     1       3.844 -13.848   1.224  0.00  0.00    +0.220 C 
ATOM     16  O   UNL     1       4.124 -14.668   2.072  0.00  0.00    -0.275 OA
ENDROOT
BRANCH   1  17
ATOM     17  C   UNL     1      -1.859  -7.911   0.117  0.00  0.00    -0.022 C 
BRANCH  17  21
ATOM     18  N   UNL     1       0.041  -4.188  -0.079  0.00  0.00    -0.333 N 
ATOM     19  C   UNL     1      -0.066  -4.951  -1.333  0.00  0.00    +0.086 C 
ATOM     20  C   UNL     1      -1.160  -6.010  -1.165  0.00  0.00    -0.059 C 
ATOM     21  N   UNL     1      -0.871  -6.828   0.020  0.00  0.00    +0.385 N 
ATOM     22  C   UNL     1      -0.936  -5.998   1.229  0.00  0.00    -0.059 C 
ATOM     23  C   UNL     1       0.175  -4.938   1.179  0.00  0.00    +0.086 C 
ATOM     24  H   UNL     1       0.052  -7.226  -0.065  0.00  0.00    -0.081 HD
BRANCH  18  29
ATOM     25  C   UNL     1      -0.037   1.482  -0.101  0.00  0.00    +0.044 C 
ATOM     26  C   UNL     1      -0.016  -0.025  -0.095  0.00  0.00    -0.050 A 
ATOM     27  C   UNL     1      -0.008  -0.710   1.106  0.00  0.00    +0.005 A 
ATOM     28  C   UNL     1       0.011  -2.091   1.115  0.00  0.00    +0.023 A 
ATOM     29  C   UNL     1       0.021  -2.792  -0.084  0.00  0.00    +0.030 A 
ATOM     30  C   UNL     1       0.013  -2.100  -1.289  0.00  0.00    +0.023 A 
ATOM     31  C   UNL     1      -0.011  -0.720  -1.291  0.00  0.00    +0.005 A 
ENDBRANCH  18  29
ENDBRANCH  17  21
ENDBRANCH   1  17
BRANCH  15  32
ATOM     32  C   UNL     1       4.784 -13.606   0.071  0.00  0.00    +0.138 C 
BRANCH  32  33
ATOM     33  C   UNL     1       5.987 -14.504   0.206  0.00  0.00    -0.001 A 
ATOM     34  C   UNL     1       6.178 -15.755  -0.279  0.00  0.00    +0.011 A 
ATOM     35  C   UNL     1       7.377 -16.395  -0.029  0.00  0.00    +0.008 A 
ATOM     36  C   UNL     1       8.327 -15.753   0.695  0.00  0.00    +0.045 A 
ATOM     37  S   UNL     1       7.534 -14.191   1.042  0.00  0.00    -0.101 S 
ENDBRANCH  32  33
ENDBRANCH  15  32
TORSDOF 5
