REMARK  Name = ZINC29401120
REMARK  6 active torsions:
REMARK  status: ('A' for Active; 'I' for Inactive)
REMARK    1  A    between atoms: N_9  and  C_10
REMARK    2  A    between atoms: N_13  and  C_16
REMARK    3  A    between atoms: C_16  and  C_17
REMARK    4  A    between atoms: N_19  and  C_20
REMARK    5  A    between atoms: C_30  and  C_32
REMARK    6  A    between atoms: C_32  and  C_33
REMARK                            x       y       z     vdW  Elec       q    Type
REMARK                         _______ _______ _______ _____ _____    ______ ____
ROOT
ATOM      1  C   UNL     1       7.006   1.540  -0.886  0.00  0.00    +0.197 C 
ATOM      2  O   UNL     1       6.902   0.671  -1.725  0.00  0.00    -0.278 OA
ATOM      3  N   UNL     1       5.927   1.922  -0.173  0.00  0.00    -0.313 N 
ATOM      4  H   UNL     1       6.022   2.711   0.588  0.00  0.00    +0.149 HD
ENDROOT
BRANCH   3   5
ATOM      5  C   UNL     1       4.629   1.288  -0.413  0.00  0.00    +0.081 C 
ATOM      6  C   UNL     1       4.516   0.010   0.427  0.00  0.00    +0.027 C 
ATOM      7  C   UNL     1       3.268  -0.751  -0.019  0.00  0.00    +0.037 C 
ATOM      8  C   UNL     1       2.067   0.159  -0.027  0.00  0.00    -0.041 A 
ATOM      9  C   UNL     1       0.810  -0.431  -0.043  0.00  0.00    +0.042 A 
ATOM     10  C   UNL     1      -0.330   0.348  -0.065  0.00  0.00    +0.124 A 
ATOM     11  C   UNL     1      -0.218   1.728  -0.069  0.00  0.00    +0.038 A 
ATOM     12  C   UNL     1       1.030   2.314  -0.050  0.00  0.00    +0.007 A 
ATOM     13  C   UNL     1       2.177   1.531  -0.026  0.00  0.00    -0.039 A 
ATOM     14  C   UNL     1       3.507   2.238   0.001  0.00  0.00    +0.044 C 
ATOM     15  F   UNL     1      -1.549  -0.234  -0.081  0.00  0.00    -0.205 F 
BRANCH  14  16
ATOM     16  C   UNL     1       3.469   3.424  -0.965  0.00  0.00    +0.046 C 
BRANCH  16  17
ATOM     17  C   UNL     1       3.322   2.917  -2.376  0.00  0.00    -0.029 A 
ATOM     18  C   UNL     1       4.444   2.649  -3.146  0.00  0.00    +0.006 A 
ATOM     19  C   UNL     1       4.261   2.180  -4.438  0.00  0.00    +0.020 A 
ATOM     20  C   UNL     1       2.976   2.007  -4.916  0.00  0.00    +0.111 A 
ATOM     21  N   UNL     1       1.932   2.278  -4.157  0.00  0.00    -0.263 NA
ATOM     22  C   UNL     1       2.068   2.720  -2.922  0.00  0.00    +0.114 A 
ENDBRANCH  16  17
ENDBRANCH  14  16
ENDBRANCH   3   5
BRANCH   1  23
ATOM     23  C   UNL     1       8.341   2.193  -0.639  0.00  0.00    +0.019 C 
BRANCH  23  27
ATOM     24  C   UNL     1      11.843   0.343  -2.251  0.00  0.00    +0.089 C 
ATOM     25  C   UNL     1      11.569   1.821  -2.542  0.00  0.00    +0.006 C 
ATOM     26  C   UNL     1      10.599   2.372  -1.494  0.00  0.00    -0.076 C 
ATOM     27  N   UNL     1       9.347   1.606  -1.535  0.00  0.00    +0.386 N 
ATOM     28  C   UNL     1       9.578   0.192  -1.211  0.00  0.00    -0.076 C 
ATOM     29  C   UNL     1      10.517  -0.423  -2.251  0.00  0.00    +0.006 C 
ATOM     30  H   UNL     1       8.957   1.656  -2.562  0.00  0.00    -0.081 HD
BRANCH  24  39
ATOM     31  C   UNL     1      16.465  -1.954  -3.354  0.00  0.00    +0.002 A 
ATOM     32  C   UNL     1      16.002  -1.575  -2.102  0.00  0.00    +0.002 A 
ATOM     33  C   UNL     1      14.765  -0.981  -1.965  0.00  0.00    +0.028 A 
ATOM     34  C   UNL     1      13.979  -0.756  -3.085  0.00  0.00    +0.070 A 
ATOM     35  C   UNL     1      14.440  -1.144  -4.354  0.00  0.00    +0.067 A 
ATOM     36  C   UNL     1      15.696  -1.744  -4.476  0.00  0.00    +0.028 A 
ATOM     37  N   UNL     1      13.473  -0.811  -5.249  0.00  0.00    -0.306 N 
ATOM     38  C   UNL     1      12.466  -0.260  -4.622  0.00  0.00    +0.328 A 
ATOM     39  N   UNL     1      12.725  -0.204  -3.284  0.00  0.00    -0.289 N 
ATOM     40  O   UNL     1      11.335   0.190  -5.214  0.00  0.00    -0.247 OA
ATOM     41  H   UNL     1      13.618  -1.019  -6.319  0.00  0.00    +0.170 HD
ENDBRANCH  24  39
ENDBRANCH  23  27
ENDBRANCH   1  23
TORSDOF 6
