REMARK  Name = ZINC36013881
REMARK  10 active torsions:
REMARK  status: ('A' for Active; 'I' for Inactive)
REMARK    1  A    between atoms: C_1  and  C_2
REMARK    2  A    between atoms: C_2  and  N_3
REMARK    3  A    between atoms: C_4  and  C_23
REMARK    4  A    between atoms: C_5  and  C_18
REMARK    5  A    between atoms: C_6  and  C_11
REMARK    6  A    between atoms: C_18  and  O_20
REMARK    7  A    between atoms: O_20  and  C_21
REMARK    8  A    between atoms: C_21  and  C_22
REMARK    9  A    between atoms: C_23  and  N_24
REMARK   10  A    between atoms: C_31  and  C_33
REMARK                            x       y       z     vdW  Elec       q    Type
REMARK                         _______ _______ _______ _____ _____    ______ ____
ROOT
ATOM      1  N   UNL     1      -1.751  -0.510   0.033  0.00  0.00    -0.261 N 
ATOM      2  C   UNL     1      -2.124  -0.897   1.288  0.00  0.00    +0.010 C 
ATOM      3  C   UNL     1      -3.240  -1.632   1.488  0.00  0.00    +0.076 C 
ATOM      4  C   UNL     1      -4.062  -2.011   0.273  0.00  0.00    +0.143 C 
ATOM      5  N   UNL     1      -3.574  -1.544  -1.035  0.00  0.00    -0.288 N 
ATOM      6  C   UNL     1      -2.442  -0.812  -1.074  0.00  0.00    +0.307 C 
ATOM      7  O   UNL     1      -2.033  -0.419  -2.148  0.00  0.00    -0.252 OA
ATOM      8  H   UNL     1      -4.057  -1.755  -1.849  0.00  0.00    +0.151 HD
ENDROOT
BRANCH   4   9
ATOM      9  C   UNL     1      -4.152  -3.515   0.224  0.00  0.00    -0.022 A 
ATOM     10  C   UNL     1      -3.095  -4.255  -0.272  0.00  0.00    +0.007 A 
ATOM     11  C   UNL     1      -3.178  -5.634  -0.317  0.00  0.00    +0.020 A 
ATOM     12  C   UNL     1      -4.318  -6.273   0.135  0.00  0.00    +0.041 A 
ATOM     13  C   UNL     1      -5.376  -5.532   0.632  0.00  0.00    +0.020 A 
ATOM     14  C   UNL     1      -5.290  -4.154   0.681  0.00  0.00    +0.007 A 
ATOM     15 CL   UNL     1      -4.423  -8.005   0.078  0.00  0.00    -0.084 Cl
ENDBRANCH   4   9
BRANCH   1  17
ATOM     16  C   UNL     1      -0.872   1.772   0.012  0.00  0.00    +0.025 C 
ATOM     17  C   UNL     1      -0.530   0.286  -0.111  0.00  0.00    +0.111 C 
ENDBRANCH   1  17
BRANCH   3  18
ATOM     18  C   UNL     1      -3.627  -2.035   2.788  0.00  0.00    +0.339 C 
ATOM     19  O   UNL     1      -2.952  -1.716   3.749  0.00  0.00    -0.245 OA
BRANCH  18  20
ATOM     20  O   UNL     1      -4.744  -2.771   2.961  0.00  0.00    -0.462 OA
BRANCH  20  21
ATOM     21  C   UNL     1      -5.074  -3.143   4.301  0.00  0.00    +0.229 C 
ATOM     22  C   UNL     1      -6.363  -3.968   4.298  0.00  0.00    +0.048 C 
ENDBRANCH  20  21
ENDBRANCH  18  20
ENDBRANCH   3  18
BRANCH   2  23
ATOM     23  C   UNL     1      -1.278  -0.498   2.469  0.00  0.00    -0.026 C 
BRANCH  23  24
ATOM     24  N   UNL     1      -0.425  -1.628   2.865  0.00  0.00    +0.384 N 
ATOM     25  C   UNL     1       0.154  -1.332   4.173  0.00  0.00    -0.077 C 
ATOM     26  C   UNL     1       0.402  -2.627   4.913  0.00  0.00    +0.000 C 
ATOM     27  C   UNL     1       1.847  -3.094   4.660  0.00  0.00    +0.106 C 
ATOM     28  N   UNL     1       2.241  -2.863   3.256  0.00  0.00    -0.303 N 
ATOM     29  C   UNL     1       1.347  -3.124   2.146  0.00  0.00    +0.089 C 
ATOM     30  C   UNL     1       0.514  -1.859   1.835  0.00  0.00    -0.059 C 
ATOM     31  C   UNL     1       3.477  -2.391   2.997  0.00  0.00    +0.219 C 
ATOM     32  O   UNL     1       3.823  -2.194   1.851  0.00  0.00    -0.275 OA
ATOM     33  H   UNL     1      -1.007  -2.447   2.955  0.00  0.00    -0.081 HD
BRANCH  31  34
ATOM     34  C   UNL     1       4.429  -2.110   4.131  0.00  0.00    +0.075 C 
ATOM     35  C   UNL     1       4.782  -0.648   4.410  0.00  0.00    +0.013 C 
ATOM     36  C   UNL     1       5.817  -1.577   3.772  0.00  0.00    +0.013 C 
ENDBRANCH  31  34
ENDBRANCH  23  24
ENDBRANCH   2  23
TORSDOF 8
