REMARK  Name = ZINC22159985
REMARK  3 active torsions:
REMARK  status: ('A' for Active; 'I' for Inactive)
REMARK    1  A    between atoms: C_2  and  N_17
REMARK    2  A    between atoms: C_5  and  C_6
REMARK    3  A    between atoms: CA_12  and  C_14
REMARK                            x       y       z     vdW  Elec       q    Type
REMARK                         _______ _______ _______ _____ _____    ______ ____
ROOT
ATOM      1  C   UNK A   1      -1.169  -0.887   0.009  0.00  0.00    +0.266 C 
ATOM      2  O   UNK A   1      -2.289  -0.412   0.022  0.00  0.00    -0.268 OA
ATOM      3  N   PRO A   2      -1.005  -2.225   0.000  0.00  0.00    -0.283 N 
ATOM      4  CD  PRO A   2       0.289  -2.931  -0.010  0.00  0.00    +0.109 C 
ATOM      5  CG  PRO A   2      -0.021  -4.317  -0.628  0.00  0.00    +0.021 C 
ATOM      6  CB  PRO A   2      -1.425  -4.615  -0.038  0.00  0.00    +0.035 C 
ATOM      7  CA  PRO A   2      -2.086  -3.221   0.005  0.00  0.00    +0.189 C 
ENDROOT
BRANCH   1  12
ATOM      8  C   UNK A   1      -0.017   1.375   0.010  0.00  0.00    +0.067 A 
ATOM      9  C   UNK A   1       1.314   1.804  -0.001  0.00  0.00    +0.146 A 
ATOM     10  C   UNK A   1       2.105   0.704  -0.014  0.00  0.00    +0.144 A 
ATOM     11  N   UNK A   1       1.320  -0.401  -0.013  0.00  0.00    -0.248 NA
ATOM     12  C   UNK A   1       0.002  -0.004   0.002  0.00  0.00    +0.128 A 
BRANCH   9  13
ATOM     13  N   UNK A   1       1.777   3.209   0.002  0.00  0.00    +0.058 N 
ATOM     14  O   UNK A   1       0.971   4.111   0.014  0.00  0.00    -0.126 OA
ATOM     15  O   UNK A   1       2.960   3.457  -0.008  0.00  0.00    -0.126 OA
ENDBRANCH   9  13
ENDBRANCH   1  12
BRANCH   7  16
ATOM     16  C   PRO A   2      -2.907  -3.079   1.261  0.00  0.00    +0.376 C 
ATOM     17  O   PRO A   2      -2.638  -2.208   2.071  0.00  0.00    -0.244 OA
ATOM     18  OXT PRO A   2      -3.841  -3.836   1.468  0.00  0.00    -0.244 OA
ENDBRANCH   7  16
TORSDOF 3
