REMARK  Name = ZINC58045552
REMARK  10 active torsions:
REMARK  status: ('A' for Active; 'I' for Inactive)
REMARK    1  A    between atoms: C_1  and  C_2
REMARK    2  A    between atoms: C_2  and  C_4
REMARK    3  A    between atoms: C_2  and  N_13
REMARK    4  A    between atoms: C_8  and  N_10
REMARK    5  A    between atoms: N_13  and  C_14
REMARK    6  A    between atoms: N_17  and  C_18
REMARK    7  A    between atoms: C_23  and  C_24
REMARK    8  A    between atoms: C_24  and  N_25
REMARK    9  A    between atoms: N_25  and  C_26
REMARK   10  A    between atoms: N_25  and  C_27
REMARK                            x       y       z     vdW  Elec       q    Type
REMARK                         _______ _______ _______ _____ _____    ______ ____
ROOT
ATOM      1  N   UNL     1       0.496  -0.932   1.223  0.00  0.00    -0.282 N 
ATOM      2  C   UNL     1       0.389  -0.204   2.490  0.00  0.00    +0.134 C 
ATOM      3  C   UNL     1       1.671  -1.485   0.861  0.00  0.00    +0.307 C 
ATOM      4  O   UNL     1       1.760  -2.089  -0.191  0.00  0.00    -0.252 OA
ATOM      5  N   UNL     1       2.747  -1.369   1.664  0.00  0.00    -0.269 N 
ATOM      6  H   UNL     1       2.696  -0.827   2.467  0.00  0.00    +0.156 HD
ENDROOT
BRANCH   5   7
ATOM      7  C   UNL     1       3.937  -2.029   1.340  0.00  0.00    +0.036 A 
ATOM      8  C   UNL     1       4.302  -2.192   0.010  0.00  0.00    +0.023 A 
ATOM      9  C   UNL     1       5.478  -2.844  -0.307  0.00  0.00    +0.002 A 
ATOM     10  C   UNL     1       6.291  -3.335   0.699  0.00  0.00    +0.000 A 
ATOM     11  C   UNL     1       5.930  -3.174   2.023  0.00  0.00    +0.003 A 
ATOM     12  C   UNL     1       4.758  -2.518   2.347  0.00  0.00    -0.043 A 
BRANCH  12  13
ATOM     13  C   UNL     1       4.369  -2.337   3.792  0.00  0.00    -0.041 C 
BRANCH  13  14
ATOM     14  N   UNL     1       3.374  -3.353   4.161  0.00  0.00    +0.382 N 
ATOM     15  C   UNL     1       3.986  -4.687   4.087  0.00  0.00    -0.095 C 
ATOM     16  H   UNL     1       2.593  -3.306   3.525  0.00  0.00    -0.081 HD
BRANCH  14  17
ATOM     17  C   UNL     1       2.906  -3.105   5.531  0.00  0.00    -0.069 C 
ATOM     18  C   UNL     1       1.870  -4.163   5.916  0.00  0.00    -0.015 C 
ATOM     19  C   UNL     1       1.383  -3.904   7.343  0.00  0.00    -0.002 C 
ATOM     20  C   UNL     1       0.746  -2.515   7.420  0.00  0.00    -0.000 C 
ATOM     21  C   UNL     1       1.782  -1.457   7.036  0.00  0.00    -0.002 C 
ATOM     22  C   UNL     1       2.269  -1.716   5.609  0.00  0.00    -0.015 C 
ENDBRANCH  14  17
ENDBRANCH  13  14
ENDBRANCH  12  13
ENDBRANCH   5   7
BRANCH   1  24
ATOM     23  C   UNL     1      -1.236   0.332   0.046  0.00  0.00    +0.033 C 
ATOM     24  C   UNL     1      -0.673  -1.058   0.349  0.00  0.00    +0.104 C 
BRANCH  24  25
ATOM     25  C   UNL     1      -1.726  -1.888   1.037  0.00  0.00    -0.025 A 
ATOM     26  C   UNL     1      -2.223  -1.494   2.266  0.00  0.00    +0.005 A 
ATOM     27  C   UNL     1      -3.189  -2.255   2.897  0.00  0.00    +0.003 A 
ATOM     28  C   UNL     1      -3.659  -3.410   2.298  0.00  0.00    +0.033 A 
ATOM     29  C   UNL     1      -3.164  -3.802   1.069  0.00  0.00    +0.127 A 
ATOM     30  C   UNL     1      -2.200  -3.039   0.436  0.00  0.00    +0.038 A 
BRANCH  29  31
ATOM     31  N   UNL     1      -3.667  -5.038   0.429  0.00  0.00    +0.056 N 
ATOM     32  O   UNL     1      -4.511  -5.705   0.981  0.00  0.00    -0.126 OA
ATOM     33  O   UNL     1      -3.233  -5.382  -0.646  0.00  0.00    -0.126 OA
ENDBRANCH  29  31
ENDBRANCH  24  25
ENDBRANCH   1  24
TORSDOF 7
