REMARK  Name = ZINC64040811
REMARK  6 active torsions:
REMARK  status: ('A' for Active; 'I' for Inactive)
REMARK    1  A    between atoms: C_1  and  C_2
REMARK    2  A    between atoms: C_5  and  C_36
REMARK    3  A    between atoms: C_15  and  C_18
REMARK    4  A    between atoms: C_24  and  C_27
REMARK    5  A    between atoms: C_36  and  C_37
REMARK    6  A    between atoms: C_36  and  C_38
REMARK                            x       y       z     vdW  Elec       q    Type
REMARK                         _______ _______ _______ _____ _____    ______ ____
ROOT
ATOM      1  C   UNL     1      -0.063   1.505   0.031  0.00  0.00    +0.066 C 
ATOM      2  C   UNL     1      -0.028  -0.002   0.016  0.00  0.00    +0.051 A 
ATOM      3  C   UNL     1      -0.016  -0.710  -1.200  0.00  0.00    +0.022 A 
ATOM      4  C   UNL     1      -0.034  -0.057  -2.441  0.00  0.00    +0.015 A 
ATOM      5  C   UNL     1      -0.020  -0.794  -3.587  0.00  0.00    -0.044 A 
ATOM      6  C   UNL     1       0.012  -2.186  -3.544  0.00  0.00    +0.006 A 
ATOM      7  C   UNL     1       0.030  -2.852  -2.355  0.00  0.00    +0.029 A 
ATOM      8  C   UNL     1       0.017  -2.127  -1.155  0.00  0.00    +0.076 A 
ATOM      9  N   UNL     1       0.035  -2.733   0.039  0.00  0.00    -0.214 NA
ATOM     10  C   UNL     1       0.022  -2.017   1.147  0.00  0.00    +0.219 A 
ATOM     11  N   UNL     1      -0.004  -0.686   1.141  0.00  0.00    -0.219 NA
ATOM     12  N   UNL     1       0.040  -2.676   2.363  0.00  0.00    -0.300 N 
ATOM     13  C   UNL     1       0.020  -1.921   3.623  0.00  0.00    +0.108 C 
ATOM     14  C   UNL     1       1.201  -2.374   4.488  0.00  0.00    +0.032 C 
ATOM     15  C   UNL     1       1.145  -3.893   4.665  0.00  0.00    +0.078 C 
ATOM     16  C   UNL     1       1.259  -4.572   3.298  0.00  0.00    +0.032 C 
ATOM     17  C   UNL     1       0.074  -4.144   2.419  0.00  0.00    +0.108 C 
ENDROOT
BRANCH  15  18
ATOM     18  C   UNL     1       2.285  -4.339   5.543  0.00  0.00    +0.219 C 
ATOM     19  O   UNL     1       3.318  -4.731   5.043  0.00  0.00    -0.275 OA
ATOM     20  N   UNL     1       2.157  -4.301   6.884  0.00  0.00    -0.301 N 
ATOM     21  C   UNL     1       0.877  -3.932   7.504  0.00  0.00    +0.108 C 
ATOM     22  C   UNL     1       1.120  -2.786   8.492  0.00  0.00    +0.019 C 
ATOM     23  C   UNL     1       2.205  -3.199   9.489  0.00  0.00    +0.010 C 
ATOM     24  C   UNL     1       3.511  -3.476   8.739  0.00  0.00    +0.049 C 
ATOM     25  C   UNL     1       3.293  -4.634   7.754  0.00  0.00    +0.115 C 
BRANCH  24  26
ATOM     26  C   UNL     1       4.604  -3.856   9.740  0.00  0.00    +0.179 C 
ATOM     27  N   UNL     1       4.869  -2.732  10.648  0.00  0.00    -0.363 N 
ATOM     28  C   UNL     1       6.115  -2.391  10.492  0.00  0.00    +0.060 A 
ATOM     29  C   UNL     1       6.952  -1.353  11.111  0.00  0.00    +0.027 A 
ATOM     30  C   UNL     1       8.242  -1.231  10.742  0.00  0.00    +0.002 A 
ATOM     31  C   UNL     1       8.837  -2.063   9.777  0.00  0.00    +0.002 A 
ATOM     32  C   UNL     1       8.160  -3.045   9.148  0.00  0.00    +0.027 A 
ATOM     33  C   UNL     1       6.745  -3.272   9.470  0.00  0.00    +0.060 A 
ATOM     34  N   UNL     1       5.863  -4.124   9.034  0.00  0.00    -0.363 N 
ATOM     35  H   UNL     1       4.232  -2.320  11.252  0.00  0.00    +0.162 HD
ATOM     36  H   UNL     1       6.011  -4.811   8.365  0.00  0.00    +0.162 HD
ENDBRANCH  24  26
ENDBRANCH  15  18
BRANCH   5  37
ATOM     37  C   UNL     1      -0.040  -0.093  -4.921  0.00  0.00    +0.013 C 
ATOM     38  C   UNL     1       1.216  -0.465  -5.711  0.00  0.00    +0.012 C 
ATOM     39  C   UNL     1      -1.281  -0.523  -5.705  0.00  0.00    +0.012 C 
ENDBRANCH   5  37
TORSDOF 3
