REMARK  Name = ZINC15762359
REMARK  6 active torsions:
REMARK  status: ('A' for Active; 'I' for Inactive)
REMARK    1  A    between atoms: C_1  and  C_2
REMARK    2  A    between atoms: C_3  and  C_13
REMARK    3  A    between atoms: N_5  and  C_7
REMARK    4  A    between atoms: N_15  and  N_16
REMARK    5  A    between atoms: C_17  and  C_19
REMARK    6  A    between atoms: C_26  and  C_29
REMARK                            x       y       z     vdW  Elec       q    Type
REMARK                         _______ _______ _______ _____ _____    ______ ____
ROOT
ATOM      1  C   UNL     1      -5.977   2.458   0.043  0.00  0.00    +0.282 C 
ATOM      2  O   UNL     1      -5.782   3.658   0.049  0.00  0.00    -0.267 OA
ATOM      3  N   UNL     1      -4.933   1.606   0.034  0.00  0.00    -0.229 N 
ATOM      4  H   UNL     1      -5.088   0.648   0.029  0.00  0.00    +0.173 HD
ENDROOT
BRANCH   1   7
ATOM      5  C   UNL     1      -8.627   4.208   0.066  0.00  0.00    +0.070 C 
ATOM      6  C   UNL     1      -8.535   2.704   0.056  0.00  0.00    +0.093 A 
ATOM      7  C   UNL     1      -7.358   1.934   0.047  0.00  0.00    +0.172 A 
ATOM      8  N   UNL     1      -7.706   0.660   0.035  0.00  0.00    -0.142 NA
ATOM      9  N   UNL     1      -8.990   0.567   0.045  0.00  0.00    -0.149 N 
ATOM     10  N   UNL     1      -9.538   1.857   0.055  0.00  0.00    -0.152 NA
BRANCH   9  11
ATOM     11  C   UNL     1      -9.721  -0.629   0.042  0.00  0.00    +0.086 A 
ATOM     12  C   UNL     1     -11.109  -0.596   0.054  0.00  0.00    +0.029 A 
ATOM     13  C   UNL     1     -11.826  -1.776   0.045  0.00  0.00    +0.002 A 
ATOM     14  C   UNL     1     -11.163  -2.990   0.035  0.00  0.00    +0.000 A 
ATOM     15  C   UNL     1      -9.781  -3.026   0.028  0.00  0.00    +0.002 A 
ATOM     16  C   UNL     1      -9.058  -1.849   0.032  0.00  0.00    +0.029 A 
ENDBRANCH   9  11
ENDBRANCH   1   7
BRANCH   3  17
ATOM     17  N   UNL     1      -3.623   2.102   0.030  0.00  0.00    -0.230 N 
ATOM     18  C   UNL     1      -2.579   1.250   0.021  0.00  0.00    +0.267 C 
ATOM     19  O   UNL     1      -2.774   0.049   0.015  0.00  0.00    -0.268 OA
ATOM     20  H   UNL     1      -3.467   3.060   0.035  0.00  0.00    +0.173 HD
BRANCH  18  21
ATOM     21  C   UNL     1      -1.208   1.770   0.017  0.00  0.00    +0.076 A 
ATOM     22  C   UNL     1      -0.013   1.076   0.008  0.00  0.00    +0.024 A 
ATOM     23  C   UNL     1       1.166   1.804   0.001  0.00  0.00    -0.036 A 
ATOM     24  C   UNL     1       1.049   3.164   0.009  0.00  0.00    -0.006 A 
ATOM     25  S   UNL     1      -0.647   3.464   0.027  0.00  0.00    -0.088 S 
ATOM     26  C   UNL     1       2.162   4.167   0.002  0.00  0.00    +0.043 C 
ATOM     27  C   UNL     1       3.460   3.446  -0.390  0.00  0.00    +0.009 C 
ATOM     28  C   UNL     1       3.584   2.167   0.442  0.00  0.00    -0.009 C 
ATOM     29  C   UNL     1       2.543   1.145  -0.015  0.00  0.00    +0.039 C 
ATOM     30  C   UNL     1       4.985   1.579   0.265  0.00  0.00    +0.008 C 
ENDBRANCH  18  21
ENDBRANCH   3  17
TORSDOF 4
