REMARK  Name = ZINC39944576
REMARK  10 active torsions:
REMARK  status: ('A' for Active; 'I' for Inactive)
REMARK    1  A    between atoms: C_7  and  C_10
REMARK    2  A    between atoms: C_10  and  C_12
REMARK    3  A    between atoms: C_12  and  O_13
REMARK    4  A    between atoms: O_13  and  C_14
REMARK    5  A    between atoms: C_14  and  C_16
REMARK    6  A    between atoms: C_16  and  N_17
REMARK    7  A    between atoms: N_17  and  S_18
REMARK    8  A    between atoms: S_18  and  C_21
REMARK    9  A    between atoms: C_23  and  C_31
REMARK   10  A    between atoms: C_25  and  C_27
REMARK                            x       y       z     vdW  Elec       q    Type
REMARK                         _______ _______ _______ _____ _____    ______ ____
ROOT
ATOM      1  N   UNL     1      -0.119  -9.146  -0.045  0.00  0.00    -0.179 NA
ATOM      2  H   UNL     1       0.817  -9.264  -0.271  0.00  0.00    +0.149 HD
ENDROOT
BRANCH   1   3
ATOM      3  S   UNL     1      -1.054 -10.461   0.328  0.00  0.00    +0.059 S 
ATOM      4  O   UNL     1      -0.217 -11.602   0.203  0.00  0.00    -0.153 OA
ATOM      5  O   UNL     1      -1.736 -10.145   1.534  0.00  0.00    -0.153 OA
BRANCH   3   6
ATOM      6  C   UNL     1      -2.284 -10.598  -0.926  0.00  0.00    +0.106 A 
ATOM      7  C   UNL     1      -3.494  -9.947  -0.781  0.00  0.00    +0.041 A 
ATOM      8  C   UNL     1      -4.459 -10.054  -1.765  0.00  0.00    +0.057 A 
ATOM      9  C   UNL     1      -4.214 -10.813  -2.894  0.00  0.00    +0.024 A 
ATOM     10  C   UNL     1      -3.003 -11.464  -3.039  0.00  0.00    +0.057 A 
ATOM     11  C   UNL     1      -2.036 -11.352  -2.057  0.00  0.00    +0.041 A 
BRANCH  10  12
ATOM     12  C   UNL     1      -2.735 -12.291  -4.270  0.00  0.00    +0.417 C 
ATOM     13  F   UNL     1      -3.851 -12.249  -5.112  0.00  0.00    -0.166 F 
ATOM     14  F   UNL     1      -1.622 -11.778  -4.944  0.00  0.00    -0.166 F 
ATOM     15  F   UNL     1      -2.483 -13.616  -3.895  0.00  0.00    -0.166 F 
ENDBRANCH  10  12
BRANCH   8  16
ATOM     16  C   UNL     1      -5.780  -9.345  -1.606  0.00  0.00    +0.417 C 
ATOM     17  F   UNL     1      -5.690  -8.064  -2.162  0.00  0.00    -0.166 F 
ATOM     18  F   UNL     1      -6.780 -10.069  -2.263  0.00  0.00    -0.166 F 
ATOM     19  F   UNL     1      -6.094  -9.243  -0.247  0.00  0.00    -0.166 F 
ENDBRANCH   8  16
ENDBRANCH   3   6
ENDBRANCH   1   3
BRANCH   1  20
ATOM     20  C   UNL     1      -0.705  -7.803  -0.032  0.00  0.00    +0.226 C 
BRANCH  20  21
ATOM     21  C   UNL     1       0.396  -6.774  -0.037  0.00  0.00    +0.323 C 
ATOM     22  O   UNL     1       1.552  -7.126  -0.050  0.00  0.00    -0.249 OA
BRANCH  21  23
ATOM     23  O   UNL     1       0.093  -5.467  -0.028  0.00  0.00    -0.456 OA
BRANCH  23  24
ATOM     24  C   UNL     1       1.187  -4.547  -0.033  0.00  0.00    +0.311 C 
BRANCH  24  25
ATOM     25  C   UNL     1       0.657  -3.136  -0.021  0.00  0.00    +0.199 C 
ATOM     26  O   UNL     1      -0.541  -2.938  -0.009  0.00  0.00    -0.289 OA
BRANCH  25  33
ATOM     27  C   UNL     1      -0.016   1.348   0.009  0.00  0.00    +0.001 A 
ATOM     28  C   UNL     1       1.158   2.117   0.002  0.00  0.00    +0.002 A 
ATOM     29  C   UNL     1       2.384   1.551  -0.012  0.00  0.00    +0.026 A 
ATOM     30  C   UNL     1       2.494   0.083  -0.021  0.00  0.00    +0.043 A 
ATOM     31  N   UNL     1       3.525  -0.712  -0.035  0.00  0.00    -0.380 N 
ATOM     32  C   UNL     1       3.065  -2.104  -0.039  0.00  0.00    +0.152 C 
ATOM     33  C   UNL     1       1.553  -2.046  -0.024  0.00  0.00    +0.026 C 
ATOM     34  C   UNL     1       1.234  -0.700  -0.013  0.00  0.00    +0.006 A 
ATOM     35  C   UNL     1       0.002  -0.004   0.002  0.00  0.00    +0.010 A 
ATOM     36  H   UNL     1       4.453  -0.428  -0.043  0.00  0.00    +0.160 HD
ENDBRANCH  25  33
ENDBRANCH  24  25
ENDBRANCH  23  24
ENDBRANCH  21  23
ENDBRANCH  20  21
ENDBRANCH   1  20
TORSDOF 10
