REMARK  Name = ZINC16941269
REMARK  2 active torsions:
REMARK  status: ('A' for Active; 'I' for Inactive)
REMARK    1  A    between atoms: C_1  and  O_2
REMARK    2  A    between atoms: O_2  and  C_3
REMARK                            x       y       z     vdW  Elec       q    Type
REMARK                         _______ _______ _______ _____ _____    ______ ____
ROOT
ATOM      1  C   UNL     1      -1.851   2.340  -1.125  0.00  0.00    +0.181 C 
ATOM      2  C   UNL     1      -2.380   2.736   0.047  0.00  0.00    +0.064 C 
ATOM      3  C   UNL     1      -1.738   2.331   1.301  0.00  0.00    +0.026 C 
ATOM      4  C   UNL     1      -0.645   1.571   1.291  0.00  0.00    +0.041 C 
ATOM      5  C   UNL     1      -0.013   1.086   0.008  0.00  0.00    +0.181 C 
ATOM      6  N   UNL     1      -0.722   1.564  -1.164  0.00  0.00    -0.298 N 
ATOM      7  S   UNL     1       1.697   1.713  -0.005  0.00  0.00    -0.088 S 
ATOM      8  C   UNL     1       2.221   1.472   1.662  0.00  0.00    +0.114 A 
ATOM      9  C   UNL     1       1.329   1.267   2.671  0.00  0.00    +0.145 A 
ATOM     10  N   UNL     1       1.816   1.102   3.953  0.00  0.00    -0.200 NA
ATOM     11  C   UNL     1       3.151   1.133   4.193  0.00  0.00    +0.195 A 
ATOM     12  N   UNL     1       4.018   1.321   3.221  0.00  0.00    -0.294 N 
ATOM     13  C   UNL     1       3.603   1.494   1.957  0.00  0.00    +0.268 A 
ATOM     14  O   UNL     1       4.419   1.668   1.062  0.00  0.00    -0.267 OA
ATOM     15  N   UNL     1       3.607   0.963   5.475  0.00  0.00    -0.329 N 
ATOM     16  N   UNL     1      -0.032   1.196   2.489  0.00  0.00    -0.299 N 
ATOM     17  H   UNL     1      -0.358   1.307  -2.170  0.00  0.00    +0.150 HD
ATOM     18  H   UNL     1       4.687   0.986   5.683  0.00  0.00    +0.145 HD
ATOM     19  H   UNL     1       2.892   0.804   6.296  0.00  0.00    +0.145 HD
ATOM     20  H   UNL     1      -0.643   0.828   3.327  0.00  0.00    +0.153 HD
ATOM     21  H   UNL     1       5.096   1.339   3.441  0.00  0.00    +0.172 HD
ENDROOT
BRANCH   1  23
ATOM     22  C   UNL     1      -1.839   2.269  -3.499  0.00  0.00    +0.278 C 
ATOM     23  O   UNL     1      -2.444   2.718  -2.284  0.00  0.00    -0.483 OA
ENDBRANCH   1  23
TORSDOF 1
