REMARK  Name = ZINC39652622
REMARK  9 active torsions:
REMARK  status: ('A' for Active; 'I' for Inactive)
REMARK    1  A    between atoms: C_1  and  C_2
REMARK    2  A    between atoms: C_2  and  O_3
REMARK    3  A    between atoms: O_3  and  C_4
REMARK    4  A    between atoms: C_9  and  C_10
REMARK    5  A    between atoms: C_10  and  C_11
REMARK    6  A    between atoms: C_11  and  N_12
REMARK    7  A    between atoms: C_13  and  C_15
REMARK    8  A    between atoms: C_26  and  C_28
REMARK    9  A    between atoms: C_31  and  C_34
REMARK                            x       y       z     vdW  Elec       q    Type
REMARK                         _______ _______ _______ _____ _____    ______ ____
ROOT
ATOM      1  C   UNL     1       1.270   0.566   7.659  0.00  0.00    +0.100 C 
ATOM      2  C   UNL     1       2.475   0.118   8.516  0.00  0.00    +0.121 C 
ATOM      3  N   UNL     1       2.251   0.751   9.837  0.00  0.00    -0.296 N 
ATOM      4  C   UNL     1       0.790   0.632  10.059  0.00  0.00    +0.115 C 
ATOM      5  C   UNL     1       0.165   0.901   8.676  0.00  0.00    -0.004 C 
ATOM      6  C   UNL     1      -1.045  -0.002   8.459  0.00  0.00    -0.010 C 
ATOM      7  C   UNL     1      -2.151   0.389   9.442  0.00  0.00    -0.082 C 
ATOM      8  N   UNL     1      -2.521   1.794   9.233  0.00  0.00    +0.379 N 
ATOM      9  C   UNL     1      -1.376   2.663   9.534  0.00  0.00    -0.082 C 
ATOM     10  C   UNL     1      -0.237   2.368   8.554  0.00  0.00    -0.010 C 
ATOM     11  C   UNL     1       3.167   1.308  10.652  0.00  0.00    +0.247 C 
ATOM     12  O   UNL     1       4.314   1.446  10.274  0.00  0.00    -0.270 OA
ATOM     13  H   UNL     1      -2.799   1.928   8.272  0.00  0.00    -0.086 HD
ATOM     14  H   UNL     1      -3.291   2.032   9.840  0.00  0.00    -0.086 HD
ENDROOT
BRANCH  11  15
ATOM     15  C   UNL     1       2.779   1.753  12.008  0.00  0.00    +0.037 A 
ATOM     16  C   UNL     1       1.633   1.235  12.613  0.00  0.00    +0.013 A 
ATOM     17  C   UNL     1       1.276   1.653  13.879  0.00  0.00    +0.013 A 
ATOM     18  C   UNL     1       2.050   2.584  14.547  0.00  0.00    +0.055 A 
ATOM     19  C   UNL     1       3.187   3.102  13.952  0.00  0.00    +0.013 A 
ATOM     20  C   UNL     1       3.559   2.687  12.690  0.00  0.00    +0.013 A 
BRANCH  18  21
ATOM     21  C   UNL     1       1.654   3.037  15.929  0.00  0.00    +0.417 C 
ATOM     22  F   UNL     1       2.249   2.203  16.881  0.00  0.00    -0.166 F 
ATOM     23  F   UNL     1       2.083   4.354  16.129  0.00  0.00    -0.166 F 
ATOM     24  F   UNL     1       0.262   2.975  16.058  0.00  0.00    -0.166 F 
ENDBRANCH  18  21
ENDBRANCH  11  15
BRANCH   1  26
ATOM     25  N   UNL     1       0.262  -0.272   5.561  0.00  0.00    -0.315 N 
ATOM     26  C   UNL     1       0.826  -0.553   6.753  0.00  0.00    +0.218 C 
ATOM     27  O   UNL     1       0.977  -1.707   7.095  0.00  0.00    -0.275 OA
ATOM     28  H   UNL     1       0.141   0.651   5.287  0.00  0.00    +0.149 HD
BRANCH  25  29
ATOM     29  C   UNL     1      -0.169  -1.360   4.680  0.00  0.00    +0.109 C 
BRANCH  29  30
ATOM     30  C   UNL     1      -0.771  -0.772   3.402  0.00  0.00    +0.057 C 
BRANCH  30  36
ATOM     31  C   UNL     1      -2.467  -2.465   2.662  0.00  0.00    +0.124 A 
ATOM     32  C   UNL     1      -2.874  -3.492   1.822  0.00  0.00    +0.046 A 
ATOM     33  C   UNL     1      -2.031  -3.943   0.826  0.00  0.00    +0.004 A 
ATOM     34  C   UNL     1      -0.782  -3.373   0.665  0.00  0.00    +0.000 A 
ATOM     35  C   UNL     1      -0.373  -2.350   1.500  0.00  0.00    +0.007 A 
ATOM     36  C   UNL     1      -1.215  -1.891   2.495  0.00  0.00    -0.004 A 
BRANCH  31  37
ATOM     37  O   UNL     1      -3.295  -2.019   3.643  0.00  0.00    -0.492 OA
BRANCH  37  39
ATOM     38  C   UNL     1      -5.354  -2.025   4.907  0.00  0.00    +0.048 C 
ATOM     39  C   UNL     1      -4.569  -2.656   3.757  0.00  0.00    +0.225 C 
ENDBRANCH  37  39
ENDBRANCH  31  37
ENDBRANCH  30  36
ENDBRANCH  29  30
ENDBRANCH  25  29
ENDBRANCH   1  26
TORSDOF 8
