REMARK  Name = ZINC09613757
REMARK  5 active torsions:
REMARK  status: ('A' for Active; 'I' for Inactive)
REMARK    1  A    between atoms: C_4  and  N_7
REMARK    2  A    between atoms: C_8  and  C_17
REMARK    3  A    between atoms: C_10  and  C_12
REMARK    4  A    between atoms: C_24  and  C_25
REMARK    5  A    between atoms: C_24  and  N_60
REMARK                            x       y       z     vdW  Elec       q    Type
REMARK                         _______ _______ _______ _____ _____    ______ ____
ROOT
ATOM      1  C   UNL     1       2.970   8.643  -2.735  0.00  0.00    +0.265 C 
ATOM      2  O   UNL     1       3.822   9.311  -2.182  0.00  0.00    -0.268 OA
ATOM      3  N   UNL     1       3.089   7.302  -2.780  0.00  0.00    -0.300 N 
ATOM      4  C   UNL     1       4.153   6.613  -2.034  0.00  0.00    +0.089 C 
ATOM      5  C   UNL     1       4.892   5.675  -2.994  0.00  0.00    -0.059 C 
ATOM      6  C   UNL     1       2.976   5.554  -4.477  0.00  0.00    -0.059 C 
ATOM      7  C   UNL     1       2.159   6.487  -3.577  0.00  0.00    +0.089 C 
ATOM      8  N   UNL     1       3.906   4.774  -3.631  0.00  0.00    +0.386 N 
ATOM      9  H   UNL     1       3.369   4.297  -2.898  0.00  0.00    -0.081 HD
ENDROOT
BRANCH   1  11
ATOM     10  N   UNL     1       1.757  10.587  -3.823  0.00  0.00    -0.227 N 
ATOM     11  C   UNL     1       1.808   9.300  -3.355  0.00  0.00    +0.130 A 
ATOM     12  C   UNL     1       0.572   8.733  -3.578  0.00  0.00    +0.063 A 
ATOM     13  C   UNL     1      -0.238   9.706  -4.186  0.00  0.00    +0.100 A 
ATOM     14  N   UNL     1       0.471  10.809  -4.333  0.00  0.00    -0.165 NA
BRANCH  10  18
ATOM     15  C   UNL     1       4.873  13.351  -3.744  0.00  0.00    +0.000 A 
ATOM     16  C   UNL     1       4.237  13.062  -4.937  0.00  0.00    +0.002 A 
ATOM     17  C   UNL     1       3.204  12.146  -4.967  0.00  0.00    +0.028 A 
ATOM     18  C   UNL     1       2.803  11.515  -3.797  0.00  0.00    +0.066 A 
ATOM     19  C   UNL     1       3.440  11.811  -2.598  0.00  0.00    +0.028 A 
ATOM     20  C   UNL     1       4.476  12.724  -2.576  0.00  0.00    +0.002 A 
ENDBRANCH  10  18
BRANCH  13  21
ATOM     21  C   UNL     1      -1.648   9.524  -4.596  0.00  0.00    +0.039 A 
ATOM     22  C   UNL     1      -2.494  10.418  -5.193  0.00  0.00    +0.018 A 
ATOM     23  C   UNL     1      -3.781  10.019  -5.486  0.00  0.00    +0.008 A 
ATOM     24  C   UNL     1      -4.168   8.756  -5.175  0.00  0.00    +0.046 A 
ATOM     25  S   UNL     1      -2.685   8.079  -4.447  0.00  0.00    -0.095 S 
ENDBRANCH  13  21
ENDBRANCH   1  11
BRANCH   8  26
ATOM     26  C   UNL     1       4.604   3.762  -4.451  0.00  0.00    -0.003 C 
BRANCH  26  27
ATOM     27  C   UNL     1       3.638   2.649  -4.767  0.00  0.00    +0.094 A 
ATOM     28  N   UNL     1       4.077   1.611  -5.526  0.00  0.00    -0.312 N 
ATOM     29  H   UNL     1       4.993   1.604  -5.847  0.00  0.00    +0.170 HD
ATOM     30  C   UNL     1       3.249   0.588  -5.839  0.00  0.00    +0.259 A 
ATOM     31  O   UNL     1       3.630  -0.348  -6.519  0.00  0.00    -0.267 OA
ATOM     32  C   UNL     1       1.871   0.653  -5.332  0.00  0.00    +0.065 A 
ATOM     33  C   UNL     1       0.941  -0.352  -5.592  0.00  0.00    +0.015 A 
ATOM     34  C   UNL     1      -0.336  -0.243  -5.087  0.00  0.00    +0.001 A 
ATOM     35  C   UNL     1      -0.700   0.855  -4.318  0.00  0.00    +0.002 A 
ATOM     36  C   UNL     1       0.205   1.856  -4.045  0.00  0.00    +0.028 A 
ATOM     37  C   UNL     1       1.506   1.768  -4.545  0.00  0.00    +0.078 A 
ATOM     38  N   UNL     1       2.429   2.731  -4.301  0.00  0.00    -0.236 NA
ENDBRANCH  26  27
ENDBRANCH   8  26
TORSDOF 5
