REMARK  Name = ZINC02296516
REMARK  7 active torsions:
REMARK  status: ('A' for Active; 'I' for Inactive)
REMARK    1  A    between atoms: C_4  and  C_7
REMARK    2  A    between atoms: C_7  and  C_8
REMARK    3  A    between atoms: C_8  and  S_9
REMARK    4  A    between atoms: S_9  and  C_10
REMARK    5  A    between atoms: C_20  and  C_21
REMARK    6  A    between atoms: C_20  and  N_63
REMARK    7  A    between atoms: N_29  and  C_30
REMARK                            x       y       z     vdW  Elec       q    Type
REMARK                         _______ _______ _______ _____ _____    ______ ____
ROOT
ATOM      1  C   UNL     1       3.932   6.892  -7.640  0.00  0.00    +0.177 A 
ATOM      2  N   UNL     1       2.733   6.689  -7.110  0.00  0.00    -0.216 NA
ATOM      3  C   UNL     1       2.664   5.897  -6.047  0.00  0.00    +0.117 A 
ATOM      4  C   UNL     1       3.784   5.266  -5.457  0.00  0.00    +0.076 A 
ATOM      5  C   UNL     1       3.510   4.437  -4.298  0.00  0.00    -0.026 A 
ATOM      6  C   UNL     1       2.218   4.350  -3.902  0.00  0.00    -0.021 A 
ATOM      7  S   UNL     1       1.314   5.362  -5.044  0.00  0.00    -0.075 S 
ATOM      8  C   UNL     1       1.690   3.561  -2.745  0.00  0.00    -0.035 C 
ATOM      9  C   UNL     1       4.024   3.300  -2.157  0.00  0.00    -0.073 C 
ATOM     10  C   UNL     1       4.589   3.678  -3.528  0.00  0.00    +0.018 C 
ATOM     11  C   UNL     1       5.063   5.508  -6.057  0.00  0.00    +0.268 A 
ATOM     12  O   UNL     1       6.086   5.010  -5.620  0.00  0.00    -0.267 OA
ATOM     13  N   UNL     1       5.065   6.324  -7.137  0.00  0.00    -0.255 N 
ATOM     14  N   UNL     1       2.738   2.596  -2.336  0.00  0.00    +0.386 N 
ATOM     15  H   UNL     1       2.844   1.886  -3.070  0.00  0.00    -0.081 HD
ENDROOT
BRANCH  13  16
ATOM     16  C   UNL     1       6.287   6.598  -7.766  0.00  0.00    +0.052 A 
ATOM     17  C   UNL     1       6.737   5.781  -8.795  0.00  0.00    +0.026 A 
ATOM     18  C   UNL     1       7.939   6.057  -9.417  0.00  0.00    +0.002 A 
ATOM     19  C   UNL     1       8.699   7.138  -9.009  0.00  0.00    +0.000 A 
ATOM     20  C   UNL     1       8.256   7.949  -7.981  0.00  0.00    +0.002 A 
ATOM     21  C   UNL     1       7.052   7.682  -7.359  0.00  0.00    +0.026 A 
ENDBRANCH  13  16
BRANCH   1  22
ATOM     22  S   UNL     1       4.065   7.937  -9.053  0.00  0.00    -0.087 S 
BRANCH  22  23
ATOM     23  C   UNL     1       2.327   8.390  -9.274  0.00  0.00    +0.082 C 
BRANCH  23  24
ATOM     24  C   UNL     1       2.192   9.323 -10.479  0.00  0.00    +0.046 C 
BRANCH  24  28
ATOM     25  C   UNL     1      -1.910  10.393 -11.001  0.00  0.00    +0.000 A 
ATOM     26  C   UNL     1      -1.090  11.167 -10.201  0.00  0.00    +0.000 A 
ATOM     27  C   UNL     1       0.237  10.820 -10.032  0.00  0.00    +0.003 A 
ATOM     28  C   UNL     1       0.745   9.700 -10.663  0.00  0.00    -0.047 A 
ATOM     29  C   UNL     1      -0.073   8.929 -11.468  0.00  0.00    +0.003 A 
ATOM     30  C   UNL     1      -1.402   9.273 -11.632  0.00  0.00    +0.000 A 
ENDBRANCH  24  28
ENDBRANCH  23  24
ENDBRANCH  22  23
ENDBRANCH   1  22
BRANCH  14  31
ATOM     31  C   UNL     1       2.347   1.928  -1.075  0.00  0.00    -0.043 C 
BRANCH  31  32
ATOM     32  C   UNL     1       0.924   1.447  -1.190  0.00  0.00    -0.064 A 
ATOM     33  C   UNL     1       0.659   0.187  -1.695  0.00  0.00    +0.002 A 
ATOM     34  C   UNL     1      -0.647  -0.254  -1.801  0.00  0.00    +0.000 A 
ATOM     35  C   UNL     1      -1.688   0.566  -1.407  0.00  0.00    +0.000 A 
ATOM     36  C   UNL     1      -1.423   1.823  -0.898  0.00  0.00    +0.000 A 
ATOM     37  C   UNL     1      -0.117   2.265  -0.792  0.00  0.00    +0.002 A 
ENDBRANCH  31  32
ENDBRANCH  14  31
TORSDOF 7
