REMARK  Name = ZINC08415859
REMARK  15 active torsions:
REMARK  status: ('A' for Active; 'I' for Inactive)
REMARK    1  A    between atoms: C_1  and  C_2
REMARK    2  A    between atoms: C_2  and  O_3
REMARK    3  A    between atoms: O_3  and  C_4
REMARK    4  A    between atoms: C_4  and  C_6
REMARK    5  A    between atoms: C_8  and  C_34
REMARK    6  A    between atoms: C_15  and  C_26
REMARK    7  A    between atoms: C_17  and  C_21
REMARK    8  A    between atoms: C_18  and  C_20
REMARK    9  A    between atoms: C_21  and  O_23
REMARK   10  A    between atoms: O_23  and  C_24
REMARK   11  A    between atoms: C_24  and  C_25
REMARK   12  A    between atoms: C_31  and  O_32
REMARK   13  A    between atoms: O_32  and  C_33
REMARK   14  A    between atoms: C_39  and  O_40
REMARK   15  A    between atoms: O_40  and  C_41
REMARK                            x       y       z     vdW  Elec       q    Type
REMARK                         _______ _______ _______ _____ _____    ______ ____
ROOT
ATOM      1  C   UNL     1       0.677  -3.338  -2.289  0.00  0.00    +0.176 C 
ATOM      2  C   UNL     1       1.712  -4.405  -2.659  0.00  0.00    +0.049 C 
ATOM      3  C   UNL     1       0.996  -5.546  -3.385  0.00  0.00    +0.060 C 
ATOM      4  C   UNL     1       0.299  -5.008  -4.611  0.00  0.00    +0.016 C 
ATOM      5  C   UNL     1      -0.177  -3.745  -4.641  0.00  0.00    +0.025 C 
ATOM      6  C   UNL     1      -0.030  -2.885  -3.537  0.00  0.00    +0.176 C 
ATOM      7  O   UNL     1      -0.480  -1.758  -3.592  0.00  0.00    -0.291 OA
ATOM      8  C   UNL     1      -0.888  -3.220  -5.864  0.00  0.00    +0.096 C 
ATOM      9  C   UNL     1      -0.589  -4.068  -7.065  0.00  0.00    +0.065 C 
ATOM     10  C   UNL     1      -0.091  -5.310  -6.936  0.00  0.00    +0.016 C 
ATOM     11  N   UNL     1       0.163  -5.829  -5.698  0.00  0.00    -0.321 N 
ATOM     12  C   UNL     1       0.190  -6.135  -8.166  0.00  0.00    +0.061 C 
ATOM     13  H   UNL     1       0.248  -6.789  -5.588  0.00  0.00    +0.152 HD
ENDROOT
BRANCH   8  14
ATOM     14  C   UNL     1      -2.374  -3.225  -5.613  0.00  0.00    +0.006 A 
ATOM     15  C   UNL     1      -3.022  -4.410  -5.322  0.00  0.00    +0.008 A 
ATOM     16  C   UNL     1      -4.385  -4.415  -5.093  0.00  0.00    +0.001 A 
ATOM     17  C   UNL     1      -5.103  -3.235  -5.152  0.00  0.00    +0.004 A 
ATOM     18  C   UNL     1      -4.460  -2.047  -5.441  0.00  0.00    +0.046 A 
ATOM     19  C   UNL     1      -3.091  -2.039  -5.667  0.00  0.00    +0.124 A 
BRANCH  19  20
ATOM     20  O   UNL     1      -2.454  -0.871  -5.947  0.00  0.00    -0.495 OA
ATOM     21  C   UNL     1      -3.256   0.311  -5.986  0.00  0.00    +0.277 C 
ENDBRANCH  19  20
ENDBRANCH   8  14
BRANCH   2  22
ATOM     22  C   UNL     1       2.369  -4.929  -1.408  0.00  0.00    -0.001 A 
ATOM     23  C   UNL     1       1.717  -5.862  -0.624  0.00  0.00    +0.007 A 
ATOM     24  C   UNL     1       2.319  -6.343   0.524  0.00  0.00    +0.001 A 
ATOM     25  C   UNL     1       3.574  -5.892   0.891  0.00  0.00    +0.004 A 
ATOM     26  C   UNL     1       4.229  -4.960   0.110  0.00  0.00    +0.046 A 
ATOM     27  C   UNL     1       3.630  -4.479  -1.045  0.00  0.00    +0.124 A 
BRANCH  27  28
ATOM     28  O   UNL     1       4.275  -3.566  -1.818  0.00  0.00    -0.495 OA
ATOM     29  C   UNL     1       5.571  -3.148  -1.383  0.00  0.00    +0.277 C 
ENDBRANCH  27  28
ENDBRANCH   2  22
BRANCH   1  30
ATOM     30  C   UNL     1      -0.325  -3.920  -1.325  0.00  0.00    +0.318 C 
ATOM     31  O   UNL     1      -1.199  -4.650  -1.730  0.00  0.00    -0.250 OA
BRANCH  30  32
ATOM     32  O   UNL     1      -0.247  -3.627  -0.018  0.00  0.00    -0.464 OA
BRANCH  32  34
ATOM     33  C   UNL     1      -0.980  -3.769   2.281  0.00  0.00    +0.048 C 
ATOM     34  C   UNL     1      -1.229  -4.214   0.838  0.00  0.00    +0.229 C 
ENDBRANCH  32  34
ENDBRANCH  30  32
ENDBRANCH   1  30
BRANCH   9  35
ATOM     35  C   UNL     1      -0.838  -3.551  -8.358  0.00  0.00    +0.338 C 
ATOM     36  O   UNL     1      -0.481  -4.173  -9.341  0.00  0.00    -0.245 OA
BRANCH  35  37
ATOM     37  O   UNL     1      -1.471  -2.368  -8.502  0.00  0.00    -0.462 OA
BRANCH  37  38
ATOM     38  C   UNL     1      -1.689  -1.906  -9.836  0.00  0.00    +0.229 C 
ATOM     39  C   UNL     1      -2.415  -0.560  -9.798  0.00  0.00    +0.048 C 
ENDBRANCH  37  38
ENDBRANCH  35  37
ENDBRANCH   9  35
TORSDOF 10
