REMARK  Name = ZINC43211880
REMARK  10 active torsions:
REMARK  status: ('A' for Active; 'I' for Inactive)
REMARK    1  A    between atoms: C_1  and  C_2
REMARK    2  A    between atoms: C_7  and  C_8
REMARK    3  A    between atoms: N_16  and  C_19
REMARK    4  A    between atoms: C_22  and  C_25
REMARK    5  A    between atoms: C_25  and  C_27
REMARK    6  A    between atoms: C_28  and  C_30
REMARK    7  A    between atoms: C_28  and  C_34
REMARK    8  A    between atoms: C_30  and  C_31
REMARK    9  A    between atoms: C_31  and  C_32
REMARK   10  A    between atoms: C_31  and  C_33
REMARK                            x       y       z     vdW  Elec       q    Type
REMARK                         _______ _______ _______ _____ _____    ______ ____
ROOT
ATOM      1  C   UNL     1       0.016   0.589   2.568  0.00  0.00    -0.026 C 
ATOM      2  C   UNL     1      -1.466   0.724   2.900  0.00  0.00    +0.077 C 
ATOM      3  C   UNL     1      -1.321   0.671   4.468  0.00  0.00    +0.086 C 
ATOM      4  C   UNL     1      -2.591   1.202   4.905  0.00  0.00    +0.229 C 
ATOM      5  O   UNL     1      -3.219   0.893   5.894  0.00  0.00    -0.275 OA
ATOM      6  N   UNL     1      -2.931   2.132   3.954  0.00  0.00    -0.210 N 
ATOM      7  C   UNL     1      -2.160   2.046   2.813  0.00  0.00    +0.229 C 
ATOM      8  O   UNL     1      -2.056   2.867   1.927  0.00  0.00    -0.275 OA
ATOM      9  C   UNL     1      -0.449  -0.489   4.693  0.00  0.00    +0.048 C 
ATOM     10  N   UNL     1       0.480  -0.489   3.501  0.00  0.00    +0.395 N 
ATOM     11  H   UNL     1       0.432  -1.386   3.040  0.00  0.00    -0.083 HD
ATOM     12  H   UNL     1       1.428  -0.304   3.794  0.00  0.00    -0.083 HD
ENDROOT
BRANCH   1  19
ATOM     13  C   UNL     1       2.661   0.560   1.406  0.00  0.00    +0.044 C 
ATOM     14  C   UNL     1       1.470   0.155   0.578  0.00  0.00    -0.049 A 
ATOM     15  C   UNL     1       1.643  -0.236  -0.737  0.00  0.00    +0.003 A 
ATOM     16  C   UNL     1       0.550  -0.608  -1.497  0.00  0.00    +0.000 A 
ATOM     17  C   UNL     1      -0.716  -0.590  -0.943  0.00  0.00    +0.000 A 
ATOM     18  C   UNL     1      -0.889  -0.200   0.372  0.00  0.00    +0.002 A 
ATOM     19  C   UNL     1       0.204   0.168   1.133  0.00  0.00    -0.058 A 
ENDBRANCH   1  19
BRANCH   6  20
ATOM     20  C   UNL     1      -3.960   3.063   4.117  0.00  0.00    +0.044 A 
ATOM     21  C   UNL     1      -4.698   3.081   5.296  0.00  0.00    +0.024 A 
ATOM     22  C   UNL     1      -5.713   3.996   5.461  0.00  0.00    +0.013 A 
ATOM     23  C   UNL     1      -6.002   4.909   4.439  0.00  0.00    +0.017 A 
ATOM     24  C   UNL     1      -5.255   4.888   3.255  0.00  0.00    +0.013 A 
ATOM     25  C   UNL     1      -4.239   3.973   3.102  0.00  0.00    +0.024 A 
BRANCH  23  26
ATOM     26  C   UNL     1      -7.085   5.888   4.610  0.00  0.00    +0.160 C 
ATOM     27  O   UNL     1      -7.663   5.973   5.673  0.00  0.00    -0.292 OA
ATOM     28  C   UNL     1      -7.476   6.785   3.465  0.00  0.00    +0.091 C 
ENDBRANCH  23  26
ENDBRANCH   6  20
BRANCH   9  29
ATOM     29  C   UNL     1      -1.264  -1.755   4.755  0.00  0.00    +0.346 C 
ATOM     30  O   UNL     1      -1.137  -2.606   3.891  0.00  0.00    -0.248 OA
ATOM     31  O   UNL     1      -2.051  -1.929   5.670  0.00  0.00    -0.248 OA
ENDBRANCH   9  29
BRANCH   9  32
ATOM     32  C   UNL     1       0.358  -0.308   5.980  0.00  0.00    +0.002 C 
BRANCH  32  33
ATOM     33  C   UNL     1       1.375  -1.444   6.107  0.00  0.00    -0.018 C 
ATOM     34  C   UNL     1       2.303  -1.167   7.291  0.00  0.00    +0.007 C 
ATOM     35  C   UNL     1       0.638  -2.766   6.335  0.00  0.00    +0.007 C 
ENDBRANCH  32  33
ENDBRANCH   9  32
TORSDOF 6
