REMARK  Name = ZINC09215682
REMARK  3 active torsions:
REMARK  status: ('A' for Active; 'I' for Inactive)
REMARK    1  A    between atoms: C_15  and  C_17
REMARK    2  A    between atoms: C_17  and  C_19
REMARK    3  A    between atoms: N_29  and  C_32
REMARK                            x       y       z     vdW  Elec       q    Type
REMARK                         _______ _______ _______ _____ _____    ______ ____
ROOT
ATOM      1  C   UNL     1      -8.571  -0.758   1.086  0.00  0.00    +0.001 A 
ATOM      2  C   UNL     1      -7.893  -0.642   2.287  0.00  0.00    +0.000 A 
ATOM      3  C   UNL     1      -6.529  -0.874   2.342  0.00  0.00    +0.006 A 
ATOM      4  C   UNL     1      -5.843  -1.221   1.201  0.00  0.00    -0.021 A 
ATOM      5  C   UNL     1      -6.520  -1.345  -0.018  0.00  0.00    -0.019 A 
ATOM      6  C   UNL     1      -7.896  -1.107  -0.065  0.00  0.00    +0.008 A 
ATOM      7  C   UNL     1      -5.790  -1.726  -1.243  0.00  0.00    +0.022 C 
ATOM      8  C   UNL     1      -4.447  -1.623  -1.272  0.00  0.00    +0.054 C 
ATOM      9  C   UNL     1      -4.357  -1.473   1.234  0.00  0.00    +0.100 C 
ATOM     10  C   UNL     1      -3.660  -0.540   2.226  0.00  0.00    +0.113 C 
ATOM     11  C   UNL     1      -2.829   0.442   1.347  0.00  0.00    +0.116 C 
ATOM     12  C   UNL     1      -2.659  -0.318   0.015  0.00  0.00    +0.141 C 
ATOM     13  C   UNL     1      -1.488   0.446   2.083  0.00  0.00    +0.232 C 
ATOM     14  O   UNL     1      -0.615   1.276   1.947  0.00  0.00    -0.274 OA
ATOM     15  N   UNL     1      -1.440  -0.612   2.905  0.00  0.00    -0.210 N 
ATOM     16  C   UNL     1      -2.589  -1.300   2.984  0.00  0.00    +0.232 C 
ATOM     17  O   UNL     1      -2.745  -2.354   3.563  0.00  0.00    -0.274 OA
ATOM     18  N   UNL     1      -3.626  -1.446  -0.005  0.00  0.00    -0.384 NA
ATOM     19  H   UNL     1      -3.041  -2.290   0.023  0.00  0.00    +0.127 HD
ENDROOT
BRANCH  15  20
ATOM     20  C   UNL     1      -0.289  -0.968   3.623  0.00  0.00    +0.044 A 
ATOM     21  C   UNL     1       0.344  -2.177   3.367  0.00  0.00    +0.027 A 
ATOM     22  C   UNL     1       1.480  -2.524   4.071  0.00  0.00    +0.040 A 
ATOM     23  C   UNL     1       1.983  -1.671   5.039  0.00  0.00    +0.124 A 
ATOM     24  C   UNL     1       1.350  -0.467   5.300  0.00  0.00    +0.040 A 
ATOM     25  C   UNL     1       0.216  -0.115   4.594  0.00  0.00    +0.027 A 
ATOM     26  F   UNL     1       3.092  -2.014   5.730  0.00  0.00    -0.205 F 
ENDBRANCH  15  20
BRANCH  12  27
ATOM     27  C   UNL     1      -1.407  -1.156   0.052  0.00  0.00    +0.184 C 
ATOM     28  O   UNL     1      -1.485  -2.356   0.208  0.00  0.00    -0.290 OA
BRANCH  27  29
ATOM     29  C   UNL     1      -0.091  -0.519  -0.103  0.00  0.00    +0.038 A 
ATOM     30  C   UNL     1       0.003   0.866  -0.284  0.00  0.00    +0.014 A 
ATOM     31  C   UNL     1       1.239   1.456  -0.429  0.00  0.00    +0.021 A 
ATOM     32  C   UNL     1       2.389   0.682  -0.396  0.00  0.00    +0.042 A 
ATOM     33  C   UNL     1       2.305  -0.688  -0.217  0.00  0.00    +0.040 A 
ATOM     34  C   UNL     1       1.074  -1.294  -0.071  0.00  0.00    +0.053 A 
ATOM     35 CL   UNL     1       0.971  -3.013   0.154  0.00  0.00    -0.083 Cl
ATOM     36 CL   UNL     1       3.942   1.436  -0.579  0.00  0.00    -0.083 Cl
ENDBRANCH  27  29
ENDBRANCH  12  27
TORSDOF 3
