REMARK  Name = ZINC51648945
REMARK  7 active torsions:
REMARK  status: ('A' for Active; 'I' for Inactive)
REMARK    1  A    between atoms: C_1  and  C_2
REMARK    2  A    between atoms: C_4  and  N_22
REMARK    3  A    between atoms: C_7  and  N_8
REMARK    4  A    between atoms: N_11  and  C_12
REMARK    5  A    between atoms: C_12  and  C_13
REMARK    6  A    between atoms: C_12  and  C_14
REMARK    7  A    between atoms: C_17  and  C_20
REMARK                            x       y       z     vdW  Elec       q    Type
REMARK                         _______ _______ _______ _____ _____    ______ ____
ROOT
ATOM      1  N   UNL     1       0.024  -0.010   2.418  0.00  0.00    -0.269 N 
ATOM      2  C   UNL     1      -0.440  -0.483   3.592  0.00  0.00    +0.304 C 
ATOM      3  O   UNL     1      -0.820  -1.635   3.675  0.00  0.00    -0.252 OA
ATOM      4  N   UNL     1      -0.482   0.321   4.673  0.00  0.00    -0.293 N 
ATOM      5  H   UNL     1       0.379   0.891   2.365  0.00  0.00    +0.156 HD
ATOM      6  H   UNL     1      -0.179   1.240   4.606  0.00  0.00    +0.151 HD
ENDROOT
BRANCH   1  13
ATOM      7  C   UNL     1      -0.078   1.260  -0.125  0.00  0.00    +0.046 C 
ATOM      8  C   UNL     1      -0.057  -0.241   0.014  0.00  0.00    -0.027 A 
ATOM      9  C   UNL     1      -0.081  -1.039  -1.113  0.00  0.00    +0.028 A 
ATOM     10  C   UNL     1      -0.061  -2.421  -0.985  0.00  0.00    +0.030 A 
ATOM     11  C   UNL     1      -0.017  -3.001   0.277  0.00  0.00    +0.025 A 
ATOM     12  C   UNL     1       0.008  -2.203   1.403  0.00  0.00    +0.025 A 
ATOM     13  C   UNL     1      -0.007  -0.821   1.274  0.00  0.00    +0.038 A 
BRANCH  10  14
ATOM     14  N   UNL     1      -0.087  -3.230  -2.126  0.00  0.00    -0.328 N 
ATOM     15  C   UNL     1       0.055  -4.680  -1.988  0.00  0.00    +0.116 C 
ATOM     16  C   UNL     1      -1.249  -5.364  -2.414  0.00  0.00    +0.088 C 
ATOM     17  S   UNL     1      -1.633  -4.870  -4.121  0.00  0.00    -0.158 S 
ATOM     18  C   UNL     1      -1.596  -3.054  -4.044  0.00  0.00    +0.088 C 
ATOM     19  C   UNL     1      -0.261  -2.616  -3.443  0.00  0.00    +0.116 C 
ENDBRANCH  10  14
ENDBRANCH   1  13
BRANCH   4  20
ATOM     20  C   UNL     1      -0.986  -0.194   5.949  0.00  0.00    +0.102 C 
ATOM     21  C   UNL     1       0.147  -0.897   6.698  0.00  0.00    +0.033 C 
BRANCH  20  22
ATOM     22  C   UNL     1      -1.506   0.950   6.781  0.00  0.00    -0.027 A 
ATOM     23  C   UNL     1      -0.823   2.154   6.800  0.00  0.00    +0.007 A 
ATOM     24  C   UNL     1      -1.293   3.205   7.560  0.00  0.00    +0.019 A 
ATOM     25  C   UNL     1      -2.460   3.052   8.311  0.00  0.00    +0.052 A 
ATOM     26  C   UNL     1      -3.144   1.835   8.287  0.00  0.00    +0.019 A 
ATOM     27  C   UNL     1      -2.666   0.794   7.519  0.00  0.00    +0.007 A 
BRANCH  25  28
ATOM     28  C   UNL     1      -2.953   4.139   9.102  0.00  0.00    +0.099 C 
ATOM     29  N   UNL     1      -3.344   5.001   9.730  0.00  0.00    -0.191 NA
ENDBRANCH  25  28
ENDBRANCH  20  22
ENDBRANCH   4  20
TORSDOF 5
