REMARK  Name = ZINC10044632
REMARK  13 active torsions:
REMARK  status: ('A' for Active; 'I' for Inactive)
REMARK    1  A    between atoms: C_1  and  C_2
REMARK    2  A    between atoms: C_2  and  C_3
REMARK    3  A    between atoms: C_2  and  C_4
REMARK    4  A    between atoms: C_7  and  S_12
REMARK    5  A    between atoms: N_8  and  C_9
REMARK    6  A    between atoms: S_12  and  C_13
REMARK    7  A    between atoms: C_16  and  S_22
REMARK    8  A    between atoms: C_18  and  N_19
REMARK    9  A    between atoms: S_22  and  N_25
REMARK   10  A    between atoms: N_25  and  C_26
REMARK   11  A    between atoms: C_26  and  C_27
REMARK   12  A    between atoms: C_26  and  C_28
REMARK   13  A    between atoms: C_26  and  C_29
REMARK                            x       y       z     vdW  Elec       q    Type
REMARK                         _______ _______ _______ _____ _____    ______ ____
ROOT
ATOM      1  C   UNL     1      -0.319   3.971  -2.555  0.00  0.00    +0.046 A 
ATOM      2  C   UNL     1       0.735   4.300  -1.711  0.00  0.00    +0.019 A 
ATOM      3  C   UNL     1       0.950   3.567  -0.560  0.00  0.00    +0.030 A 
ATOM      4  C   UNL     1       0.124   2.501  -0.253  0.00  0.00    +0.107 A 
ATOM      5  C   UNL     1      -0.925   2.171  -1.090  0.00  0.00    +0.062 A 
ATOM      6  C   UNL     1      -1.150   2.903  -2.240  0.00  0.00    +0.142 A 
ENDROOT
BRANCH   6   7
ATOM      7  N   UNL     1      -2.274   2.549  -3.136  0.00  0.00    +0.058 N 
ATOM      8  O   UNL     1      -3.002   1.613  -2.859  0.00  0.00    -0.126 OA
ATOM      9  O   UNL     1      -2.471   3.195  -4.149  0.00  0.00    -0.126 OA
ENDBRANCH   6   7
BRANCH   4  10
ATOM     10  S   UNL     1       0.407   1.565   1.214  0.00  0.00    +0.059 S 
ATOM     11  O   UNL     1      -0.740   0.748   1.401  0.00  0.00    -0.153 OA
ATOM     12  O   UNL     1       0.857   2.483   2.200  0.00  0.00    -0.153 OA
BRANCH  10  13
ATOM     13  N   UNL     1       1.672   0.542   0.905  0.00  0.00    -0.185 NA
ATOM     14  H   UNL     1       2.513   0.657   1.375  0.00  0.00    +0.149 HD
BRANCH  13  15
ATOM     15  C   UNL     1       1.519  -0.539  -0.071  0.00  0.00    +0.032 C 
ATOM     16  C   UNL     1       1.028   0.040  -1.400  0.00  0.00    +0.029 C 
ATOM     17  C   UNL     1       2.867  -1.230  -0.283  0.00  0.00    +0.029 C 
ATOM     18  C   UNL     1       0.501  -1.556   0.449  0.00  0.00    +0.029 C 
ENDBRANCH  13  15
ENDBRANCH  10  13
ENDBRANCH   4  10
BRANCH   1  19
ATOM     19  S   UNL     1      -0.602   4.907  -4.020  0.00  0.00    -0.048 S 
BRANCH  19  23
ATOM     20  C   UNL     1      -3.708   7.205  -3.480  0.00  0.00    +0.137 A 
ATOM     21  N   UNL     1      -3.545   6.670  -2.303  0.00  0.00    -0.133 NA
ATOM     22  N   UNL     1      -2.542   5.866  -2.319  0.00  0.00    -0.122 NA
ATOM     23  C   UNL     1      -2.001   5.852  -3.515  0.00  0.00    +0.197 A 
ATOM     24  N   UNL     1      -2.730   6.704  -4.294  0.00  0.00    -0.302 N 
BRANCH  20  26
ATOM     25  C   UNL     1      -6.154   7.567  -3.658  0.00  0.00    +0.015 C 
ATOM     26  C   UNL     1      -4.775   8.194  -3.872  0.00  0.00    +0.051 C 
ATOM     27  C   UNL     1      -4.647   9.451  -3.009  0.00  0.00    +0.015 C 
ENDBRANCH  20  26
BRANCH  24  28
ATOM     28  C   UNL     1      -2.511   7.015  -5.709  0.00  0.00    +0.091 C 
ATOM     29  C   UNL     1      -1.641   6.051  -6.518  0.00  0.00    +0.027 C 
ATOM     30  C   UNL     1      -1.100   7.429  -6.130  0.00  0.00    +0.027 C 
ENDBRANCH  24  28
ENDBRANCH  19  23
ENDBRANCH   1  19
TORSDOF 8
