REMARK  Name = ZINC35527555
REMARK  7 active torsions:
REMARK  status: ('A' for Active; 'I' for Inactive)
REMARK    1  A    between atoms: C_2  and  C_18
REMARK    2  A    between atoms: C_5  and  S_6
REMARK    3  A    between atoms: S_6  and  N_9
REMARK    4  A    between atoms: N_9  and  C_10
REMARK    5  A    between atoms: C_10  and  C_11
REMARK    6  A    between atoms: C_11  and  C_12
REMARK    7  A    between atoms: C_20  and  C_23
REMARK                            x       y       z     vdW  Elec       q    Type
REMARK                         _______ _______ _______ _____ _____    ______ ____
ROOT
ATOM      1  C   UNL     1      -0.016   1.348   0.009  0.00  0.00    +0.048 A 
ATOM      2  C   UNL     1       1.226   1.984   0.001  0.00  0.00    +0.031 A 
ATOM      3  C   UNL     1       2.345   1.209  -0.014  0.00  0.00    +0.058 A 
ATOM      4  S   UNL     1       1.748  -0.361  -0.017  0.00  0.00    -0.076 S 
ATOM      5  C   UNL     1       0.002  -0.004   0.002  0.00  0.00    +0.143 A 
ENDROOT
BRANCH   2   6
ATOM      6  C   UNL     1       1.323   3.463   0.007  0.00  0.00    +0.203 A 
ATOM      7  N   UNL     1       2.463   4.171  -0.005  0.00  0.00    -0.183 NA
ATOM      8  C   UNL     1       2.195   5.452   0.005  0.00  0.00    +0.314 A 
ATOM      9  O   UNL     1       0.860   5.604   0.025  0.00  0.00    -0.328 OA
ATOM     10  N   UNL     1       0.309   4.296   0.021  0.00  0.00    -0.055 NA
BRANCH   8  11
ATOM     11  C   UNL     1       3.194   6.548  -0.003  0.00  0.00    +0.304 C 
ATOM     12  O   UNL     1       4.381   6.288  -0.021  0.00  0.00    -0.265 OA
ATOM     13  N   UNL     1       2.785   7.832   0.009  0.00  0.00    -0.294 N 
ATOM     14  C   UNL     1       1.387   8.287   0.037  0.00  0.00    +0.108 C 
ATOM     15  C   UNL     1       1.406   9.830   0.016  0.00  0.00    +0.020 C 
ATOM     16  C   UNL     1       2.796  10.152  -0.594  0.00  0.00    +0.020 C 
ATOM     17  C   UNL     1       3.667   9.014   0.003  0.00  0.00    +0.108 C 
ENDBRANCH   8  11
ENDBRANCH   2   6
BRANCH   5  18
ATOM     18  S   UNL     1      -1.355  -1.128   0.010  0.00  0.00    +0.065 S 
ATOM     19  O   UNL     1      -0.868  -2.349   0.549  0.00  0.00    -0.153 OA
ATOM     20  O   UNL     1      -2.457  -0.430   0.576  0.00  0.00    -0.153 OA
BRANCH  18  21
ATOM     21  N   UNL     1      -1.748  -1.431  -1.570  0.00  0.00    -0.189 NA
ATOM     22  H   UNL     1      -2.609  -1.151  -1.918  0.00  0.00    +0.148 HD
BRANCH  21  23
ATOM     23  C   UNL     1      -0.796  -2.124  -2.442  0.00  0.00    +0.110 C 
BRANCH  23  24
ATOM     24  C   UNL     1      -1.517  -2.608  -3.701  0.00  0.00    +0.047 C 
BRANCH  24  25
ATOM     25  C   UNL     1      -0.538  -3.321  -4.598  0.00  0.00    -0.072 C 
ATOM     26  C   UNL     1      -0.462  -4.610  -4.511  0.00  0.00    -0.028 C 
ATOM     27  C   UNL     1       0.470  -5.455  -5.329  0.00  0.00    +0.027 C 
ATOM     28  C   UNL     1       0.982  -4.660  -6.533  0.00  0.00    +0.004 C 
ATOM     29  C   UNL     1       1.488  -3.300  -6.038  0.00  0.00    +0.005 C 
ATOM     30  C   UNL     1       0.285  -2.492  -5.540  0.00  0.00    +0.030 C 
ENDBRANCH  24  25
ENDBRANCH  23  24
ENDBRANCH  21  23
ENDBRANCH  18  21
ENDBRANCH   5  18
TORSDOF 7
