REMARK  Name = ZINC67299112
REMARK  7 active torsions:
REMARK  status: ('A' for Active; 'I' for Inactive)
REMARK    1  A    between atoms: C_1  and  C_2
REMARK    2  A    between atoms: C_7  and  N_8
REMARK    3  A    between atoms: C_10  and  C_21
REMARK    4  A    between atoms: C_16  and  O_19
REMARK    5  A    between atoms: O_19  and  C_20
REMARK    6  A    between atoms: N_23  and  C_24
REMARK    7  A    between atoms: C_24  and  C_25
REMARK                            x       y       z     vdW  Elec       q    Type
REMARK                         _______ _______ _______ _____ _____    ______ ____
ROOT
ATOM      1  N   UNL     1      -0.036  -0.009   2.391  0.00  0.00    -0.325 N 
ATOM      2  C   UNL     1      -0.099  -0.685   3.517  0.00  0.00    +0.212 A 
ATOM      3  C   UNL     1      -0.184   0.009   4.818  0.00  0.00    +0.097 A 
ATOM      4  C   UNL     1      -0.797  -0.673   5.860  0.00  0.00    +0.030 A 
ATOM      5  C   UNL     1      -1.306  -2.018   5.578  0.00  0.00    +0.022 A 
ATOM      6  C   UNL     1      -2.163  -2.664   6.478  0.00  0.00    +0.012 A 
ATOM      7  C   UNL     1      -2.630  -3.915   6.192  0.00  0.00    +0.004 A 
ATOM      8  C   UNL     1      -2.263  -4.555   5.017  0.00  0.00    +0.049 A 
ATOM      9  C   UNL     1      -1.415  -3.937   4.114  0.00  0.00    +0.163 A 
ATOM     10  C   UNL     1      -0.927  -2.663   4.387  0.00  0.00    +0.179 A 
ATOM     11  O   UNL     1      -0.095  -2.042   3.519  0.00  0.00    -0.435 OA
ATOM     12  H   UNL     1      -0.031   0.961   2.407  0.00  0.00    +0.169 HD
ENDROOT
BRANCH   1  19
ATOM     13  C   UNL     1      -1.889   0.738   0.370  0.00  0.00    +0.046 C 
ATOM     14  C   UNL     1      -0.863  -0.347   0.168  0.00  0.00    -0.027 A 
ATOM     15  C   UNL     1      -0.794  -1.016  -1.036  0.00  0.00    +0.007 A 
ATOM     16  C   UNL     1       0.147  -2.013  -1.225  0.00  0.00    +0.020 A 
ATOM     17  C   UNL     1       1.026  -2.346  -0.207  0.00  0.00    +0.043 A 
ATOM     18  C   UNL     1       0.968  -1.684   1.003  0.00  0.00    +0.046 A 
ATOM     19  C   UNL     1       0.024  -0.673   1.197  0.00  0.00    +0.046 A 
ATOM     20 CL   UNL     1       2.202  -3.599  -0.453  0.00  0.00    -0.083 Cl
ENDBRANCH   1  19
BRANCH   3  21
ATOM     21  C   UNL     1       0.359   1.366   5.001  0.00  0.00    +0.250 C 
ATOM     22  O   UNL     1       0.835   1.964   4.055  0.00  0.00    -0.270 OA
ATOM     23  N   UNL     1       0.329   1.945   6.218  0.00  0.00    -0.304 N 
ATOM     24  H   UNL     1      -0.105   1.494   6.959  0.00  0.00    +0.149 HD
BRANCH  23  25
ATOM     25  C   UNL     1       0.953   3.255   6.422  0.00  0.00    +0.179 C 
BRANCH  25  26
ATOM     26  C   UNL     1       0.781   3.675   7.859  0.00  0.00    +0.122 A 
ATOM     27  C   UNL     1       1.636   3.411   8.863  0.00  0.00    +0.046 A 
ATOM     28  C   UNL     1       1.086   3.987  10.031  0.00  0.00    +0.041 A 
ATOM     29  C   UNL     1      -0.072   4.569   9.671  0.00  0.00    +0.195 A 
ATOM     30  O   UNL     1      -0.249   4.381   8.353  0.00  0.00    -0.466 OA
ENDBRANCH  25  26
ENDBRANCH  23  25
ENDBRANCH   3  21
BRANCH   9  31
ATOM     31  O   UNL     1      -1.060  -4.573   2.965  0.00  0.00    -0.491 OA
ATOM     32  C   UNL     1      -1.600  -5.879   2.754  0.00  0.00    +0.277 C 
ENDBRANCH   9  31
TORSDOF 5
