REMARK  Name = ZINC64873885
REMARK  11 active torsions:
REMARK  status: ('A' for Active; 'I' for Inactive)
REMARK    1  A    between atoms: C_1  and  C_2
REMARK    2  A    between atoms: C_2  and  C_3
REMARK    3  A    between atoms: C_3  and  C_5
REMARK    4  A    between atoms: C_3  and  N_6
REMARK    5  A    between atoms: N_6  and  C_7
REMARK    6  A    between atoms: N_6  and  C_30
REMARK    7  A    between atoms: C_7  and  C_8
REMARK    8  A    between atoms: C_8  and  N_9
REMARK    9  A    between atoms: C_10  and  C_12
REMARK   10  A    between atoms: N_21  and  C_29
REMARK   11  A    between atoms: C_30  and  C_31
REMARK                            x       y       z     vdW  Elec       q    Type
REMARK                         _______ _______ _______ _____ _____    ______ ____
ROOT
ATOM      1  N   UNL     1       0.441  -2.264  -4.983  0.00  0.00    -0.317 N 
ATOM      2  C   UNL     1       0.355  -3.587  -5.221  0.00  0.00    +0.216 C 
ATOM      3  O   UNL     1      -0.325  -4.290  -4.503  0.00  0.00    -0.276 OA
ATOM      4  H   UNL     1       0.985  -1.702  -5.557  0.00  0.00    +0.149 HD
ENDROOT
BRANCH   2   5
ATOM      5  C   UNL     1       1.104  -4.195  -6.379  0.00  0.00    +0.078 C 
ATOM      6  C   UNL     1       2.604  -3.946  -6.204  0.00  0.00    +0.031 C 
ATOM      7  C   UNL     1       3.359  -4.534  -7.400  0.00  0.00    +0.107 C 
ATOM      8  N   UNL     1       2.995  -5.950  -7.539  0.00  0.00    -0.311 N 
ATOM      9  C   UNL     1       1.573  -6.309  -7.624  0.00  0.00    +0.107 C 
ATOM     10  C   UNL     1       0.838  -5.701  -6.426  0.00  0.00    +0.031 C 
ATOM     11  C   UNL     1       3.972  -6.928  -7.588  0.00  0.00    +0.187 A 
ATOM     12  C   UNL     1       3.607  -8.320  -7.912  0.00  0.00    +0.292 A 
ATOM     13  O   UNL     1       2.448  -8.617  -8.136  0.00  0.00    -0.264 OA
ATOM     14  N   UNL     1       4.576  -9.260  -7.955  0.00  0.00    -0.307 N 
ATOM     15  C   UNL     1       5.883  -8.891  -7.696  0.00  0.00    +0.070 A 
ATOM     16  C   UNL     1       6.900  -9.840  -7.735  0.00  0.00    +0.028 A 
ATOM     17  C   UNL     1       8.200  -9.464  -7.475  0.00  0.00    +0.002 A 
ATOM     18  C   UNL     1       8.504  -8.143  -7.175  0.00  0.00    +0.002 A 
ATOM     19  C   UNL     1       7.522  -7.196  -7.131  0.00  0.00    +0.030 A 
ATOM     20  C   UNL     1       6.191  -7.553  -7.391  0.00  0.00    +0.090 A 
ATOM     21  N   UNL     1       5.221  -6.616  -7.354  0.00  0.00    -0.225 NA
ATOM     22  C   UNL     1       4.246 -10.652  -8.273  0.00  0.00    +0.152 C 
ENDBRANCH   2   5
BRANCH   1  23
ATOM     23  C   UNL     1      -0.287  -1.673  -3.857  0.00  0.00    +0.085 C 
BRANCH  23  24
ATOM     24  C   UNL     1      -0.021  -0.168  -3.810  0.00  0.00    -0.059 C 
BRANCH  24  25
ATOM     25  N   UNL     1      -0.659   0.406  -2.619  0.00  0.00    +0.385 N 
ATOM     26  H   UNL     1      -1.633   0.144  -2.600  0.00  0.00    -0.081 HD
BRANCH  25  27
ATOM     27  C   UNL     1       0.008  -0.102  -1.413  0.00  0.00    -0.071 C 
ATOM     28  C   UNL     1      -0.976  -0.088  -0.241  0.00  0.00    -0.013 C 
BRANCH  27  30
ATOM     29  C   UNL     1       2.264   0.648  -2.180  0.00  0.00    +0.002 C 
ATOM     30  C   UNL     1       1.209   0.786  -1.081  0.00  0.00    -0.019 C 
ENDBRANCH  27  30
ENDBRANCH  25  27
BRANCH  25  31
ATOM     31  C   UNL     1      -0.547   1.870  -2.660  0.00  0.00    -0.035 C 
BRANCH  31  32
ATOM     32  C   UNL     1      -1.387   2.470  -1.561  0.00  0.00    -0.027 A 
ATOM     33  C   UNL     1      -1.004   2.914  -0.340  0.00  0.00    +0.009 A 
ATOM     34  C   UNL     1      -1.959   3.432   0.515  0.00  0.00    +0.008 A 
ATOM     35  C   UNL     1      -3.250   3.480   0.107  0.00  0.00    +0.045 A 
ATOM     36  S   UNL     1      -3.144   2.785  -1.534  0.00  0.00    -0.103 S 
ENDBRANCH  31  32
ENDBRANCH  25  31
ENDBRANCH  24  25
ENDBRANCH  23  24
ENDBRANCH   1  23
TORSDOF 8
