REMARK  Name = ZINC02357585
REMARK  8 active torsions:
REMARK  status: ('A' for Active; 'I' for Inactive)
REMARK    1  A    between atoms: C_1  and  C_2
REMARK    2  A    between atoms: C_4  and  C_34
REMARK    3  A    between atoms: N_15  and  C_28
REMARK    4  A    between atoms: C_16  and  C_18
REMARK    5  A    between atoms: C_20  and  O_26
REMARK    6  A    between atoms: C_21  and  O_25
REMARK    7  A    between atoms: O_26  and  C_27
REMARK    8  A    between atoms: C_28  and  C_29
REMARK                            x       y       z     vdW  Elec       q    Type
REMARK                         _______ _______ _______ _____ _____    ______ ____
ROOT
ATOM      1  C   UNL     1       7.282   4.515  -0.047  0.00  0.00    +0.044 C 
ATOM      2  C   UNL     1       5.823   4.138  -0.034  0.00  0.00    -0.049 A 
ATOM      3  C   UNL     1       4.854   5.131  -0.019  0.00  0.00    +0.010 A 
ATOM      4  C   UNL     1       3.514   4.810  -0.007  0.00  0.00    -0.007 A 
ATOM      5  C   UNL     1       3.122   3.474  -0.009  0.00  0.00    +0.142 A 
ATOM      6  C   UNL     1       4.111   2.475  -0.024  0.00  0.00    +0.065 A 
ATOM      7  C   UNL     1       5.461   2.819  -0.036  0.00  0.00    +0.018 A 
ATOM      8  C   UNL     1       3.674   1.065  -0.028  0.00  0.00    +0.199 A 
ATOM      9  O   UNL     1       4.476   0.148  -0.040  0.00  0.00    -0.287 OA
ATOM     10  C   UNL     1       2.229   0.824  -0.015  0.00  0.00    +0.072 A 
ATOM     11  C   UNL     1       1.370   1.872  -0.001  0.00  0.00    +0.199 A 
ATOM     12  O   UNL     1       1.818   3.143   0.002  0.00  0.00    -0.449 OA
ATOM     13  C   UNL     1      -0.016   1.340   0.009  0.00  0.00    +0.284 C 
ATOM     14  O   UNL     1      -1.022   2.021   0.018  0.00  0.00    -0.267 OA
ATOM     15  N   UNL     1       0.002  -0.004   0.002  0.00  0.00    -0.276 N 
ATOM     16  C   UNL     1       1.405  -0.437  -0.014  0.00  0.00    +0.145 C 
ATOM     17  C   UNL     1       2.476   5.902   0.008  0.00  0.00    +0.047 C 
ENDROOT
BRANCH  16  18
ATOM     18  C   UNL     1       1.709  -1.255   1.215  0.00  0.00    -0.018 A 
ATOM     19  C   UNL     1       2.508  -2.380   1.115  0.00  0.00    +0.055 A 
ATOM     20  C   UNL     1       2.793  -3.130   2.244  0.00  0.00    +0.163 A 
ATOM     21  C   UNL     1       2.265  -2.756   3.476  0.00  0.00    +0.173 A 
ATOM     22  C   UNL     1       1.461  -1.631   3.569  0.00  0.00    +0.063 A 
ATOM     23  C   UNL     1       1.185  -0.883   2.438  0.00  0.00    +0.025 A 
ATOM     24 BR   UNL     1       0.741  -1.119   5.241  0.00  0.00    -0.046 Br
BRANCH  21  25
ATOM     25  O   UNL     1       2.537  -3.493   4.586  0.00  0.00    -0.503 OA
ATOM     26  H   UNL     1       1.903  -4.203   4.752  0.00  0.00    +0.292 HD
ENDBRANCH  21  25
BRANCH  20  27
ATOM     27  O   UNL     1       3.583  -4.233   2.147  0.00  0.00    -0.491 OA
ATOM     28  C   UNL     1       4.089  -4.557   0.851  0.00  0.00    +0.277 C 
ENDBRANCH  20  27
ENDBRANCH  16  18
BRANCH  15  29
ATOM     29  C   UNL     1      -1.171  -0.882   0.009  0.00  0.00    +0.183 C 
BRANCH  29  30
ATOM     30  C   UNL     1      -1.587  -1.176  -1.409  0.00  0.00    +0.122 A 
ATOM     31  C   UNL     1      -1.147  -2.200  -2.162  0.00  0.00    +0.046 A 
ATOM     32  C   UNL     1      -1.795  -2.095  -3.414  0.00  0.00    +0.041 A 
ATOM     33  C   UNL     1      -2.586  -1.009  -3.354  0.00  0.00    +0.195 A 
ATOM     34  O   UNL     1      -2.456  -0.456  -2.138  0.00  0.00    -0.466 OA
ENDBRANCH  29  30
ENDBRANCH  15  29
TORSDOF 5
