REMARK  Name = ZINC05486762
REMARK  12 active torsions:
REMARK  status: ('A' for Active; 'I' for Inactive)
REMARK    1  A    between atoms: C_1  and  C_2
REMARK    2  A    between atoms: C_5  and  S_8
REMARK    3  A    between atoms: S_8  and  O_11
REMARK    4  A    between atoms: O_11  and  C_12
REMARK    5  A    between atoms: C_21  and  N_29
REMARK    6  A    between atoms: C_24  and  C_27
REMARK    7  A    between atoms: C_27  and  O_28
REMARK    8  A    between atoms: N_29  and  C_30
REMARK    9  A    between atoms: C_30  and  C_31
REMARK   10  A    between atoms: C_31  and  N_60
REMARK   11  A    between atoms: C_32  and  N_60
REMARK   12  A    between atoms: C_33  and  N_60
REMARK                            x       y       z     vdW  Elec       q    Type
REMARK                         _______ _______ _______ _____ _____    ______ ____
ROOT
ATOM      1  C   UNL     1       0.374   9.941  -0.483  0.00  0.00    +0.158 A 
ATOM      2  C   UNL     1       1.633  10.534  -0.481  0.00  0.00    +0.052 A 
ATOM      3  C   UNL     1       2.772   9.764  -0.388  0.00  0.00    +0.050 A 
ATOM      4  C   UNL     1       2.675   8.379  -0.293  0.00  0.00    +0.140 A 
ATOM      5  C   UNL     1       1.406   7.782  -0.295  0.00  0.00    +0.068 A 
ATOM      6  C   UNL     1       0.257   8.566  -0.390  0.00  0.00    +0.064 A 
ATOM      7  C   UNL     1       1.311   6.310  -0.195  0.00  0.00    +0.202 A 
ATOM      8  O   UNL     1       0.236   5.739  -0.191  0.00  0.00    -0.286 OA
ATOM      9  C   UNL     1       2.581   5.569  -0.104  0.00  0.00    +0.086 A 
ATOM     10  C   UNL     1       2.591   4.170  -0.000  0.00  0.00    +0.042 A 
ATOM     11  C   UNL     1       3.804   3.502   0.089  0.00  0.00    +0.024 A 
ATOM     12  C   UNL     1       4.990   4.215   0.081  0.00  0.00    +0.011 A 
ATOM     13  C   UNL     1       4.987   5.592  -0.017  0.00  0.00    +0.021 A 
ATOM     14  C   UNL     1       3.787   6.287  -0.107  0.00  0.00    +0.146 A 
ATOM     15  O   UNL     1       3.795   7.632  -0.202  0.00  0.00    -0.454 OA
ENDROOT
BRANCH  10  16
ATOM     16  N   UNL     1       1.398   3.459   0.007  0.00  0.00    -0.345 N 
ATOM     17  H   UNL     1       0.551   3.933   0.032  0.00  0.00    +0.146 HD
BRANCH  16  18
ATOM     18  C   UNL     1       1.417   1.995  -0.023  0.00  0.00    +0.083 C 
BRANCH  18  19
ATOM     19  C   UNL     1      -0.018   1.465  -0.007  0.00  0.00    -0.061 C 
BRANCH  19  22
ATOM     20  C   UNL     1      -1.337  -0.553   0.215  0.00  0.00    -0.097 C 
ATOM     21  C   UNL     1       0.542  -0.497  -1.310  0.00  0.00    -0.097 C 
ATOM     22  N   UNL     1       0.019  -0.013  -0.016  0.00  0.00    +0.377 N 
ATOM     23  H   UNL     1       0.639  -0.335   0.736  0.00  0.00    -0.083 HD
ENDBRANCH  19  22
ENDBRANCH  18  19
ENDBRANCH  16  18
ENDBRANCH  10  16
BRANCH   1  24
ATOM     24  O   UNL     1      -0.741  10.713  -0.576  0.00  0.00    -0.342 OA
BRANCH  24  25
ATOM     25  S   UNL     1      -1.201  10.966  -2.005  0.00  0.00    +0.151 S 
ATOM     26  O   UNL     1      -2.231  11.943  -1.932  0.00  0.00    -0.131 OA
ATOM     27  O   UNL     1      -0.026  11.154  -2.782  0.00  0.00    -0.131 OA
BRANCH  25  32
ATOM     28  C   UNL     1      -3.781   5.882  -3.978  0.00  0.00    +0.044 C 
ATOM     29  C   UNL     1      -3.137   7.152  -3.485  0.00  0.00    -0.050 A 
ATOM     30  C   UNL     1      -3.901   8.113  -2.850  0.00  0.00    +0.005 A 
ATOM     31  C   UNL     1      -3.309   9.278  -2.398  0.00  0.00    +0.031 A 
ATOM     32  C   UNL     1      -1.954   9.482  -2.581  0.00  0.00    +0.128 A 
ATOM     33  C   UNL     1      -1.191   8.522  -3.220  0.00  0.00    +0.031 A 
ATOM     34  C   UNL     1      -1.782   7.355  -3.668  0.00  0.00    +0.005 A 
ENDBRANCH  25  32
ENDBRANCH  24  25
ENDBRANCH   1  24
BRANCH  13  35
ATOM     35  C   UNL     1       6.293   6.345  -0.024  0.00  0.00    +0.194 C 
BRANCH  35  36
ATOM     36  O   UNL     1       7.377   5.420   0.080  0.00  0.00    -0.390 OA
ATOM     37  H   UNL     1       8.250   5.836   0.081  0.00  0.00    +0.210 HD
ENDBRANCH  35  36
ENDBRANCH  13  35
TORSDOF 9
