REMARK  Name = ZINC36501987
REMARK  20 active torsions:
REMARK  status: ('A' for Active; 'I' for Inactive)
REMARK    1  A    between atoms: C_1  and  C_2
REMARK    2  A    between atoms: C_2  and  C_4
REMARK    3  A    between atoms: C_2  and  C_36
REMARK    4  A    between atoms: C_4  and  C_5
REMARK    5  A    between atoms: N_7  and  C_8
REMARK    6  A    between atoms: N_7  and  C_14
REMARK    7  A    between atoms: C_8  and  C_9
REMARK    8  A    between atoms: C_14  and  C_16
REMARK    9  A    between atoms: C_14  and  C_25
REMARK   10  A    between atoms: C_19  and  O_24
REMARK   11  A    between atoms: C_20  and  O_22
REMARK   12  A    between atoms: O_22  and  C_23
REMARK   13  A    between atoms: N_27  and  C_28
REMARK   14  A    between atoms: C_28  and  C_29
REMARK   15  A    between atoms: C_28  and  C_30
REMARK   16  A    between atoms: C_28  and  C_31
REMARK   17  A    between atoms: C_31  and  C_32
REMARK   18  A    between atoms: C_32  and  C_33
REMARK   19  A    between atoms: C_32  and  C_34
REMARK   20  A    between atoms: C_32  and  C_35
REMARK                            x       y       z     vdW  Elec       q    Type
REMARK                         _______ _______ _______ _____ _____    ______ ____
ROOT
ATOM      1  C   UNL     1      -1.311   0.725   5.006  0.00  0.00    +0.193 C 
ENDROOT
BRANCH   1   2
ATOM      2  C   UNL     1      -1.986  -0.503   5.561  0.00  0.00    -0.015 A 
ATOM      3  C   UNL     1      -1.416  -1.748   5.370  0.00  0.00    +0.010 A 
ATOM      4  C   UNL     1      -2.030  -2.878   5.878  0.00  0.00    +0.049 A 
ATOM      5  C   UNL     1      -3.220  -2.764   6.579  0.00  0.00    +0.158 A 
ATOM      6  C   UNL     1      -3.793  -1.510   6.772  0.00  0.00    +0.162 A 
ATOM      7  C   UNL     1      -3.169  -0.382   6.264  0.00  0.00    +0.055 A 
BRANCH   6   8
ATOM      8  O   UNL     1      -4.960  -1.393   7.460  0.00  0.00    -0.491 OA
ATOM      9  C   UNL     1      -5.490  -0.075   7.618  0.00  0.00    +0.277 C 
ENDBRANCH   6   8
BRANCH   5  10
ATOM     10  O   UNL     1      -3.826  -3.874   7.079  0.00  0.00    -0.503 OA
ATOM     11  H   UNL     1      -3.548  -4.104   7.976  0.00  0.00    +0.292 HD
ENDBRANCH   5  10
ENDBRANCH   1   2
BRANCH   1  12
ATOM     12  C   UNL     1      -0.195   1.145   5.927  0.00  0.00    +0.239 C 
ATOM     13  O   UNL     1       0.838   1.583   5.467  0.00  0.00    -0.273 OA
ATOM     14  N   UNL     1      -0.345   1.034   7.262  0.00  0.00    -0.308 N 
ATOM     15  H   UNL     1      -1.147   0.629   7.628  0.00  0.00    +0.149 HD
BRANCH  14  16
ATOM     16  C   UNL     1       0.702   1.526   8.160  0.00  0.00    +0.030 C 
ATOM     17  C   UNL     1       1.871   0.539   8.169  0.00  0.00    +0.031 C 
ATOM     18  C   UNL     1       1.191   2.892   7.673  0.00  0.00    +0.031 C 
BRANCH  16  19
ATOM     19  C   UNL     1       0.138   1.661   9.576  0.00  0.00    +0.031 C 
BRANCH  19  20
ATOM     20  C   UNL     1      -1.278   2.237   9.508  0.00  0.00    -0.036 C 
ATOM     21  C   UNL     1      -2.281   1.100   9.302  0.00  0.00    +0.010 C 
ATOM     22  C   UNL     1      -1.595   2.967  10.814  0.00  0.00    +0.010 C 
ATOM     23  C   UNL     1      -1.374   3.219   8.338  0.00  0.00    +0.010 C 
ENDBRANCH  19  20
ENDBRANCH  16  19
ENDBRANCH  14  16
ENDBRANCH   1  12
BRANCH   1  26
ATOM     24  C   UNL     1      -1.532   0.577   2.583  0.00  0.00    +0.217 C 
ATOM     25  O   UNL     1      -2.676   0.964   2.693  0.00  0.00    -0.276 OA
ATOM     26  N   UNL     1      -0.764   0.424   3.680  0.00  0.00    -0.279 N 
BRANCH  24  27
ATOM     27  C   UNL     1      -0.968   0.268   1.220  0.00  0.00    +0.104 C 
BRANCH  27  29
ATOM     28  C   UNL     1      -2.380   2.014   0.124  0.00  0.00    +0.013 C 
ATOM     29  C   UNL     1      -2.038   0.523   0.157  0.00  0.00    +0.025 C 
BRANCH  29  30
ATOM     30  C   UNL     1      -1.516   0.099  -1.192  0.00  0.00    -0.044 A 
ATOM     31  C   UNL     1      -0.377   0.686  -1.709  0.00  0.00    +0.004 A 
ATOM     32  C   UNL     1       0.101   0.297  -2.946  0.00  0.00    +0.000 A 
ATOM     33  C   UNL     1      -0.560  -0.681  -3.666  0.00  0.00    +0.000 A 
ATOM     34  C   UNL     1      -1.699  -1.270  -3.148  0.00  0.00    +0.000 A 
ATOM     35  C   UNL     1      -2.174  -0.883  -1.909  0.00  0.00    +0.004 A 
ENDBRANCH  29  30
ENDBRANCH  27  29
ENDBRANCH  24  27
BRANCH  26  36
ATOM     36  C   UNL     1       0.619  -0.043   3.548  0.00  0.00    +0.183 C 
BRANCH  36  37
ATOM     37  C   UNL     1       1.473   1.069   2.995  0.00  0.00    +0.122 A 
ATOM     38  C   UNL     1       2.400   1.763   3.679  0.00  0.00    +0.046 A 
ATOM     39  C   UNL     1       2.956   2.701   2.780  0.00  0.00    +0.041 A 
ATOM     40  C   UNL     1       2.336   2.524   1.599  0.00  0.00    +0.195 A 
ATOM     41  O   UNL     1       1.443   1.530   1.734  0.00  0.00    -0.466 OA
ENDBRANCH  36  37
ENDBRANCH  26  36
ENDBRANCH   1  26
TORSDOF 13
