REMARK  Name = ZINC13785344
REMARK  12 active torsions:
REMARK  status: ('A' for Active; 'I' for Inactive)
REMARK    1  A    between atoms: C_1  and  C_2
REMARK    2  A    between atoms: C_2  and  C_3
REMARK    3  A    between atoms: C_3  and  O_4
REMARK    4  A    between atoms: O_4  and  C_5
REMARK    5  A    between atoms: C_8  and  C_13
REMARK    6  A    between atoms: C_10  and  O_11
REMARK    7  A    between atoms: O_11  and  C_12
REMARK    8  A    between atoms: N_14  and  N_15
REMARK    9  A    between atoms: C_16  and  C_18
REMARK   10  A    between atoms: C_18  and  C_20
REMARK   11  A    between atoms: C_18  and  N_32
REMARK   12  A    between atoms: C_33  and  C_35
REMARK                            x       y       z     vdW  Elec       q    Type
REMARK                         _______ _______ _______ _____ _____    ______ ____
ROOT
ATOM      1  C   UNL     1       2.424  -8.445  -0.066  0.00  0.00    +0.212 C 
ENDROOT
BRANCH   1   2
ATOM      2  C   UNL     1       1.709  -8.953  -1.292  0.00  0.00    +0.099 A 
ATOM      3  C   UNL     1       0.255  -9.116  -1.276  0.00  0.00    +0.013 A 
ATOM      4  C   UNL     1      -0.508  -8.813  -0.147  0.00  0.00    +0.010 A 
ATOM      5  C   UNL     1      -1.864  -8.983  -0.181  0.00  0.00    +0.001 A 
ATOM      6  C   UNL     1      -2.495  -9.452  -1.326  0.00  0.00    +0.001 A 
ATOM      7  C   UNL     1      -1.768  -9.758  -2.455  0.00  0.00    +0.014 A 
ATOM      8  C   UNL     1      -0.384  -9.594  -2.443  0.00  0.00    +0.050 A 
ATOM      9  C   UNL     1       0.447  -9.902  -3.614  0.00  0.00    +0.272 A 
ATOM     10  O   UNL     1      -0.059 -10.316  -4.642  0.00  0.00    -0.266 OA
ATOM     11  N   UNL     1       1.781  -9.718  -3.529  0.00  0.00    -0.242 N 
ATOM     12  H   UNL     1       2.424  -9.946  -4.392  0.00  0.00    +0.192 HD
ATOM     13  N   UNL     1       2.384  -9.240  -2.365  0.00  0.00    -0.173 NA
ENDBRANCH   1   2
BRANCH   1  15
ATOM     14  N   UNL     1       1.222  -6.284  -0.043  0.00  0.00    -0.205 N 
ATOM     15  C   UNL     1       2.400  -6.938  -0.059  0.00  0.00    +0.259 C 
ATOM     16  O   UNL     1       3.440  -6.315  -0.066  0.00  0.00    -0.272 OA
ATOM     17  H   UNL     1       0.278  -6.849  -0.037  0.00  0.00    +0.177 HD
BRANCH  14  19
ATOM     18  C   UNL     1       0.065  -4.252  -0.021  0.00  0.00    +0.138 C 
ATOM     19  N   UNL     1       1.199  -4.883  -0.036  0.00  0.00    -0.188 NA
BRANCH  18  23
ATOM     20  C   UNL     1       0.002  -0.004   0.002  0.00  0.00    +0.162 A 
ATOM     21  C   UNL     1       1.214  -0.679  -0.019  0.00  0.00    +0.050 A 
ATOM     22  C   UNL     1       1.238  -2.058  -0.022  0.00  0.00    +0.013 A 
ATOM     23  C   UNL     1       0.041  -2.778  -0.014  0.00  0.00    -0.002 A 
ATOM     24  C   UNL     1      -1.179  -2.097   0.002  0.00  0.00    +0.059 A 
ATOM     25  C   UNL     1      -1.196  -0.715   0.010  0.00  0.00    +0.162 A 
BRANCH  25  26
ATOM     26  O   UNL     1      -2.382  -0.050   0.025  0.00  0.00    -0.491 OA
ATOM     27  C   UNL     1      -3.571  -0.842   0.032  0.00  0.00    +0.277 C 
ENDBRANCH  25  26
BRANCH  20  28
ATOM     28  O   UNL     1      -0.016   1.355   0.009  0.00  0.00    -0.488 OA
BRANCH  28  29
ATOM     29  C   UNL     1       1.248   2.021   0.001  0.00  0.00    +0.229 C 
BRANCH  29  31
ATOM     30  C   UNL     1       2.381   4.248   0.002  0.00  0.00    +0.007 C 
ATOM     31  C   UNL     1       1.027   3.535   0.011  0.00  0.00    +0.038 C 
ENDBRANCH  29  31
ENDBRANCH  28  29
ENDBRANCH  20  28
ENDBRANCH  18  23
ENDBRANCH  14  19
ENDBRANCH   1  15
BRANCH   1  32
ATOM     32  N   UNL     1       3.813  -8.911  -0.083  0.00  0.00    -0.295 N 
ATOM     33  C   UNL     1       4.120 -10.131   0.401  0.00  0.00    +0.245 C 
ATOM     34  O   UNL     1       3.245 -10.844   0.852  0.00  0.00    -0.270 OA
ATOM     35  H   UNL     1       4.605  -8.265  -0.490  0.00  0.00    +0.150 HD
BRANCH  33  36
ATOM     36  C   UNL     1       5.522 -10.601   0.385  0.00  0.00    +0.037 A 
ATOM     37  C   UNL     1       6.528  -9.786  -0.137  0.00  0.00    +0.013 A 
ATOM     38  C   UNL     1       7.835 -10.229  -0.144  0.00  0.00    +0.001 A 
ATOM     39  C   UNL     1       8.147 -11.482   0.353  0.00  0.00    +0.000 A 
ATOM     40  C   UNL     1       7.153 -12.296   0.867  0.00  0.00    +0.001 A 
ATOM     41  C   UNL     1       5.843 -11.863   0.885  0.00  0.00    +0.013 A 
ENDBRANCH  33  36
ENDBRANCH   1  32
TORSDOF 10
