REMARK  Name = ZINC36306383
REMARK  16 active torsions:
REMARK  status: ('A' for Active; 'I' for Inactive)
REMARK    1  A    between atoms: C_1  and  C_2
REMARK    2  A    between atoms: C_2  and  O_3
REMARK    3  A    between atoms: O_3  and  C_4
REMARK    4  A    between atoms: C_4  and  C_5
REMARK    5  A    between atoms: C_5  and  C_7
REMARK    6  A    between atoms: C_5  and  O_36
REMARK    7  A    between atoms: C_7  and  N_8
REMARK    8  A    between atoms: N_8  and  C_9
REMARK    9  A    between atoms: N_8  and  C_15
REMARK   10  A    between atoms: C_9  and  C_10
REMARK   11  A    between atoms: C_15  and  C_16
REMARK   12  A    between atoms: C_17  and  C_30
REMARK   13  A    between atoms: N_19  and  C_29
REMARK   14  A    between atoms: C_20  and  O_21
REMARK   15  A    between atoms: O_21  and  C_22
REMARK   16  A    between atoms: C_26  and  C_28
REMARK                            x       y       z     vdW  Elec       q    Type
REMARK                         _______ _______ _______ _____ _____    ______ ____
ROOT
ATOM      1  C   UNL     1      -6.222  -6.651  -0.354  0.00  0.00    +0.025 A 
ATOM      2  C   UNL     1      -7.104  -7.165   0.615  0.00  0.00    +0.098 A 
ATOM      3  N   UNL     1      -8.157  -7.651  -0.007  0.00  0.00    -0.168 NA
ATOM      4  N   UNL     1      -7.981  -7.462  -1.383  0.00  0.00    -0.235 N 
ATOM      5  C   UNL     1      -6.788  -6.841  -1.573  0.00  0.00    +0.221 A 
ATOM      6  C   UNL     1      -8.921  -7.859  -2.434  0.00  0.00    +0.176 C 
ENDROOT
BRANCH   2   7
ATOM      7  C   UNL     1      -6.884  -7.161   2.083  0.00  0.00    +0.002 A 
ATOM      8  C   UNL     1      -5.637  -7.500   2.604  0.00  0.00    +0.010 A 
ATOM      9  C   UNL     1      -5.438  -7.494   3.970  0.00  0.00    +0.001 A 
ATOM     10  C   UNL     1      -6.473  -7.153   4.821  0.00  0.00    +0.000 A 
ATOM     11  C   UNL     1      -7.713  -6.817   4.309  0.00  0.00    +0.001 A 
ATOM     12  C   UNL     1      -7.922  -6.814   2.945  0.00  0.00    +0.010 A 
ENDBRANCH   2   7
BRANCH   1  13
ATOM     13  C   UNL     1      -4.890  -5.999  -0.086  0.00  0.00    -0.035 C 
BRANCH  13  14
ATOM     14  N   UNL     1      -5.055  -4.539  -0.061  0.00  0.00    +0.389 N 
ATOM     15  H   UNL     1      -5.501  -4.237  -0.914  0.00  0.00    -0.081 HD
BRANCH  14  16
ATOM     16  C   UNL     1      -5.888  -4.160   1.088  0.00  0.00    -0.044 C 
BRANCH  16  17
ATOM     17  C   UNL     1      -6.163  -2.655   1.044  0.00  0.00    +0.124 C 
BRANCH  17  18
ATOM     18  O   UNL     1      -6.948  -2.349  -0.111  0.00  0.00    -0.391 OA
ATOM     19  H   UNL     1      -7.805  -2.796  -0.134  0.00  0.00    +0.210 HD
ENDBRANCH  17  18
BRANCH  17  20
ATOM     20  C   UNL     1      -6.925  -2.239   2.304  0.00  0.00    +0.189 C 
BRANCH  20  21
ATOM     21  O   UNL     1      -7.080  -0.819   2.319  0.00  0.00    -0.378 OA
BRANCH  21  23
ATOM     22  C   UNL     1      -7.888   1.201   3.371  0.00  0.00    +0.034 C 
ATOM     23  C   UNL     1      -7.782  -0.323   3.460  0.00  0.00    +0.156 C 
ENDBRANCH  21  23
ENDBRANCH  20  21
ENDBRANCH  17  20
ENDBRANCH  16  17
ENDBRANCH  14  16
BRANCH  14  24
ATOM     24  C   UNL     1      -3.738  -3.900   0.057  0.00  0.00    -0.003 C 
BRANCH  24  25
ATOM     25  C   UNL     1      -2.929  -4.183  -1.183  0.00  0.00    +0.089 A 
ATOM     26  C   UNL     1      -2.852  -3.392  -2.269  0.00  0.00    +0.042 A 
ATOM     27  C   UNL     1      -1.990  -4.038  -3.185  0.00  0.00    +0.041 A 
ATOM     28  C   UNL     1      -1.592  -5.184  -2.604  0.00  0.00    +0.195 A 
ATOM     29  O   UNL     1      -2.160  -5.264  -1.389  0.00  0.00    -0.470 OA
ENDBRANCH  24  25
ENDBRANCH  14  24
ENDBRANCH  13  14
ENDBRANCH   1  13
BRANCH   5  30
ATOM     30  O   UNL     1      -6.256  -6.478  -2.768  0.00  0.00    -0.438 OA
BRANCH  30  31
ATOM     31  C   UNL     1      -5.544  -7.406  -3.458  0.00  0.00    +0.131 A 
ATOM     32  C   UNL     1      -5.469  -8.712  -2.992  0.00  0.00    +0.046 A 
ATOM     33  C   UNL     1      -4.745  -9.654  -3.695  0.00  0.00    +0.004 A 
ATOM     34  C   UNL     1      -4.093  -9.298  -4.862  0.00  0.00    +0.003 A 
ATOM     35  C   UNL     1      -4.165  -7.998  -5.327  0.00  0.00    -0.047 A 
ATOM     36  C   UNL     1      -4.894  -7.053  -4.631  0.00  0.00    +0.049 A 
ATOM     37  C   UNL     1      -3.453  -7.613  -6.599  0.00  0.00    +0.044 C 
ENDBRANCH  30  31
ENDBRANCH   5  30
TORSDOF 13
