REMARK  Name = ZINC64128616
REMARK  4 active torsions:
REMARK  status: ('A' for Active; 'I' for Inactive)
REMARK    1  A    between atoms: C_7  and  C_10
REMARK    2  A    between atoms: C_10  and  C_11
REMARK    3  A    between atoms: C_17  and  C_20
REMARK    4  A    between atoms: C_23  and  C_26
REMARK                            x       y       z     vdW  Elec       q    Type
REMARK                         _______ _______ _______ _____ _____    ______ ____
ROOT
ATOM      1  C   UNL     1       0.460  -3.646  -1.440  0.00  0.00    +0.220 C 
ATOM      2  O   UNL     1       1.006  -3.075  -2.360  0.00  0.00    -0.275 OA
ATOM      3  N   UNL     1      -0.353  -4.693  -1.684  0.00  0.00    -0.301 N 
ATOM      4  C   UNL     1      -1.026  -5.391  -0.581  0.00  0.00    +0.108 C 
ATOM      5  C   UNL     1      -0.714  -6.888  -0.680  0.00  0.00    +0.019 C 
ATOM      6  C   UNL     1      -1.100  -7.394  -2.072  0.00  0.00    +0.011 C 
ATOM      7  C   UNL     1      -0.276  -6.657  -3.131  0.00  0.00    +0.058 C 
ATOM      8  C   UNL     1      -0.588  -5.154  -3.059  0.00  0.00    +0.115 C 
ENDROOT
BRANCH   7   9
ATOM      9  C   UNL     1      -0.638  -7.187  -4.520  0.00  0.00    +0.247 C 
ATOM     10  N   UNL     1       0.165  -6.511  -5.547  0.00  0.00    -0.342 N 
ATOM     11  C   UNL     1       0.878  -7.399  -6.168  0.00  0.00    +0.134 C 
ATOM     12  N   UNL     1       0.654  -8.659  -5.671  0.00  0.00    -0.247 N 
ATOM     13  O   UNL     1      -0.302  -8.579  -4.624  0.00  0.00    -0.248 OA
ATOM     14  H   UNL     1       1.079  -9.473  -5.986  0.00  0.00    +0.196 HD
ATOM     15  H   UNL     1       0.162  -5.559  -5.730  0.00  0.00    +0.164 HD
BRANCH  11  16
ATOM     16  C   UNL     1       1.815  -7.092  -7.272  0.00  0.00    +0.017 A 
ATOM     17  C   UNL     1       2.463  -5.858  -7.318  0.00  0.00    +0.013 A 
ATOM     18  C   UNL     1       3.335  -5.577  -8.349  0.00  0.00    +0.021 A 
ATOM     19  C   UNL     1       3.568  -6.519  -9.338  0.00  0.00    +0.041 A 
ATOM     20  C   UNL     1       2.927  -7.745  -9.298  0.00  0.00    +0.021 A 
ATOM     21  C   UNL     1       2.057  -8.039  -8.268  0.00  0.00    +0.013 A 
ATOM     22 CL   UNL     1       4.667  -6.159 -10.633  0.00  0.00    -0.084 Cl
ENDBRANCH  11  16
ENDBRANCH   7   9
BRANCH   1  23
ATOM     23  C   UNL     1       0.691  -3.186  -0.024  0.00  0.00    +0.129 C 
BRANCH  23  30
ATOM     24  C   UNL     1      -0.016   1.348   0.009  0.00  0.00    +0.001 A 
ATOM     25  C   UNL     1       1.166   2.101   0.002  0.00  0.00    +0.002 A 
ATOM     26  C   UNL     1       2.391   1.535  -0.013  0.00  0.00    +0.026 A 
ATOM     27  C   UNL     1       2.529   0.120  -0.022  0.00  0.00    +0.043 A 
ATOM     28  N   UNL     1       3.587  -0.654  -0.037  0.00  0.00    -0.380 N 
ATOM     29  C   UNL     1       3.143  -2.053  -0.041  0.00  0.00    +0.145 C 
ATOM     30  C   UNL     1       1.631  -2.008  -0.025  0.00  0.00    -0.033 C 
ATOM     31  C   UNL     1       1.295  -0.698  -0.014  0.00  0.00    -0.001 A 
ATOM     32  C   UNL     1       0.002  -0.004   0.002  0.00  0.00    +0.010 A 
ATOM     33  H   UNL     1       4.509  -0.353  -0.045  0.00  0.00    +0.160 HD
ENDBRANCH  23  30
ENDBRANCH   1  23
TORSDOF 4
