REMARK  Name = ZINC66286223
REMARK  7 active torsions:
REMARK  status: ('A' for Active; 'I' for Inactive)
REMARK    1  A    between atoms: C_1  and  C_2
REMARK    2  A    between atoms: C_5  and  C_7
REMARK    3  A    between atoms: C_9  and  C_27
REMARK    4  A    between atoms: C_10  and  C_12
REMARK    5  A    between atoms: N_14  and  C_15
REMARK    6  A    between atoms: C_17  and  N_23
REMARK    7  A    between atoms: C_24  and  C_26
REMARK                            x       y       z     vdW  Elec       q    Type
REMARK                         _______ _______ _______ _____ _____    ______ ____
ROOT
ATOM      1  C   UNL     1       3.510  -6.912  -0.049  0.00  0.00    +0.257 C 
ATOM      2  O   UNL     1       4.709  -7.122  -0.050  0.00  0.00    -0.269 OA
ATOM      3  N   UNL     1       2.645  -7.946  -0.071  0.00  0.00    -0.279 N 
ATOM      4  H   UNL     1       1.691  -7.782  -0.005  0.00  0.00    +0.155 HD
ENDROOT
BRANCH   3   5
ATOM      5  C   UNL     1       3.123  -9.257  -0.189  0.00  0.00    +0.071 A 
ATOM      6  C   UNL     1       4.327  -9.613   0.404  0.00  0.00    +0.052 A 
ATOM      7  C   UNL     1       4.798 -10.912   0.286  0.00  0.00    +0.071 A 
ATOM      8  C   UNL     1       4.065 -11.855  -0.426  0.00  0.00    +0.147 A 
ATOM      9  C   UNL     1       2.866 -11.498  -1.016  0.00  0.00    +0.080 A 
ATOM     10  C   UNL     1       2.391 -10.204  -0.895  0.00  0.00    +0.147 A 
ATOM     11  F   UNL     1       1.217  -9.860  -1.468  0.00  0.00    -0.203 F 
ATOM     12  F   UNL     1       4.524 -13.120  -0.542  0.00  0.00    -0.203 F 
BRANCH   7  13
ATOM     13  N   UNL     1       6.013 -11.274   0.883  0.00  0.00    -0.283 N 
ATOM     14  C   UNL     1       6.378 -10.720   2.057  0.00  0.00    +0.214 C 
ATOM     15  O   UNL     1       5.696  -9.850   2.556  0.00  0.00    -0.276 OA
ATOM     16  C   UNL     1       7.635 -11.182   2.749  0.00  0.00    +0.109 C 
ATOM     17  H   UNL     1       6.591 -11.922   0.452  0.00  0.00    +0.155 HD
ENDBRANCH   7  13
ENDBRANCH   3   5
BRANCH   1  21
ATOM     18  C   UNL     1       1.711  -3.192   0.015  0.00  0.00    +0.144 A 
ATOM     19  N   UNL     1       3.043  -3.215   0.019  0.00  0.00    -0.240 NA
ATOM     20  C   UNL     1       3.706  -4.337   0.000  0.00  0.00    +0.058 A 
ATOM     21  C   UNL     1       3.007  -5.538  -0.024  0.00  0.00    +0.097 A 
ATOM     22  S   UNL     1       1.322  -4.937  -0.010  0.00  0.00    -0.059 S 
ATOM     23  C   UNL     1       5.213  -4.332   0.004  0.00  0.00    +0.067 C 
BRANCH  18  28
ATOM     24  C   UNL     1       0.060   1.538   0.092  0.00  0.00    +0.086 C 
ATOM     25  C   UNL     1       0.072   0.031   0.068  0.00  0.00    +0.103 A 
ATOM     26  C   UNL     1      -1.019  -0.763   0.057  0.00  0.00    +0.045 A 
ATOM     27  C   UNL     1      -0.561  -2.093   0.035  0.00  0.00    +0.052 A 
ATOM     28  C   UNL     1       0.802  -2.039   0.034  0.00  0.00    +0.160 A 
ATOM     29  O   UNL     1       1.169  -0.742   0.049  0.00  0.00    -0.458 OA
ENDBRANCH  18  28
ENDBRANCH   1  21
TORSDOF 4
