REMARK  Name = ZINC39781003
REMARK  5 active torsions:
REMARK  status: ('A' for Active; 'I' for Inactive)
REMARK    1  A    between atoms: C_7  and  C_10
REMARK    2  A    between atoms: C_13  and  S_16
REMARK    3  A    between atoms: S_16  and  C_17
REMARK    4  A    between atoms: C_17  and  C_18
REMARK    5  A    between atoms: C_18  and  C_20
REMARK                            x       y       z     vdW  Elec       q    Type
REMARK                         _______ _______ _______ _____ _____    ______ ____
ROOT
ATOM      1  C   UNL     1       0.676  -3.129  -0.021  0.00  0.00    +0.238 C 
ATOM      2  N   UNL     1      -0.625  -3.009  -0.013  0.00  0.00    -0.145 NA
ATOM      3  N   UNL     1      -1.227  -4.276  -0.013  0.00  0.00    -0.219 N 
ATOM      4  C   UNL     1      -0.115  -5.241  -0.021  0.00  0.00    +0.339 C 
ATOM      5  O   UNL     1       1.066  -4.427  -0.031  0.00  0.00    -0.443 OA
ATOM      6  H   UNL     1      -2.177  -4.474  -0.008  0.00  0.00    +0.173 HD
ENDROOT
BRANCH   1  13
ATOM      7  C   UNL     1      -0.016   1.354   0.009  0.00  0.00    +0.001 A 
ATOM      8  C   UNL     1       1.163   2.101   0.002  0.00  0.00    +0.002 A 
ATOM      9  C   UNL     1       2.384   1.511  -0.013  0.00  0.00    +0.026 A 
ATOM     10  C   UNL     1       2.483   0.096  -0.021  0.00  0.00    +0.043 A 
ATOM     11  N   UNL     1       3.531  -0.705  -0.036  0.00  0.00    -0.380 N 
ATOM     12  C   UNL     1       3.075  -2.099  -0.039  0.00  0.00    +0.154 C 
ATOM     13  C   UNL     1       1.563  -2.044  -0.024  0.00  0.00    +0.043 C 
ATOM     14  C   UNL     1       1.237  -0.687  -0.013  0.00  0.00    +0.008 A 
ATOM     15  C   UNL     1       0.002  -0.004   0.002  0.00  0.00    +0.010 A 
ATOM     16  H   UNL     1       4.457  -0.418  -0.044  0.00  0.00    +0.160 HD
ENDBRANCH   1  13
BRANCH   4  17
ATOM     17  S   UNL     1      -0.167  -6.280   1.465  0.00  0.00    -0.088 S 
BRANCH  17  18
ATOM     18  C   UNL     1      -0.019  -5.097   2.832  0.00  0.00    +0.154 C 
BRANCH  18  19
ATOM     19  C   UNL     1      -0.048  -5.838   4.144  0.00  0.00    +0.173 C 
ATOM     20  O   UNL     1      -0.158  -7.046   4.155  0.00  0.00    -0.291 OA
BRANCH  19  21
ATOM     21  C   UNL     1       0.056  -5.097   5.411  0.00  0.00    +0.019 A 
ATOM     22  C   UNL     1       0.178  -3.704   5.405  0.00  0.00    +0.011 A 
ATOM     23  C   UNL     1       0.278  -3.026   6.598  0.00  0.00    +0.004 A 
ATOM     24  C   UNL     1       0.257  -3.710   7.810  0.00  0.00    -0.044 A 
ATOM     25  C   UNL     1       0.133  -5.083   7.823  0.00  0.00    -0.044 A 
ATOM     26  C   UNL     1       0.030  -5.778   6.629  0.00  0.00    +0.015 A 
ATOM     27  C   UNL     1       0.088  -5.880   9.101  0.00  0.00    +0.035 C 
ATOM     28  C   UNL     1       0.629  -5.056  10.268  0.00  0.00    +0.005 C 
ATOM     29  C   UNL     1      -0.092  -3.704  10.280  0.00  0.00    +0.005 C 
ATOM     30  C   UNL     1       0.379  -2.896   9.072  0.00  0.00    +0.035 C 
ENDBRANCH  19  21
ENDBRANCH  18  19
ENDBRANCH  17  18
ENDBRANCH   4  17
TORSDOF 5
