REMARK  Name = ZINC15084073
REMARK  9 active torsions:
REMARK  status: ('A' for Active; 'I' for Inactive)
REMARK    1  A    between atoms: C_1  and  C_2
REMARK    2  A    between atoms: C_4  and  C_21
REMARK    3  A    between atoms: C_8  and  C_9
REMARK    4  A    between atoms: N_11  and  N_12
REMARK    5  A    between atoms: C_13  and  C_14
REMARK    6  A    between atoms: C_22  and  O_33
REMARK    7  A    between atoms: C_23  and  O_31
REMARK    8  A    between atoms: O_31  and  C_32
REMARK    9  A    between atoms: O_33  and  C_34
REMARK                            x       y       z     vdW  Elec       q    Type
REMARK                         _______ _______ _______ _____ _____    ______ ____
ROOT
ATOM      1  C   UNL     1       3.974   0.799  -2.005  0.00  0.00    +0.018 C 
ATOM      2  C   UNL     1       4.389  -0.511  -1.332  0.00  0.00    +0.091 C 
ATOM      3  C   UNL     1       3.640  -0.702   0.009  0.00  0.00    +0.248 C 
ATOM      4  O   UNL     1       4.581  -0.150   0.952  0.00  0.00    -0.385 OA
ATOM      5  N   UNL     1       5.871  -0.257   0.382  0.00  0.00    -0.083 NA
ATOM      6  C   UNL     1       5.840  -0.455  -0.893  0.00  0.00    +0.150 C 
ENDROOT
BRANCH   3   7
ATOM      7  C   UNL     1       2.348   0.073   0.020  0.00  0.00    +0.059 A 
ATOM      8  C   UNL     1       2.226   1.203   0.814  0.00  0.00    +0.173 A 
ATOM      9  C   UNL     1       1.034   1.919   0.825  0.00  0.00    +0.208 A 
ATOM     10  C   UNL     1      -0.032   1.501   0.040  0.00  0.00    +0.212 A 
ATOM     11  C   UNL     1       0.095   0.367  -0.756  0.00  0.00    +0.184 A 
ATOM     12  C   UNL     1       1.286  -0.343  -0.762  0.00  0.00    +0.074 A 
ATOM     13 BR   UNL     1       1.459  -1.885  -1.844  0.00  0.00    -0.046 Br
ATOM     14  O   UNL     1      -1.079   0.169  -1.425  0.00  0.00    -0.451 OA
ATOM     15  C   UNL     1      -1.785   1.421  -1.343  0.00  0.00    +0.467 C 
ATOM     16  O   UNL     1      -1.285   2.018  -0.134  0.00  0.00    -0.449 OA
BRANCH   9  17
ATOM     17  O   UNL     1       0.913   3.028   1.604  0.00  0.00    -0.488 OA
ATOM     18  C   UNL     1       0.329   2.853   2.896  0.00  0.00    +0.277 C 
ENDBRANCH   9  17
BRANCH   8  19
ATOM     19  O   UNL     1       3.272   1.611   1.583  0.00  0.00    -0.491 OA
ATOM     20  C   UNL     1       4.097   2.652   1.056  0.00  0.00    +0.277 C 
ENDBRANCH   8  19
ENDBRANCH   3   7
BRANCH   6  21
ATOM     21  C   UNL     1       7.015  -0.602  -1.773  0.00  0.00    +0.281 C 
ATOM     22  O   UNL     1       6.863  -0.786  -2.965  0.00  0.00    -0.267 OA
ATOM     23  N   UNL     1       8.258  -0.532  -1.255  0.00  0.00    -0.202 N 
ATOM     24  H   UNL     1       8.379  -0.385  -0.304  0.00  0.00    +0.178 HD
BRANCH  23  25
ATOM     25  N   UNL     1       9.373  -0.672  -2.091  0.00  0.00    -0.187 NA
ATOM     26  C   UNL     1      10.570  -0.605  -1.592  0.00  0.00    +0.138 C 
BRANCH  26  27
ATOM     27  C   UNL     1      11.745  -0.752  -2.471  0.00  0.00    -0.003 A 
ATOM     28  C   UNL     1      11.573  -0.969  -3.841  0.00  0.00    +0.009 A 
ATOM     29  C   UNL     1      12.675  -1.101  -4.660  0.00  0.00    +0.003 A 
ATOM     30  C   UNL     1      13.950  -1.030  -4.127  0.00  0.00    +0.038 A 
ATOM     31  C   UNL     1      14.129  -0.819  -2.769  0.00  0.00    +0.124 A 
ATOM     32  C   UNL     1      13.033  -0.680  -1.938  0.00  0.00    +0.047 A 
ATOM     33  F   UNL     1      15.377  -0.751  -2.256  0.00  0.00    -0.205 F 
ENDBRANCH  26  27
ENDBRANCH  23  25
ENDBRANCH   6  21
TORSDOF 6
