REMARK  Name = ZINC60365783
REMARK  2 active torsions:
REMARK  status: ('A' for Active; 'I' for Inactive)
REMARK    1  A    between atoms: C_4  and  C_7
REMARK    2  A    between atoms: C_9  and  C_17
REMARK                            x       y       z     vdW  Elec       q    Type
REMARK                         _______ _______ _______ _____ _____    ______ ____
ROOT
ATOM      1  C   UNL     1       3.696  -0.686  -0.038  0.00  0.00    +0.142 A 
ATOM      2  N   UNL     1       4.848  -0.178  -0.406  0.00  0.00    -0.223 NA
ATOM      3  C   UNL     1       5.806  -1.123  -0.283  0.00  0.00    +0.147 A 
ATOM      4  C   UNL     1       5.212  -2.257   0.184  0.00  0.00    +0.051 A 
ATOM      5  N   UNL     1       3.889  -1.986   0.332  0.00  0.00    -0.327 N 
ATOM      6  C   UNL     1       2.861  -2.925   0.788  0.00  0.00    +0.123 C 
ATOM      7  C   UNL     1       3.497  -3.971   1.707  0.00  0.00    +0.022 C 
ATOM      8  C   UNL     1       3.991  -5.156   0.880  0.00  0.00    +0.002 C 
ATOM      9  C   UNL     1       5.060  -4.707  -0.111  0.00  0.00    +0.006 C 
ATOM     10  C   UNL     1       5.879  -3.571   0.496  0.00  0.00    +0.056 C 
ENDROOT
BRANCH   3  11
ATOM     11  C   UNL     1       7.236  -0.957  -0.598  0.00  0.00    +0.269 C 
ATOM     12  O   UNL     1       8.004  -1.888  -0.444  0.00  0.00    -0.268 OA
ATOM     13  N   UNL     1       7.692   0.225  -1.055  0.00  0.00    -0.264 N 
ATOM     14  C   UNL     1       9.052   0.383  -1.355  0.00  0.00    +0.147 A 
ATOM     15  C   UNL     1      10.043  -0.604  -1.230  0.00  0.00    +0.064 A 
ATOM     16  C   UNL     1      11.220  -0.060  -1.616  0.00  0.00    +0.107 A 
ATOM     17  N   UNL     1      10.987   1.221  -1.972  0.00  0.00    -0.283 N 
ATOM     18  H   UNL     1      11.650   1.853  -2.291  0.00  0.00    +0.188 HD
ATOM     19  N   UNL     1       9.620   1.476  -1.805  0.00  0.00    -0.159 NA
ATOM     20  H   UNL     1       7.080   0.967  -1.178  0.00  0.00    +0.157 HD
ENDBRANCH   3  11
BRANCH   1  24
ATOM     21  C   UNL     1      -0.017   1.379   0.010  0.00  0.00    +0.000 A 
ATOM     22  C   UNL     1       1.168   2.093   0.000  0.00  0.00    +0.001 A 
ATOM     23  C   UNL     1       2.377   1.428  -0.015  0.00  0.00    +0.011 A 
ATOM     24  C   UNL     1       2.403   0.034  -0.021  0.00  0.00    +0.017 A 
ATOM     25  C   UNL     1       1.204  -0.680  -0.011  0.00  0.00    +0.011 A 
ATOM     26  C   UNL     1       0.002  -0.004   0.004  0.00  0.00    +0.001 A 
ENDBRANCH   1  24
TORSDOF 2
