REMARK  Name = ZINC20611949
REMARK  7 active torsions:
REMARK  status: ('A' for Active; 'I' for Inactive)
REMARK    1  A    between atoms: C_1  and  C_2
REMARK    2  A    between atoms: C_6  and  C_41
REMARK    3  A    between atoms: C_17  and  C_19
REMARK    4  A    between atoms: C_19  and  N_20
REMARK    5  A    between atoms: N_23  and  C_26
REMARK    6  A    between atoms: C_26  and  C_27
REMARK    7  A    between atoms: C_26  and  C_34
REMARK                            x       y       z     vdW  Elec       q    Type
REMARK                         _______ _______ _______ _____ _____    ______ ____
ROOT
ATOM      1  N   UNL     1      -7.663   0.756  -0.802  0.00  0.00    +0.382 N 
ATOM      2  C   UNL     1      -7.796   0.357  -2.210  0.00  0.00    -0.063 C 
ATOM      3  C   UNL     1      -9.075  -0.465  -2.386  0.00  0.00    +0.067 C 
ATOM      4  N   UNL     1     -10.231   0.334  -1.956  0.00  0.00    -0.295 NA
ATOM      5  C   UNL     1     -10.098   0.733  -0.548  0.00  0.00    +0.067 C 
ATOM      6  C   UNL     1      -8.819   1.555  -0.373  0.00  0.00    -0.063 C 
ATOM      7  H   UNL     1      -7.636  -0.158  -0.191  0.00  0.00    -0.082 HD
ENDROOT
BRANCH   1   8
ATOM      8  C   UNL     1      -6.407   1.484  -0.578  0.00  0.00    -0.063 C 
BRANCH   8  23
ATOM      9  C   UNL     1      -5.980   6.400   2.494  0.00  0.00    +0.044 C 
ATOM     10  C   UNL     1      -5.446   5.360   3.445  0.00  0.00    -0.051 C 
ATOM     11  C   UNL     1      -5.135   5.685   4.688  0.00  0.00    -0.023 C 
ATOM     12  C   UNL     1      -4.619   4.727   5.716  0.00  0.00    +0.028 C 
ATOM     13  C   UNL     1      -4.080   3.442   5.082  0.00  0.00    +0.015 C 
ATOM     14  C   UNL     1      -5.110   2.929   4.078  0.00  0.00    -0.003 C 
ATOM     15  C   UNL     1      -5.264   3.960   3.001  0.00  0.00    -0.042 C 
ATOM     16  C   UNL     1      -5.171   3.677   1.720  0.00  0.00    -0.015 C 
ATOM     17  C   UNL     1      -4.827   2.330   1.198  0.00  0.00    +0.065 C 
ATOM     18  C   UNL     1      -4.086   1.477   2.255  0.00  0.00    +0.185 C 
ATOM     19  C   UNL     1      -4.833   1.540   3.587  0.00  0.00    +0.056 C 
ATOM     20  O   UNL     1      -4.321   0.117   1.722  0.00  0.00    -0.461 OA
ATOM     21  C   UNL     1      -5.613   0.063   1.329  0.00  0.00    +0.309 C 
ATOM     22  O   UNL     1      -6.300  -0.931   1.312  0.00  0.00    -0.251 OA
ATOM     23  C   UNL     1      -6.060   1.454   0.912  0.00  0.00    +0.092 C 
ATOM     24  C   UNL     1      -6.448   2.864   4.817  0.00  0.00    +0.016 C 
ENDBRANCH   8  23
ENDBRANCH   1   8
BRANCH   4  25
ATOM     25  C   UNL     1     -11.487  -0.395  -2.181  0.00  0.00    +0.117 C 
BRANCH  25  26
ATOM     26  C   UNL     1     -12.653   0.510  -1.877  0.00  0.00    -0.026 A 
ATOM     27  C   UNL     1     -12.613   1.839  -2.255  0.00  0.00    +0.008 A 
ATOM     28  C   UNL     1     -13.684   2.669  -1.981  0.00  0.00    +0.038 A 
ATOM     29  C   UNL     1     -14.794   2.170  -1.319  0.00  0.00    +0.123 A 
ATOM     30  C   UNL     1     -14.831   0.840  -0.937  0.00  0.00    +0.038 A 
ATOM     31  C   UNL     1     -13.761   0.011  -1.217  0.00  0.00    +0.008 A 
ATOM     32  F   UNL     1     -15.839   2.981  -1.047  0.00  0.00    -0.205 F 
ENDBRANCH  25  26
BRANCH  25  33
ATOM     33  C   UNL     1     -11.559  -0.841  -3.619  0.00  0.00    -0.026 A 
ATOM     34  C   UNL     1     -11.236   0.041  -4.633  0.00  0.00    +0.008 A 
ATOM     35  C   UNL     1     -11.297  -0.369  -5.951  0.00  0.00    +0.038 A 
ATOM     36  C   UNL     1     -11.691  -1.661  -6.256  0.00  0.00    +0.123 A 
ATOM     37  C   UNL     1     -12.019  -2.542  -5.240  0.00  0.00    +0.038 A 
ATOM     38  C   UNL     1     -11.952  -2.131  -3.922  0.00  0.00    +0.008 A 
ATOM     39  F   UNL     1     -11.755  -2.061  -7.545  0.00  0.00    -0.205 F 
ENDBRANCH  25  33
ENDBRANCH   4  25
TORSDOF 5
