REMARK  Name = ZINC37380046
REMARK  7 active torsions:
REMARK  status: ('A' for Active; 'I' for Inactive)
REMARK    1  A    between atoms: C_1  and  C_2
REMARK    2  A    between atoms: C_6  and  C_21
REMARK    3  A    between atoms: C_8  and  N_9
REMARK    4  A    between atoms: N_12  and  C_15
REMARK    5  A    between atoms: C_15  and  C_16
REMARK    6  A    between atoms: C_21  and  C_22
REMARK    7  A    between atoms: N_28  and  C_30
REMARK                            x       y       z     vdW  Elec       q    Type
REMARK                         _______ _______ _______ _____ _____    ______ ____
ROOT
ATOM      1  C   UNL     1       0.542   1.492  -0.090  0.00  0.00    +0.068 C 
ATOM      2  C   UNL     1       0.465  -0.013  -0.081  0.00  0.00    +0.073 A 
ATOM      3  C   UNL     1       0.125  -0.828  -1.183  0.00  0.00    +0.082 A 
ATOM      4  C   UNL     1       0.174  -2.164  -0.738  0.00  0.00    +0.169 A 
ATOM      5  N   UNL     1      -0.110  -3.138  -1.600  0.00  0.00    -0.212 NA
ATOM      6  C   UNL     1      -0.431  -2.861  -2.845  0.00  0.00    +0.138 A 
ATOM      7  N   UNL     1      -0.489  -1.625  -3.307  0.00  0.00    -0.216 NA
ATOM      8  C   UNL     1      -0.223  -0.584  -2.525  0.00  0.00    +0.136 A 
ATOM      9  N   UNL     1       0.531  -2.122   0.580  0.00  0.00    -0.214 N 
ATOM     10  N   UNL     1       0.705  -0.781   0.944  0.00  0.00    -0.169 NA
ENDROOT
BRANCH   8  11
ATOM     11  N   UNL     1      -0.287   0.705  -3.016  0.00  0.00    -0.318 N 
ATOM     12  C   UNL     1       0.920   1.388  -3.509  0.00  0.00    +0.088 C 
ATOM     13  C   UNL     1       0.620   1.962  -4.897  0.00  0.00    -0.059 C 
ATOM     14  N   UNL     1      -0.573   2.815  -4.827  0.00  0.00    +0.385 N 
ATOM     15  C   UNL     1      -1.746   2.006  -4.472  0.00  0.00    -0.059 C 
ATOM     16  C   UNL     1      -1.565   1.432  -3.068  0.00  0.00    +0.088 C 
ATOM     17  H   UNL     1      -0.433   3.528  -4.127  0.00  0.00    -0.081 HD
BRANCH  14  18
ATOM     18  C   UNL     1      -0.795   3.451  -6.132  0.00  0.00    -0.035 C 
BRANCH  18  19
ATOM     19  C   UNL     1      -1.944   4.421  -6.028  0.00  0.00    -0.027 A 
ATOM     20  C   UNL     1      -1.923   5.739  -5.715  0.00  0.00    +0.009 A 
ATOM     21  C   UNL     1      -3.115   6.439  -5.680  0.00  0.00    +0.008 A 
ATOM     22  C   UNL     1      -4.269   5.787  -5.961  0.00  0.00    +0.045 A 
ATOM     23  S   UNL     1      -3.686   4.133  -6.294  0.00  0.00    -0.103 S 
ENDBRANCH  18  19
ENDBRANCH  14  18
ENDBRANCH   8  11
BRANCH   9  24
ATOM     24  C   UNL     1       0.698  -3.230   1.421  0.00  0.00    +0.068 A 
ATOM     25  C   UNL     1      -0.112  -4.348   1.269  0.00  0.00    +0.030 A 
ATOM     26  C   UNL     1       0.055  -5.439   2.099  0.00  0.00    +0.040 A 
ATOM     27  C   UNL     1       1.030  -5.419   3.082  0.00  0.00    +0.124 A 
ATOM     28  C   UNL     1       1.838  -4.305   3.236  0.00  0.00    +0.040 A 
ATOM     29  C   UNL     1       1.678  -3.214   2.405  0.00  0.00    +0.030 A 
ATOM     30  F   UNL     1       1.192  -6.488   3.893  0.00  0.00    -0.205 F 
ENDBRANCH   9  24
BRANCH   6  31
ATOM     31  C   UNL     1      -0.744  -3.999  -3.782  0.00  0.00    +0.111 C 
BRANCH  31  32
ATOM     32  C   UNL     1      -2.218  -4.306  -3.725  0.00  0.00    -0.040 A 
ATOM     33  C   UNL     1      -2.698  -5.224  -2.811  0.00  0.00    +0.004 A 
ATOM     34  C   UNL     1      -4.051  -5.505  -2.758  0.00  0.00    +0.000 A 
ATOM     35  C   UNL     1      -4.923  -4.868  -3.620  0.00  0.00    +0.000 A 
ATOM     36  C   UNL     1      -4.443  -3.948  -4.534  0.00  0.00    +0.000 A 
ATOM     37  C   UNL     1      -3.091  -3.664  -4.583  0.00  0.00    +0.004 A 
ENDBRANCH  31  32
ENDBRANCH   6  31
TORSDOF 6
