REMARK  Name = ZINC09949640
REMARK  6 active torsions:
REMARK  status: ('A' for Active; 'I' for Inactive)
REMARK    1  A    between atoms: C_1  and  C_2
REMARK    2  A    between atoms: C_3  and  C_14
REMARK    3  A    between atoms: C_6  and  C_7
REMARK    4  A    between atoms: C_14  and  N_57
REMARK    5  A    between atoms: N_17  and  C_20
REMARK    6  A    between atoms: N_23  and  C_28
REMARK                            x       y       z     vdW  Elec       q    Type
REMARK                         _______ _______ _______ _____ _____    ______ ____
ROOT
ATOM      1  C   UNL     1       0.245  -2.032   0.897  0.00  0.00    -0.059 C 
ATOM      2  C   UNL     1       0.204  -0.508   0.772  0.00  0.00    +0.086 C 
ATOM      3  N   UNL     1       0.267  -0.134  -0.648  0.00  0.00    -0.331 N 
ATOM      4  C   UNL     1      -0.858  -0.715  -1.393  0.00  0.00    +0.086 C 
ATOM      5  C   UNL     1      -0.817  -2.240  -1.268  0.00  0.00    -0.059 C 
ATOM      6  N   UNL     1      -0.904  -2.602   0.163  0.00  0.00    +0.385 N 
ATOM      7  H   UNL     1      -1.772  -2.218   0.552  0.00  0.00    -0.081 HD
ENDROOT
BRANCH   3   8
ATOM      8  C   UNL     1       0.304   1.243  -0.798  0.00  0.00    +0.074 A 
ATOM      9  C   UNL     1      -0.755   2.040  -0.316  0.00  0.00    +0.158 A 
ATOM     10  N   UNL     1      -0.720   3.336  -0.451  0.00  0.00    -0.170 NA
ATOM     11  N   UNL     1       0.356   3.966  -1.084  0.00  0.00    -0.195 N 
ATOM     12  C   UNL     1       1.387   3.243  -1.564  0.00  0.00    +0.292 A 
ATOM     13  O   UNL     1       2.324   3.800  -2.116  0.00  0.00    -0.264 OA
ATOM     14  C   UNL     1       1.378   1.848  -1.427  0.00  0.00    +0.129 A 
ATOM     15 CL   UNL     1       2.693   0.894  -2.037  0.00  0.00    -0.076 Cl
BRANCH  11  16
ATOM     16  C   UNL     1       0.363   5.359  -1.220  0.00  0.00    +0.069 A 
ATOM     17  C   UNL     1       1.485   6.089  -0.847  0.00  0.00    +0.028 A 
ATOM     18  C   UNL     1       1.490   7.463  -0.988  0.00  0.00    +0.002 A 
ATOM     19  C   UNL     1       0.377   8.113  -1.488  0.00  0.00    +0.000 A 
ATOM     20  C   UNL     1      -0.744   7.390  -1.854  0.00  0.00    +0.002 A 
ATOM     21  C   UNL     1      -0.754   6.015  -1.722  0.00  0.00    +0.028 A 
ENDBRANCH  11  16
ENDBRANCH   3   8
BRANCH   6  22
ATOM     22  C   UNL     1      -0.919  -4.073   0.311  0.00  0.00    -0.019 C 
BRANCH  22  25
ATOM     23  C   UNL     1      -1.466  -5.045  -2.731  0.00  0.00    +0.049 C 
ATOM     24  C   UNL     1      -2.440  -5.026  -1.581  0.00  0.00    +0.018 A 
ATOM     25  C   UNL     1      -2.211  -4.606  -0.255  0.00  0.00    +0.071 A 
ATOM     26  N   UNL     1      -3.332  -4.772   0.388  0.00  0.00    -0.084 NA
ATOM     27  O   UNL     1      -4.201  -5.214  -0.327  0.00  0.00    -0.354 OA
ATOM     28  C   UNL     1      -3.752  -5.415  -1.579  0.00  0.00    +0.170 A 
BRANCH  28  29
ATOM     29  C   UNL     1      -4.521  -5.947  -2.724  0.00  0.00    +0.020 A 
ATOM     30  C   UNL     1      -5.800  -5.458  -2.997  0.00  0.00    +0.014 A 
ATOM     31  C   UNL     1      -6.511  -5.955  -4.069  0.00  0.00    +0.039 A 
ATOM     32  C   UNL     1      -5.963  -6.947  -4.867  0.00  0.00    +0.123 A 
ATOM     33  C   UNL     1      -4.697  -7.440  -4.597  0.00  0.00    +0.039 A 
ATOM     34  C   UNL     1      -3.975  -6.946  -3.531  0.00  0.00    +0.014 A 
ATOM     35  F   UNL     1      -6.667  -7.434  -5.912  0.00  0.00    -0.205 F 
ENDBRANCH  28  29
ENDBRANCH  22  25
ENDBRANCH   6  22
TORSDOF 5
