REMARK  Name = ZINC39435994
REMARK  9 active torsions:
REMARK  status: ('A' for Active; 'I' for Inactive)
REMARK    1  A    between atoms: C_1  and  C_2
REMARK    2  A    between atoms: C_6  and  C_12
REMARK    3  A    between atoms: C_10  and  C_11
REMARK    4  A    between atoms: C_12  and  C_30
REMARK    5  A    between atoms: C_13  and  C_14
REMARK    6  A    between atoms: C_16  and  C_29
REMARK    7  A    between atoms: N_17  and  C_20
REMARK    8  A    between atoms: C_18  and  C_19
REMARK    9  A    between atoms: C_23  and  C_26
REMARK                            x       y       z     vdW  Elec       q    Type
REMARK                         _______ _______ _______ _____ _____    ______ ____
ROOT
ATOM      1  C   UNL     1      -1.120  -4.928  -2.412  0.00  0.00    +0.072 C 
ATOM      2  C   UNL     1      -1.043  -6.250  -2.679  0.00  0.00    +0.028 C 
ENDROOT
BRANCH   1   8
ATOM      3  C   UNL     1       0.639   1.831  -2.174  0.00  0.00    +0.044 C 
ATOM      4  C   UNL     1       0.422   0.403  -1.743  0.00  0.00    -0.045 A 
ATOM      5  C   UNL     1       0.559  -0.577  -2.659  0.00  0.00    +0.031 A 
ATOM      6  C   UNL     1       0.353  -1.976  -2.259  0.00  0.00    +0.061 A 
ATOM      7  N   UNL     1       0.416  -3.101  -2.911  0.00  0.00    -0.359 N 
ATOM      8  C   UNL     1       0.107  -4.178  -1.962  0.00  0.00    +0.216 C 
ATOM      9  N   UNL     1      -0.145  -3.530  -0.668  0.00  0.00    -0.359 N 
ATOM     10  C   UNL     1      -0.002  -2.248  -0.839  0.00  0.00    +0.061 A 
ATOM     11  C   UNL     1      -0.123  -1.099   0.069  0.00  0.00    +0.031 A 
ATOM     12  C   UNL     1       0.092   0.146  -0.401  0.00  0.00    -0.045 A 
ATOM     13  C   UNL     1      -0.032   1.310   0.549  0.00  0.00    +0.044 C 
ATOM     14  H   UNL     1       0.628  -3.208  -3.851  0.00  0.00    +0.162 HD
ATOM     15  H   UNL     1      -0.376  -3.976   0.162  0.00  0.00    +0.162 HD
ENDBRANCH   1   8
BRANCH   2  16
ATOM     16  C   UNL     1      -2.264  -7.012  -2.973  0.00  0.00    -0.003 A 
ATOM     17  C   UNL     1      -3.647  -6.606  -2.694  0.00  0.00    +0.031 A 
ATOM     18  C   UNL     1      -4.436  -7.603  -3.129  0.00  0.00    +0.022 A 
ATOM     19  N   UNL     1      -3.655  -8.595  -3.655  0.00  0.00    -0.317 N 
ATOM     20  C   UNL     1      -2.344  -8.251  -3.572  0.00  0.00    +0.028 A 
ATOM     21  C   UNL     1      -1.180  -9.081  -4.050  0.00  0.00    +0.064 C 
ATOM     22  C   UNL     1      -5.940  -7.625  -3.049  0.00  0.00    +0.064 C 
BRANCH  19  23
ATOM     23  C   UNL     1      -4.137  -9.787  -4.201  0.00  0.00    +0.047 A 
ATOM     24  C   UNL     1      -3.845 -11.000  -3.586  0.00  0.00    +0.027 A 
ATOM     25  C   UNL     1      -4.318 -12.177  -4.121  0.00  0.00    +0.017 A 
ATOM     26  C   UNL     1      -5.093 -12.152  -5.285  0.00  0.00    +0.063 A 
ATOM     27  C   UNL     1      -5.384 -10.930  -5.901  0.00  0.00    +0.017 A 
ATOM     28  C   UNL     1      -4.912  -9.757  -5.356  0.00  0.00    +0.027 A 
BRANCH  26  29
ATOM     29  C   UNL     1      -5.601 -13.408  -5.862  0.00  0.00    +0.387 C 
ATOM     30  O   UNL     1      -5.345 -14.476  -5.322  0.00  0.00    -0.241 OA
ATOM     31  O   UNL     1      -6.279 -13.384  -6.880  0.00  0.00    -0.241 OA
ENDBRANCH  26  29
ENDBRANCH  19  23
ENDBRANCH   2  16
BRANCH   1  32
ATOM     32  C   UNL     1      -2.367  -4.239  -2.558  0.00  0.00    +0.099 C 
ATOM     33  N   UNL     1      -3.356  -3.693  -2.673  0.00  0.00    -0.191 NA
ENDBRANCH   1  32
TORSDOF 5
