REMARK  Name = ZINC05851455
REMARK  5 active torsions:
REMARK  status: ('A' for Active; 'I' for Inactive)
REMARK    1  A    between atoms: C_4  and  C_7
REMARK    2  A    between atoms: N_17  and  N_18
REMARK    3  A    between atoms: C_19  and  C_32
REMARK    4  A    between atoms: C_22  and  C_23
REMARK    5  A    between atoms: C_28  and  O_29
REMARK                            x       y       z     vdW  Elec       q    Type
REMARK                         _______ _______ _______ _____ _____    ______ ____
ROOT
ATOM      1  N   UNL     1       1.131   1.277   0.520  0.00  0.00    -0.148 N 
ATOM      2  C   UNL     1       0.530   2.370   1.097  0.00  0.00    +0.155 C 
ATOM      3  N   UNL     1       1.270   3.438   0.960  0.00  0.00    -0.225 NA
ATOM      4  C   UNL     1       2.403   3.115   0.274  0.00  0.00    +0.130 C 
ATOM      5  C   UNL     1       3.432   3.965  -0.076  0.00  0.00    +0.044 C 
ATOM      6  C   UNL     1       2.306   1.674  -0.016  0.00  0.00    +0.289 C 
ATOM      7  O   UNL     1       3.114   0.986  -0.614  0.00  0.00    -0.266 OA
ENDROOT
BRANCH   1  18
ATOM      8  C   UNL     1      -0.333  -0.357  -0.443  0.00  0.00    +0.162 A 
ATOM      9  N   UNL     1      -0.856  -1.552  -0.534  0.00  0.00    -0.227 NA
ATOM     10  C   UNL     1      -0.501  -2.546   0.305  0.00  0.00    +0.079 A 
ATOM     11  C   UNL     1      -1.066  -3.821   0.209  0.00  0.00    +0.028 A 
ATOM     12  C   UNL     1      -0.681  -4.802   1.078  0.00  0.00    +0.002 A 
ATOM     13  C   UNL     1       0.268  -4.554   2.061  0.00  0.00    +0.001 A 
ATOM     14  C   UNL     1       0.844  -3.307   2.181  0.00  0.00    +0.015 A 
ATOM     15  C   UNL     1       0.465  -2.292   1.305  0.00  0.00    +0.066 A 
ATOM     16  C   UNL     1       1.044  -0.943   1.384  0.00  0.00    +0.280 A 
ATOM     17  O   UNL     1       1.881  -0.662   2.223  0.00  0.00    -0.265 OA
ATOM     18  N   UNL     1       0.612  -0.024   0.489  0.00  0.00    -0.196 N 
BRANCH   8  22
ATOM     19  C   UNL     1      -1.614   2.627  -3.181  0.00  0.00    +0.000 A 
ATOM     20  C   UNL     1      -0.271   2.509  -2.869  0.00  0.00    +0.001 A 
ATOM     21  C   UNL     1       0.152   1.542  -1.980  0.00  0.00    +0.011 A 
ATOM     22  C   UNL     1      -0.778   0.681  -1.396  0.00  0.00    +0.019 A 
ATOM     23  C   UNL     1      -2.131   0.802  -1.719  0.00  0.00    +0.011 A 
ATOM     24  C   UNL     1      -2.541   1.777  -2.604  0.00  0.00    +0.001 A 
ENDBRANCH   8  22
ENDBRANCH   1  18
BRANCH   5  25
ATOM     25  C   UNL     1       3.309   5.403   0.170  0.00  0.00    +0.019 A 
ATOM     26  C   UNL     1       2.051   5.974   0.407  0.00  0.00    +0.011 A 
ATOM     27  C   UNL     1       1.945   7.327   0.639  0.00  0.00    +0.001 A 
ATOM     28  C   UNL     1       3.076   8.128   0.639  0.00  0.00    +0.004 A 
ATOM     29  C   UNL     1       4.323   7.581   0.407  0.00  0.00    +0.046 A 
ATOM     30  C   UNL     1       4.454   6.221   0.177  0.00  0.00    +0.124 A 
BRANCH  30  31
ATOM     31  O   UNL     1       5.678   5.681  -0.046  0.00  0.00    -0.506 OA
ATOM     32  H   UNL     1       5.938   5.665  -0.977  0.00  0.00    +0.292 HD
ENDBRANCH  30  31
ENDBRANCH   5  25
BRANCH   2  33
ATOM     33  C   UNL     1      -0.778   2.342   1.785  0.00  0.00    +0.017 A 
ATOM     34  C   UNL     1      -1.495   1.147   1.877  0.00  0.00    +0.011 A 
ATOM     35  C   UNL     1      -2.713   1.127   2.524  0.00  0.00    +0.001 A 
ATOM     36  C   UNL     1      -3.229   2.288   3.072  0.00  0.00    +0.000 A 
ATOM     37  C   UNL     1      -2.526   3.476   2.980  0.00  0.00    +0.001 A 
ATOM     38  C   UNL     1      -1.304   3.510   2.340  0.00  0.00    +0.011 A 
ENDBRANCH   2  33
TORSDOF 5
