REMARK  Name = ZINC00892127
REMARK  8 active torsions:
REMARK  status: ('A' for Active; 'I' for Inactive)
REMARK    1  A    between atoms: C_4  and  C_7
REMARK    2  A    between atoms: N_10  and  C_12
REMARK    3  A    between atoms: C_12  and  C_13
REMARK    4  A    between atoms: C_16  and  S_24
REMARK    5  A    between atoms: N_17  and  C_18
REMARK    6  A    between atoms: S_24  and  C_25
REMARK    7  A    between atoms: C_25  and  C_26
REMARK    8  A    between atoms: N_28  and  C_29
REMARK                            x       y       z     vdW  Elec       q    Type
REMARK                         _______ _______ _______ _____ _____    ______ ____
ROOT
ATOM      1  C   UNL     1       5.814   5.508  -1.465  0.00  0.00    +0.162 A 
ATOM      2  N   UNL     1       4.948   6.169  -2.180  0.00  0.00    -0.131 NA
ATOM      3  N   UNL     1       5.432   6.417  -3.344  0.00  0.00    -0.122 NA
ATOM      4  C   UNL     1       6.645   5.923  -3.439  0.00  0.00    +0.197 A 
ATOM      5  N   UNL     1       6.931   5.332  -2.239  0.00  0.00    -0.273 N 
ENDROOT
BRANCH   5   6
ATOM      6  C   UNL     1       8.118   4.679  -1.877  0.00  0.00    +0.050 A 
ATOM      7  C   UNL     1       8.921   5.202  -0.873  0.00  0.00    +0.026 A 
ATOM      8  C   UNL     1      10.087   4.553  -0.514  0.00  0.00    +0.002 A 
ATOM      9  C   UNL     1      10.460   3.391  -1.164  0.00  0.00    +0.000 A 
ATOM     10  C   UNL     1       9.665   2.871  -2.169  0.00  0.00    +0.002 A 
ATOM     11  C   UNL     1       8.496   3.512  -2.527  0.00  0.00    +0.026 A 
ENDBRANCH   5   6
BRANCH   1  12
ATOM     12  C   UNL     1       5.625   5.032  -0.048  0.00  0.00    +0.244 C 
BRANCH  12  16
ATOM     13  C   UNL     1       3.649   2.109  -0.065  0.00  0.00    +0.205 A 
ATOM     14  N   UNL     1       4.888   1.596  -0.079  0.00  0.00    -0.108 NA
ATOM     15  N   UNL     1       5.713   2.587  -0.074  0.00  0.00    -0.045 NA
ATOM     16  N   UNL     1       5.044   3.687  -0.058  0.00  0.00    -0.155 N 
ATOM     17  N   UNL     1       3.784   3.420  -0.057  0.00  0.00    -0.130 NA
BRANCH  13  21
ATOM     18  C   UNL     1      -0.003  -0.071  -0.065  0.00  0.00    +0.000 A 
ATOM     19  C   UNL     1      -0.026   1.312  -0.050  0.00  0.00    +0.001 A 
ATOM     20  C   UNL     1       1.157   2.024  -0.049  0.00  0.00    +0.012 A 
ATOM     21  C   UNL     1       2.374   1.348  -0.065  0.00  0.00    +0.023 A 
ATOM     22  C   UNL     1       2.392  -0.045  -0.080  0.00  0.00    +0.012 A 
ATOM     23  C   UNL     1       1.203  -0.747  -0.080  0.00  0.00    +0.001 A 
ENDBRANCH  13  21
ENDBRANCH  12  16
ENDBRANCH   1  12
BRANCH   4  24
ATOM     24  S   UNL     1       7.707   6.013  -4.842  0.00  0.00    -0.076 S 
BRANCH  24  25
ATOM     25  C   UNL     1       6.642   6.929  -5.984  0.00  0.00    +0.173 C 
BRANCH  25  26
ATOM     26  C   UNL     1       7.363   7.131  -7.291  0.00  0.00    +0.228 C 
ATOM     27  O   UNL     1       8.486   6.697  -7.437  0.00  0.00    -0.275 OA
ATOM     28  N   UNL     1       6.760   7.792  -8.299  0.00  0.00    -0.284 N 
ATOM     29  H   UNL     1       5.838   8.081  -8.206  0.00  0.00    +0.155 HD
BRANCH  28  30
ATOM     30  C   UNL     1       7.461   8.061  -9.476  0.00  0.00    +0.041 A 
ATOM     31  C   UNL     1       8.387   7.160  -9.955  0.00  0.00    +0.024 A 
ATOM     32  C   UNL     1       9.091   7.419 -11.127  0.00  0.00    +0.002 A 
ATOM     33  C   UNL     1       8.885   8.565 -11.832  0.00  0.00    +0.008 A 
ATOM     34  C   UNL     1       7.949   9.510 -11.378  0.00  0.00    -0.016 A 
ATOM     35  C   UNL     1       7.223   9.255 -10.189  0.00  0.00    +0.003 A 
ATOM     36  C   UNL     1       6.291  10.202  -9.734  0.00  0.00    +0.010 A 
ATOM     37  C   UNL     1       6.091  11.345 -10.445  0.00  0.00    +0.001 A 
ATOM     38  C   UNL     1       6.802  11.595 -11.617  0.00  0.00    +0.001 A 
ATOM     39  C   UNL     1       7.716  10.702 -12.086  0.00  0.00    +0.008 A 
ENDBRANCH  28  30
ENDBRANCH  25  26
ENDBRANCH  24  25
ENDBRANCH   4  24
TORSDOF 8
