REMARK  Name = ZINC12140313
REMARK  12 active torsions:
REMARK  status: ('A' for Active; 'I' for Inactive)
REMARK    1  A    between atoms: C_1  and  C_2
REMARK    2  A    between atoms: C_7  and  O_30
REMARK    3  A    between atoms: C_8  and  C_10
REMARK    4  A    between atoms: C_10  and  C_12
REMARK    5  A    between atoms: C_10  and  N_54
REMARK    6  A    between atoms: C_14  and  O_20
REMARK    7  A    between atoms: C_17  and  O_18
REMARK    8  A    between atoms: O_18  and  C_19
REMARK    9  A    between atoms: O_20  and  C_21
REMARK   10  A    between atoms: C_22  and  N_54
REMARK   11  A    between atoms: C_23  and  C_24
REMARK   12  A    between atoms: C_23  and  N_54
REMARK                            x       y       z     vdW  Elec       q    Type
REMARK                         _______ _______ _______ _____ _____    ______ ____
ROOT
ATOM      1  C   UNL     1      -0.917   3.011   1.285  0.00  0.00    +0.009 C 
ENDROOT
BRANCH   1   9
ATOM      2  C   UNL     1      -6.219   5.219  -3.474  0.00  0.00    +0.090 C 
ATOM      3  C   UNL     1      -5.099   4.670  -2.628  0.00  0.00    +0.150 A 
ATOM      4  N   UNL     1      -4.248   3.716  -3.001  0.00  0.00    -0.205 NA
ATOM      5  C   UNL     1      -3.409   3.482  -2.029  0.00  0.00    +0.199 A 
ATOM      6  N   UNL     1      -3.696   4.293  -0.973  0.00  0.00    -0.173 N 
ATOM      7  N   UNL     1      -4.811   5.053  -1.413  0.00  0.00    -0.147 NA
ATOM      8  C   UNL     1      -2.906   4.173   0.145  0.00  0.00    +0.225 A 
ATOM      9  C   UNL     1      -1.895   3.297   0.175  0.00  0.00    +0.045 A 
ATOM     10  S   UNL     1      -2.014   2.550  -1.443  0.00  0.00    -0.050 S 
BRANCH   8  11
ATOM     11  O   UNL     1      -3.152   4.955   1.231  0.00  0.00    -0.492 OA
ATOM     12  H   UNL     1      -2.679   5.798   1.223  0.00  0.00    +0.294 HD
ENDBRANCH   8  11
ENDBRANCH   1   9
BRANCH   1  13
ATOM     13  C   UNL     1       0.439   3.551   0.911  0.00  0.00    -0.011 A 
ATOM     14  C   UNL     1       1.362   2.732   0.290  0.00  0.00    +0.051 A 
ATOM     15  C   UNL     1       2.610   3.229  -0.055  0.00  0.00    +0.121 A 
ATOM     16  C   UNL     1       2.932   4.549   0.225  0.00  0.00    +0.049 A 
ATOM     17  C   UNL     1       2.009   5.368   0.846  0.00  0.00    +0.049 A 
ATOM     18  C   UNL     1       0.759   4.872   1.186  0.00  0.00    +0.122 A 
BRANCH  18  19
ATOM     19  O   UNL     1      -0.151   5.680   1.793  0.00  0.00    -0.495 OA
ATOM     20  C   UNL     1       0.246   7.029   2.045  0.00  0.00    +0.277 C 
ENDBRANCH  18  19
BRANCH  15  21
ATOM     21  O   UNL     1       3.518   2.422  -0.667  0.00  0.00    -0.495 OA
ATOM     22  C   UNL     1       4.783   3.001  -0.993  0.00  0.00    +0.277 C 
ENDBRANCH  15  21
ENDBRANCH   1  13
BRANCH   1  24
ATOM     23  C   UNL     1       0.047   1.247   2.635  0.00  0.00    -0.094 C 
ATOM     24  N   UNL     1      -0.814   1.548   1.472  0.00  0.00    +0.388 N 
ATOM     25  H   UNL     1      -0.395   1.134   0.631  0.00  0.00    -0.080 HD
BRANCH  24  26
ATOM     26  C   UNL     1      -2.158   0.969   1.674  0.00  0.00    -0.042 C 
BRANCH  26  27
ATOM     27  C   UNL     1      -2.050  -0.534   1.641  0.00  0.00    -0.064 A 
ATOM     28  C   UNL     1      -2.172  -1.209   0.441  0.00  0.00    +0.002 A 
ATOM     29  C   UNL     1      -2.067  -2.587   0.409  0.00  0.00    +0.000 A 
ATOM     30  C   UNL     1      -1.851  -3.291   1.579  0.00  0.00    +0.000 A 
ATOM     31  C   UNL     1      -1.735  -2.616   2.780  0.00  0.00    +0.000 A 
ATOM     32  C   UNL     1      -1.834  -1.238   2.811  0.00  0.00    +0.002 A 
ENDBRANCH  26  27
ENDBRANCH  24  26
ENDBRANCH   1  24
TORSDOF 8
