REMARK  Name = ZINC12529617
REMARK  12 active torsions:
REMARK  status: ('A' for Active; 'I' for Inactive)
REMARK    1  A    between atoms: C_1  and  C_2
REMARK    2  A    between atoms: C_3  and  C_33
REMARK    3  A    between atoms: C_4  and  C_32
REMARK    4  A    between atoms: C_7  and  C_8
REMARK    5  A    between atoms: C_8  and  C_10
REMARK    6  A    between atoms: C_10  and  S_11
REMARK    7  A    between atoms: S_11  and  C_12
REMARK    8  A    between atoms: C_16  and  N_29
REMARK    9  A    between atoms: N_20  and  C_21
REMARK   10  A    between atoms: C_26  and  O_27
REMARK   11  A    between atoms: O_27  and  C_28
REMARK   12  A    between atoms: C_33  and  C_35
REMARK                            x       y       z     vdW  Elec       q    Type
REMARK                         _______ _______ _______ _____ _____    ______ ____
ROOT
ATOM      1  C   UNL     1       2.203   0.860  -1.261  0.00  0.00    +0.175 A 
ATOM      2  N   UNL     1       1.381   1.872  -1.130  0.00  0.00    -0.221 NA
ATOM      3  C   UNL     1       0.102   1.449  -1.311  0.00  0.00    +0.093 A 
ATOM      4  C   UNL     1      -1.135   2.096  -1.278  0.00  0.00    +0.062 A 
ATOM      5  C   UNL     1      -2.288   1.380  -1.510  0.00  0.00    +0.128 A 
ATOM      6  C   UNL     1      -2.231   0.018  -1.768  0.00  0.00    +0.035 A 
ATOM      7  C   UNL     1      -1.016  -0.637  -1.800  0.00  0.00    +0.030 A 
ATOM      8  C   UNL     1       0.155   0.070  -1.573  0.00  0.00    +0.075 A 
ATOM      9  N   UNL     1       1.496  -0.279  -1.536  0.00  0.00    -0.284 N 
ENDROOT
BRANCH   9  10
ATOM     10  C   UNL     1       2.029  -1.561  -1.740  0.00  0.00    +0.091 A 
ATOM     11  C   UNL     1       2.384  -1.970  -3.017  0.00  0.00    +0.030 A 
ATOM     12  C   UNL     1       2.909  -3.233  -3.216  0.00  0.00    +0.002 A 
ATOM     13  C   UNL     1       3.082  -4.091  -2.146  0.00  0.00    +0.004 A 
ATOM     14  C   UNL     1       2.730  -3.690  -0.870  0.00  0.00    +0.048 A 
ATOM     15  C   UNL     1       2.208  -2.423  -0.662  0.00  0.00    +0.144 A 
BRANCH  15  16
ATOM     16  O   UNL     1       1.866  -2.026   0.593  0.00  0.00    -0.493 OA
ATOM     17  C   UNL     1       2.077  -2.963   1.651  0.00  0.00    +0.277 C 
ENDBRANCH  15  16
ENDBRANCH   9  10
BRANCH   5  18
ATOM     18  N   UNL     1      -3.599   2.067  -1.480  0.00  0.00    +0.056 N 
ATOM     19  O   UNL     1      -4.622   1.436  -1.680  0.00  0.00    -0.126 OA
ATOM     20  O   UNL     1      -3.655   3.262  -1.254  0.00  0.00    -0.126 OA
ENDBRANCH   5  18
BRANCH   1  21
ATOM     21  S   UNL     1       3.956   0.952  -1.107  0.00  0.00    -0.079 S 
BRANCH  21  22
ATOM     22  C   UNL     1       4.148   2.716  -0.752  0.00  0.00    +0.158 C 
BRANCH  22  23
ATOM     23  C   UNL     1       5.610   3.037  -0.577  0.00  0.00    +0.190 C 
ATOM     24  O   UNL     1       6.441   2.158  -0.681  0.00  0.00    -0.290 OA
BRANCH  23  31
ATOM     25  C   UNL     1       8.554   3.941  -0.162  0.00  0.00    +0.047 C 
ATOM     26  C   UNL     1       7.310   4.790  -0.101  0.00  0.00    -0.012 A 
ATOM     27  C   UNL     1       7.249   6.178   0.157  0.00  0.00    +0.041 A 
ATOM     28  C   UNL     1       5.911   6.541   0.122  0.00  0.00    +0.024 A 
ATOM     29  N   UNL     1       5.178   5.452  -0.145  0.00  0.00    -0.355 N 
ATOM     30  H   UNL     1       4.212   5.431  -0.224  0.00  0.00    +0.166 HD
ATOM     31  C   UNL     1       6.015   4.363  -0.290  0.00  0.00    +0.087 A 
ATOM     32  C   UNL     1       5.370   7.930   0.349  0.00  0.00    +0.064 C 
BRANCH  27  33
ATOM     33  C   UNL     1       8.387   7.067   0.417  0.00  0.00    +0.162 C 
ATOM     34  O   UNL     1       8.761   7.256   1.555  0.00  0.00    -0.292 OA
ATOM     35  C   UNL     1       9.091   7.745  -0.730  0.00  0.00    +0.091 C 
ENDBRANCH  27  33
ENDBRANCH  23  31
ENDBRANCH  22  23
ENDBRANCH  21  22
ENDBRANCH   1  21
TORSDOF 8
