REMARK  Name = ZINC21808695
REMARK  12 active torsions:
REMARK  status: ('A' for Active; 'I' for Inactive)
REMARK    1  A    between atoms: C_1  and  C_2
REMARK    2  A    between atoms: C_2  and  N_3
REMARK    3  A    between atoms: N_3  and  C_4
REMARK    4  A    between atoms: N_3  and  C_6
REMARK    5  A    between atoms: C_4  and  C_5
REMARK    6  A    between atoms: C_6  and  C_7
REMARK    7  A    between atoms: C_7  and  C_8
REMARK    8  A    between atoms: C_8  and  N_9
REMARK    9  A    between atoms: C_18  and  C_19
REMARK   10  A    between atoms: C_18  and  C_20
REMARK   11  A    between atoms: N_22  and  C_23
REMARK   12  A    between atoms: C_26  and  C_29
REMARK                            x       y       z     vdW  Elec       q    Type
REMARK                         _______ _______ _______ _____ _____    ______ ____
ROOT
ATOM      1  N   UNL     1      -0.513  -2.172  -3.853  0.00  0.00    -0.281 N 
ATOM      2  C   UNL     1      -1.685  -2.501  -4.445  0.00  0.00    +0.264 C 
ATOM      3  O   UNL     1      -2.386  -1.667  -4.989  0.00  0.00    -0.268 OA
ATOM      4  C   UNL     1      -2.066  -3.918  -4.395  0.00  0.00    +0.106 A 
ATOM      5  C   UNL     1      -3.067  -4.592  -5.026  0.00  0.00    +0.048 A 
ATOM      6  C   UNL     1      -2.981  -5.921  -4.629  0.00  0.00    +0.038 A 
ATOM      7  C   UNL     1      -1.915  -6.074  -3.729  0.00  0.00    +0.057 A 
ATOM      8  N   UNL     1      -1.369  -4.811  -3.588  0.00  0.00    -0.333 N 
ATOM      9  C   UNL     1      -0.249  -4.382  -2.745  0.00  0.00    +0.157 C 
ATOM     10  C   UNL     1       0.439  -3.183  -3.407  0.00  0.00    +0.128 C 
ATOM     11  C   UNL     1       1.243  -3.671  -4.613  0.00  0.00    +0.043 C 
ATOM     12  C   UNL     1      -1.710  -7.375  -3.248  0.00  0.00    +0.034 A 
ATOM     13  C   UNL     1      -2.513  -8.382  -3.648  0.00  0.00    +0.048 A 
ATOM     14  S   UNL     1      -3.643  -7.562  -4.759  0.00  0.00    -0.095 S 
ENDROOT
BRANCH  10  15
ATOM     15  C   UNL     1       1.385  -2.556  -2.415  0.00  0.00    +0.238 C 
ATOM     16  O   UNL     1       2.035  -1.582  -2.729  0.00  0.00    -0.273 OA
ATOM     17  N   UNL     1       1.509  -3.079  -1.179  0.00  0.00    -0.311 N 
ATOM     18  H   UNL     1       0.983  -4.010  -0.920  0.00  0.00    +0.149 HD
BRANCH  17  19
ATOM     19  C   UNL     1       2.345  -2.408  -0.180  0.00  0.00    +0.073 C 
ATOM     20  C   UNL     1       3.813  -2.767  -0.419  0.00  0.00    +0.022 C 
ATOM     21  C   UNL     1       4.686  -2.066   0.624  0.00  0.00    +0.005 C 
ATOM     22  C   UNL     1       4.271  -2.521   2.025  0.00  0.00    -0.014 C 
ATOM     23  C   UNL     1       2.803  -2.162   2.264  0.00  0.00    +0.005 C 
ATOM     24  C   UNL     1       1.930  -2.863   1.220  0.00  0.00    +0.022 C 
ATOM     25  C   UNL     1       5.144  -1.820   3.068  0.00  0.00    +0.007 C 
ENDBRANCH  17  19
ENDBRANCH  10  15
BRANCH   1  26
ATOM     26  C   UNL     1      -0.187  -0.757  -3.660  0.00  0.00    +0.107 C 
BRANCH  26  27
ATOM     27  C   UNL     1      -0.590  -0.328  -2.248  0.00  0.00    +0.000 C 
BRANCH  27  28
ATOM     28  C   UNL     1      -0.376   1.179  -2.091  0.00  0.00    -0.077 C 
BRANCH  28  29
ATOM     29  N   UNL     1      -0.665   1.573  -0.706  0.00  0.00    +0.379 N 
ATOM     30  H   UNL     1      -1.642   1.148  -0.431  0.00  0.00    -0.082 HD
BRANCH  29  32
ATOM     31  C   UNL     1       1.724   1.560  -0.168  0.00  0.00    -0.017 C 
ATOM     32  C   UNL     1       0.340   1.030   0.216  0.00  0.00    -0.082 C 
ENDBRANCH  29  32
BRANCH  29  33
ATOM     33  C   UNL     1      -0.759   3.034  -0.584  0.00  0.00    -0.082 C 
ATOM     34  C   UNL     1      -1.352   3.394   0.780  0.00  0.00    -0.017 C 
ENDBRANCH  29  33
ENDBRANCH  28  29
ENDBRANCH  27  28
ENDBRANCH  26  27
ENDBRANCH   1  26
TORSDOF 8
