REMARK  Name = ZINC09108783
REMARK  5 active torsions:
REMARK  status: ('A' for Active; 'I' for Inactive)
REMARK    1  A    between atoms: C_1  and  C_2
REMARK    2  A    between atoms: N_23  and  C_26
REMARK    3  A    between atoms: C_28  and  N_34
REMARK    4  A    between atoms: C_31  and  O_32
REMARK    5  A    between atoms: O_32  and  C_33
REMARK                            x       y       z     vdW  Elec       q    Type
REMARK                         _______ _______ _______ _____ _____    ______ ____
ROOT
ATOM      1  C   UNL     1       3.786   3.144  -3.912  0.00  0.00    +0.046 C 
ATOM      2  C   UNL     1       2.739   3.471  -2.878  0.00  0.00    -0.028 A 
ATOM      3  C   UNL     1       2.074   4.679  -2.931  0.00  0.00    +0.025 A 
ATOM      4  C   UNL     1       1.111   4.989  -1.987  0.00  0.00    +0.042 A 
ATOM      5  C   UNL     1       0.813   4.080  -0.985  0.00  0.00    +0.024 A 
ATOM      6  C   UNL     1       1.474   2.874  -0.930  0.00  0.00    -0.026 A 
ATOM      7  C   UNL     1       2.445   2.553  -1.873  0.00  0.00    +0.039 A 
ATOM      8  N   UNL     1       2.973   1.286  -1.611  0.00  0.00    -0.286 N 
ATOM      9  C   UNL     1       2.410   0.716  -0.529  0.00  0.00    +0.212 C 
ATOM     10  O   UNL     1       2.670  -0.376  -0.068  0.00  0.00    -0.277 OA
ATOM     11  C   UNL     1       1.395   1.694  -0.002  0.00  0.00    +0.053 C 
ATOM     12  C   UNL     1      -0.013   1.086   0.008  0.00  0.00    +0.089 C 
ATOM     13  C   UNL     1      -0.684   1.672   1.280  0.00  0.00    +0.074 C 
ATOM     14  C   UNL     1       0.384   2.578   1.920  0.00  0.00    -0.054 C 
ATOM     15  C   UNL     1       1.983   0.869   2.194  0.00  0.00    -0.076 C 
ATOM     16  C   UNL     1       1.498   1.204   3.619  0.00  0.00    -0.020 C 
ATOM     17  C   UNL     1       0.439   2.309   3.434  0.00  0.00    -0.016 C 
ATOM     18  C   UNL     1      -1.810   2.515   0.724  0.00  0.00    +0.229 C 
ATOM     19  O   UNL     1      -2.595   3.160   1.385  0.00  0.00    -0.275 OA
ATOM     20  N   UNL     1      -1.804   2.438  -0.612  0.00  0.00    -0.206 N 
ATOM     21  C   UNL     1      -0.824   1.663  -1.130  0.00  0.00    +0.230 C 
ATOM     22  O   UNL     1      -0.625   1.455  -2.308  0.00  0.00    -0.275 OA
ATOM     23 CL   UNL     1       0.280   6.510  -2.059  0.00  0.00    -0.084 Cl
ATOM     24  H   UNL     1       3.664   0.866  -2.147  0.00  0.00    +0.155 HD
ATOM     25  N   UNL     1       1.630   2.060   1.402  0.00  0.00    +0.395 N 
ATOM     26  H   UNL     1       2.375   2.764   1.468  0.00  0.00    -0.079 HD
ENDROOT
BRANCH  20  27
ATOM     27  C   UNL     1      -2.734   3.116  -1.415  0.00  0.00    +0.088 A 
ATOM     28  C   UNL     1      -2.463   4.402  -1.859  0.00  0.00    +0.060 A 
ATOM     29  C   UNL     1      -3.378   5.065  -2.654  0.00  0.00    +0.128 A 
ATOM     30  C   UNL     1      -4.569   4.455  -3.000  0.00  0.00    +0.036 A 
ATOM     31  C   UNL     1      -4.849   3.176  -2.557  0.00  0.00    +0.050 A 
ATOM     32  C   UNL     1      -3.934   2.502  -1.764  0.00  0.00    +0.142 A 
BRANCH  29  33
ATOM     33  N   UNL     1      -3.084   6.436  -3.131  0.00  0.00    +0.056 N 
ATOM     34  O   UNL     1      -3.892   7.024  -3.827  0.00  0.00    -0.126 OA
ATOM     35  O   UNL     1      -2.035   6.975  -2.827  0.00  0.00    -0.126 OA
ENDBRANCH  29  33
BRANCH  32  36
ATOM     36  O   UNL     1      -4.208   1.244  -1.327  0.00  0.00    -0.493 OA
ATOM     37  C   UNL     1      -5.458   0.677  -1.724  0.00  0.00    +0.277 C 
ENDBRANCH  32  36
ENDBRANCH  20  27
TORSDOF 3
