REMARK  Name = ZINC37452391
REMARK  21 active torsions:
REMARK  status: ('A' for Active; 'I' for Inactive)
REMARK    1  A    between atoms: C_1  and  C_2
REMARK    2  A    between atoms: C_2  and  O_3
REMARK    3  A    between atoms: O_3  and  C_4
REMARK    4  A    between atoms: C_4  and  C_6
REMARK    5  A    between atoms: C_6  and  C_8
REMARK    6  A    between atoms: C_6  and  C_18
REMARK    7  A    between atoms: C_11  and  O_16
REMARK    8  A    between atoms: C_12  and  O_14
REMARK    9  A    between atoms: O_14  and  C_15
REMARK   10  A    between atoms: O_16  and  C_17
REMARK   11  A    between atoms: C_21  and  N_25
REMARK   12  A    between atoms: C_26  and  C_28
REMARK   13  A    between atoms: C_29  and  C_40
REMARK   14  A    between atoms: C_31  and  C_37
REMARK   15  A    between atoms: C_33  and  C_34
REMARK   16  A    between atoms: C_34  and  C_35
REMARK   17  A    between atoms: C_34  and  C_36
REMARK   18  A    between atoms: C_37  and  C_38
REMARK   19  A    between atoms: C_37  and  C_39
REMARK   20  A    between atoms: C_40  and  C_41
REMARK   21  A    between atoms: C_40  and  C_42
REMARK                            x       y       z     vdW  Elec       q    Type
REMARK                         _______ _______ _______ _____ _____    ______ ____
ROOT
ATOM      1  C   UNL     1      -3.622  -1.972   1.275  0.00  0.00    +0.032 C 
ATOM      2  C   UNL     1      -3.771  -0.433   1.287  0.00  0.00    +0.035 C 
ATOM      3  C   UNL     1      -5.173  -0.266   1.917  0.00  0.00    +0.097 C 
ATOM      4  C   UNL     1      -5.886  -1.564   1.619  0.00  0.00    -0.009 C 
ATOM      5  C   UNL     1      -5.039  -2.497   1.271  0.00  0.00    -0.025 C 
ENDROOT
BRANCH   3   6
ATOM      6  N   UNL     1      -5.061  -0.063   3.364  0.00  0.00    -0.305 N 
ATOM      7  C   UNL     1      -6.036   0.586   4.031  0.00  0.00    +0.245 C 
ATOM      8  O   UNL     1      -7.009   1.002   3.432  0.00  0.00    -0.270 OA
ATOM      9  H   UNL     1      -4.285  -0.395   3.841  0.00  0.00    +0.150 HD
BRANCH   7  10
ATOM     10  C   UNL     1      -5.923   0.790   5.491  0.00  0.00    +0.044 A 
ATOM     11  C   UNL     1      -5.308   1.939   5.992  0.00  0.00    -0.032 A 
ATOM     12  C   UNL     1      -5.206   2.124   7.355  0.00  0.00    +0.008 A 
ATOM     13  C   UNL     1      -5.712   1.174   8.225  0.00  0.00    -0.044 A 
ATOM     14  C   UNL     1      -6.322   0.034   7.735  0.00  0.00    +0.008 A 
ATOM     15  C   UNL     1      -6.436  -0.161   6.374  0.00  0.00    -0.032 A 
BRANCH  15  16
ATOM     16  C   UNL     1      -7.107  -1.401   5.842  0.00  0.00    +0.014 C 
ATOM     17  C   UNL     1      -6.355  -2.639   6.335  0.00  0.00    +0.012 C 
ATOM     18  C   UNL     1      -8.553  -1.451   6.338  0.00  0.00    +0.012 C 
ENDBRANCH  15  16
BRANCH  13  19
ATOM     19  C   UNL     1      -5.596   1.383   9.713  0.00  0.00    +0.013 C 
ATOM     20  C   UNL     1      -6.994   1.414  10.334  0.00  0.00    +0.012 C 
ATOM     21  C   UNL     1      -4.791   0.237  10.328  0.00  0.00    +0.012 C 
ENDBRANCH  13  19
BRANCH  11  22
ATOM     22  C   UNL     1      -4.756   2.974   5.046  0.00  0.00    +0.014 C 
ATOM     23  C   UNL     1      -5.457   4.312   5.289  0.00  0.00    +0.012 C 
ATOM     24  C   UNL     1      -3.254   3.134   5.285  0.00  0.00    +0.012 C 
ENDBRANCH  11  22
ENDBRANCH   7  10
ENDBRANCH   3   6
BRANCH   1  25
ATOM     25  C   UNL     1      -2.881  -2.427   0.017  0.00  0.00    +0.135 C 
BRANCH  25  26
ATOM     26  C   UNL     1      -2.782  -3.930   0.007  0.00  0.00    -0.029 A 
ATOM     27  C   UNL     1      -2.134  -4.585   1.038  0.00  0.00    +0.008 A 
ATOM     28  C   UNL     1      -2.040  -5.964   1.035  0.00  0.00    +0.050 A 
ATOM     29  C   UNL     1      -2.596  -6.694  -0.004  0.00  0.00    +0.162 A 
ATOM     30  C   UNL     1      -3.249  -6.035  -1.041  0.00  0.00    +0.162 A 
ATOM     31  C   UNL     1      -3.344  -4.652  -1.029  0.00  0.00    +0.053 A 
BRANCH  30  32
ATOM     32  O   UNL     1      -3.797  -6.746  -2.062  0.00  0.00    -0.491 OA
ATOM     33  C   UNL     1      -4.452  -6.003  -3.092  0.00  0.00    +0.277 C 
ENDBRANCH  30  32
BRANCH  29  34
ATOM     34  O   UNL     1      -2.505  -8.050  -0.009  0.00  0.00    -0.491 OA
ATOM     35  C   UNL     1      -1.820  -8.659   1.088  0.00  0.00    +0.277 C 
ENDBRANCH  29  34
ENDBRANCH  25  26
BRANCH  25  36
ATOM     36  C   UNL     1      -1.496  -1.832   0.006  0.00  0.00    +0.315 C 
ATOM     37  O   UNL     1      -0.528  -2.555  -0.007  0.00  0.00    -0.250 OA
BRANCH  36  38
ATOM     38  O   UNL     1      -1.339  -0.499   0.012  0.00  0.00    -0.464 OA
BRANCH  38  40
ATOM     39  C   UNL     1      -0.019   1.526   0.010  0.00  0.00    +0.048 C 
ATOM     40  C   UNL     1       0.002  -0.004   0.002  0.00  0.00    +0.229 C 
ENDBRANCH  38  40
ENDBRANCH  36  38
ENDBRANCH  25  36
ENDBRANCH   1  25
TORSDOF 12
