REMARK  Name = ZINC38546284
REMARK  10 active torsions:
REMARK  status: ('A' for Active; 'I' for Inactive)
REMARK    1  A    between atoms: C_1  and  C_2
REMARK    2  A    between atoms: C_2  and  C_3
REMARK    3  A    between atoms: C_5  and  C_16
REMARK    4  A    between atoms: C_6  and  N_8
REMARK    5  A    between atoms: C_9  and  C_11
REMARK    6  A    between atoms: C_16  and  C_18
REMARK    7  A    between atoms: C_16  and  N_26
REMARK    8  A    between atoms: C_23  and  O_24
REMARK    9  A    between atoms: O_24  and  C_25
REMARK   10  A    between atoms: C_29  and  C_32
REMARK                            x       y       z     vdW  Elec       q    Type
REMARK                         _______ _______ _______ _____ _____    ______ ____
ROOT
ATOM      1  C   UNL     1      -4.262  -1.362  -1.631  0.00  0.00    -0.001 C 
ENDROOT
BRANCH   1   2
ATOM      2  N   UNL     1      -3.502  -0.592  -2.624  0.00  0.00    +0.387 N 
ATOM      3  C   UNL     1      -3.999  -0.906  -3.969  0.00  0.00    -0.077 C 
ATOM      4  C   UNL     1      -3.157  -0.170  -5.013  0.00  0.00    -0.015 C 
ATOM      5  C   UNL     1      -3.257   1.339  -4.769  0.00  0.00    -0.018 C 
ATOM      6  C   UNL     1      -2.806   1.646  -3.338  0.00  0.00    -0.015 C 
ATOM      7  C   UNL     1      -3.661   0.842  -2.357  0.00  0.00    -0.077 C 
ATOM      8  C   UNL     1      -2.355   2.078  -5.760  0.00  0.00    +0.007 C 
ATOM      9  H   UNL     1      -2.525  -0.839  -2.563  0.00  0.00    -0.080 HD
ENDBRANCH   1   2
BRANCH   1  10
ATOM     10  C   UNL     1      -4.100  -2.835  -1.904  0.00  0.00    -0.015 A 
ATOM     11  C   UNL     1      -3.054  -3.281  -2.689  0.00  0.00    +0.006 A 
ATOM     12  C   UNL     1      -2.905  -4.632  -2.941  0.00  0.00    +0.000 A 
ATOM     13  C   UNL     1      -3.801  -5.540  -2.407  0.00  0.00    +0.004 A 
ATOM     14  C   UNL     1      -4.847  -5.099  -1.621  0.00  0.00    +0.046 A 
ATOM     15  C   UNL     1      -4.996  -3.744  -1.363  0.00  0.00    +0.122 A 
BRANCH  15  16
ATOM     16  O   UNL     1      -6.022  -3.308  -0.585  0.00  0.00    -0.495 OA
ATOM     17  C   UNL     1      -6.860  -4.306   0.002  0.00  0.00    +0.277 C 
ENDBRANCH  15  16
ENDBRANCH   1  10
BRANCH   1  20
ATOM     18  C   UNL     1      -1.961  -0.618   1.232  0.00  0.00    -0.008 A 
ATOM     19  C   UNL     1      -2.391  -0.901  -0.021  0.00  0.00    +0.015 A 
ATOM     20  C   UNL     1      -3.747  -1.047  -0.250  0.00  0.00    -0.028 A 
ATOM     21  C   UNL     1      -4.609  -0.901   0.796  0.00  0.00    +0.074 A 
ATOM     22  S   UNL     1      -3.493  -0.556   2.147  0.00  0.00    -0.078 S 
BRANCH  21  23
ATOM     23  N   UNL     1      -6.001  -1.001   0.808  0.00  0.00    -0.273 N 
ATOM     24  C   UNL     1      -6.689  -0.692   1.926  0.00  0.00    +0.284 C 
ATOM     25  O   UNL     1      -6.109  -0.222   2.887  0.00  0.00    -0.266 OA
ATOM     26  H   UNL     1      -6.474  -1.293   0.013  0.00  0.00    +0.156 HD
BRANCH  24  27
ATOM     27  C   UNL     1      -8.136  -0.921   1.983  0.00  0.00    +0.189 A 
ATOM     28  C   UNL     1      -8.934  -0.744   3.077  0.00  0.00    +0.054 A 
ATOM     29  C   UNL     1     -10.239  -1.077   2.682  0.00  0.00    +0.042 A 
ATOM     30  C   UNL     1     -10.181  -1.440   1.382  0.00  0.00    +0.196 A 
ATOM     31  O   UNL     1      -8.913  -1.340   0.962  0.00  0.00    -0.458 OA
ENDBRANCH  24  27
ENDBRANCH  21  23
BRANCH  18  33
ATOM     32  C   UNL     1      -0.183   1.066   1.620  0.00  0.00    +0.009 C 
ATOM     33  C   UNL     1      -0.553  -0.415   1.728  0.00  0.00    +0.039 C 
ENDBRANCH  18  33
ENDBRANCH   1  20
TORSDOF 7
