REMARK  Name = ZINC09584097
REMARK  16 active torsions:
REMARK  status: ('A' for Active; 'I' for Inactive)
REMARK    1  A    between atoms: C_1  and  C_2
REMARK    2  A    between atoms: C_2  and  C_3
REMARK    3  A    between atoms: C_3  and  O_4
REMARK    4  A    between atoms: O_4  and  C_5
REMARK    5  A    between atoms: C_8  and  C_15
REMARK    6  A    between atoms: C_10  and  O_11
REMARK    7  A    between atoms: O_11  and  C_12
REMARK    8  A    between atoms: C_12  and  C_13
REMARK    9  A    between atoms: C_13  and  C_14
REMARK   10  A    between atoms: C_15  and  C_17
REMARK   11  A    between atoms: C_15  and  N_18
REMARK   12  A    between atoms: N_21  and  C_22
REMARK   13  A    between atoms: C_22  and  C_23
REMARK   14  A    between atoms: C_23  and  C_24
REMARK   15  A    between atoms: C_27  and  S_30
REMARK   16  A    between atoms: S_30  and  N_33
REMARK                            x       y       z     vdW  Elec       q    Type
REMARK                         _______ _______ _______ _____ _____    ______ ____
ROOT
ATOM      1  N   UNL     1       1.139  -4.756   0.854  0.00  0.00    -0.293 N 
ATOM      2  C   UNL     1       1.064  -5.982   1.407  0.00  0.00    +0.300 C 
ATOM      3  O   UNL     1       0.104  -6.694   1.181  0.00  0.00    -0.253 OA
ATOM      4  N   UNL     1       2.052  -6.420   2.213  0.00  0.00    -0.299 N 
ATOM      5  H   UNL     1       1.905  -4.188   1.034  0.00  0.00    +0.151 HD
ATOM      6  H   UNL     1       2.817  -5.853   2.393  0.00  0.00    +0.150 HD
ENDROOT
BRANCH   1   7
ATOM      7  C   UNL     1       0.065  -4.280  -0.021  0.00  0.00    +0.102 C 
ATOM      8  C   UNL     1       0.310  -4.778  -1.447  0.00  0.00    +0.033 C 
BRANCH   7  12
ATOM      9  C   UNL     1       0.002  -0.004   0.002  0.00  0.00    +0.162 A 
ATOM     10  C   UNL     1       1.210  -0.682  -0.019  0.00  0.00    +0.050 A 
ATOM     11  C   UNL     1       1.227  -2.064  -0.020  0.00  0.00    +0.009 A 
ATOM     12  C   UNL     1       0.041  -2.773  -0.013  0.00  0.00    -0.024 A 
ATOM     13  C   UNL     1      -1.168  -2.103   0.002  0.00  0.00    +0.055 A 
ATOM     14  C   UNL     1      -1.192  -0.718   0.010  0.00  0.00    +0.162 A 
BRANCH   9  15
ATOM     15  O   UNL     1      -0.016   1.356   0.009  0.00  0.00    -0.488 OA
BRANCH  15  16
ATOM     16  C   UNL     1       1.248   2.022   0.001  0.00  0.00    +0.229 C 
BRANCH  16  18
ATOM     17  C   UNL     1       2.381   4.249   0.002  0.00  0.00    +0.007 C 
ATOM     18  C   UNL     1       1.027   3.536   0.011  0.00  0.00    +0.038 C 
ENDBRANCH  16  18
ENDBRANCH  15  16
ENDBRANCH   9  15
BRANCH  14  19
ATOM     19  O   UNL     1      -2.381  -0.057   0.025  0.00  0.00    -0.488 OA
BRANCH  19  20
ATOM     20  C   UNL     1      -3.567  -0.854   0.032  0.00  0.00    +0.229 C 
BRANCH  20  21
ATOM     21  C   UNL     1      -4.795   0.058   0.049  0.00  0.00    +0.038 C 
ATOM     22  C   UNL     1      -6.064  -0.796   0.057  0.00  0.00    +0.007 C 
ENDBRANCH  20  21
ENDBRANCH  19  20
ENDBRANCH  14  19
ENDBRANCH   7  12
ENDBRANCH   1   7
BRANCH   4  23
ATOM     23  C   UNL     1       1.970  -7.753   2.815  0.00  0.00    +0.110 C 
BRANCH  23  24
ATOM     24  C   UNL     1       3.209  -8.001   3.677  0.00  0.00    +0.054 C 
BRANCH  24  25
ATOM     25  C   UNL     1       3.125  -9.372   4.296  0.00  0.00    -0.046 A 
ATOM     26  C   UNL     1       2.524  -9.537   5.530  0.00  0.00    +0.005 A 
ATOM     27  C   UNL     1       2.443 -10.796   6.096  0.00  0.00    +0.029 A 
ATOM     28  C   UNL     1       2.970 -11.888   5.432  0.00  0.00    +0.105 A 
ATOM     29  C   UNL     1       3.576 -11.722   4.201  0.00  0.00    +0.029 A 
ATOM     30  C   UNL     1       3.653 -10.464   3.633  0.00  0.00    +0.005 A 
BRANCH  28  31
ATOM     31  S   UNL     1       2.871 -13.491   6.156  0.00  0.00    +0.056 S 
ATOM     32  O   UNL     1       1.774 -13.461   7.059  0.00  0.00    -0.153 OA
ATOM     33  O   UNL     1       2.952 -14.425   5.088  0.00  0.00    -0.153 OA
BRANCH  31  34
ATOM     34  N   UNL     1       4.234 -13.700   7.072  0.00  0.00    -0.204 NA
ATOM     35  H   UNL     1       4.897 -12.994   7.123  0.00  0.00    +0.144 HD
ATOM     36  H   UNL     1       4.370 -14.529   7.558  0.00  0.00    +0.144 HD
ENDBRANCH  31  34
ENDBRANCH  28  31
ENDBRANCH  24  25
ENDBRANCH  23  24
ENDBRANCH   4  23
TORSDOF 13
