REMARK  Name = ZINC09243649
REMARK  11 active torsions:
REMARK  status: ('A' for Active; 'I' for Inactive)
REMARK    1  A    between atoms: C_1  and  C_2
REMARK    2  A    between atoms: C_2  and  O_3
REMARK    3  A    between atoms: O_3  and  C_4
REMARK    4  A    between atoms: C_6  and  C_11
REMARK    5  A    between atoms: C_9  and  O_10
REMARK    6  A    between atoms: C_14  and  C_30
REMARK    7  A    between atoms: N_21  and  C_22
REMARK    8  A    between atoms: C_22  and  C_23
REMARK    9  A    between atoms: C_26  and  C_29
REMARK   10  A    between atoms: C_33  and  C_37
REMARK   11  A    between atoms: C_35  and  O_36
REMARK                            x       y       z     vdW  Elec       q    Type
REMARK                         _______ _______ _______ _____ _____    ______ ____
ROOT
ATOM      1  C   UNL     1      -0.229  -4.969   0.477  0.00  0.00    +0.142 C 
ATOM      2  C   UNL     1       0.860  -5.485   1.378  0.00  0.00    +0.035 A 
ATOM      3  C   UNL     1       1.839  -5.200   2.275  0.00  0.00    +0.075 A 
ATOM      4  N   UNL     1       2.402  -6.391   2.632  0.00  0.00    -0.276 N 
ATOM      5  H   UNL     1       3.131  -6.496   3.263  0.00  0.00    +0.189 HD
ATOM      6  N   UNL     1       1.823  -7.354   2.008  0.00  0.00    -0.168 NA
ATOM      7  C   UNL     1       0.871  -6.890   1.224  0.00  0.00    +0.153 A 
ATOM      8  C   UNL     1      -0.180  -7.247   0.254  0.00  0.00    +0.268 C 
ATOM      9  O   UNL     1      -0.437  -8.380  -0.105  0.00  0.00    -0.268 OA
ATOM     10  N   UNL     1      -0.817  -6.143  -0.177  0.00  0.00    -0.281 N 
ENDROOT
BRANCH   3  11
ATOM     11  C   UNL     1       2.222  -3.858   2.768  0.00  0.00    +0.043 A 
ATOM     12  C   UNL     1       3.481  -3.336   2.474  0.00  0.00    +0.034 A 
ATOM     13  C   UNL     1       3.832  -2.084   2.937  0.00  0.00    +0.045 A 
ATOM     14  C   UNL     1       2.938  -1.344   3.693  0.00  0.00    -0.029 A 
ATOM     15  C   UNL     1       1.688  -1.853   3.991  0.00  0.00    +0.050 A 
ATOM     16  C   UNL     1       1.320  -3.105   3.528  0.00  0.00    +0.126 A 
ATOM     17  C   UNL     1       3.331   0.021   4.195  0.00  0.00    +0.045 C 
ATOM     18 CL   UNL     1       5.400  -1.434   2.569  0.00  0.00    -0.083 Cl
BRANCH  16  19
ATOM     19  O   UNL     1       0.089  -3.603   3.816  0.00  0.00    -0.506 OA
ATOM     20  H   UNL     1       0.052  -4.111   4.638  0.00  0.00    +0.292 HD
ENDBRANCH  16  19
ENDBRANCH   3  11
BRANCH   1  23
ATOM     21  C   UNL     1       0.777  -1.811  -1.336  0.00  0.00    +0.162 A 
ATOM     22  C   UNL     1       0.243  -2.669  -0.388  0.00  0.00    +0.055 A 
ATOM     23  C   UNL     1       0.352  -4.037  -0.555  0.00  0.00    -0.019 A 
ATOM     24  C   UNL     1       0.992  -4.552  -1.667  0.00  0.00    +0.009 A 
ATOM     25  C   UNL     1       1.526  -3.702  -2.616  0.00  0.00    +0.049 A 
ATOM     26  C   UNL     1       1.416  -2.330  -2.458  0.00  0.00    +0.158 A 
BRANCH  26  27
ATOM     27  O   UNL     1       1.936  -1.492  -3.394  0.00  0.00    -0.503 OA
ATOM     28  H   UNL     1       2.856  -1.241  -3.231  0.00  0.00    +0.292 HD
ENDBRANCH  26  27
BRANCH  21  29
ATOM     29  O   UNL     1       0.671  -0.465  -1.174  0.00  0.00    -0.489 OA
BRANCH  29  31
ATOM     30  C   UNL     1      -0.019   1.526   0.010  0.00  0.00    +0.048 C 
ATOM     31  C   UNL     1       0.002  -0.004   0.002  0.00  0.00    +0.226 C 
ENDBRANCH  29  31
ENDBRANCH  21  29
ENDBRANCH   1  23
BRANCH  10  32
ATOM     32  C   UNL     1      -1.917  -6.117  -1.144  0.00  0.00    +0.144 C 
BRANCH  32  33
ATOM     33  C   UNL     1      -1.359  -5.984  -2.537  0.00  0.00    -0.030 A 
ATOM     34  C   UNL     1      -1.151  -4.730  -3.081  0.00  0.00    +0.005 A 
ATOM     35  C   UNL     1      -0.639  -4.608  -4.360  0.00  0.00    +0.003 A 
ATOM     36  C   UNL     1      -0.335  -5.739  -5.094  0.00  0.00    -0.050 A 
ATOM     37  C   UNL     1      -0.543  -6.993  -4.549  0.00  0.00    +0.003 A 
ATOM     38  C   UNL     1      -1.051  -7.115  -3.269  0.00  0.00    +0.005 A 
ATOM     39  C   UNL     1       0.222  -5.606  -6.487  0.00  0.00    +0.044 C 
ENDBRANCH  32  33
ENDBRANCH  10  32
TORSDOF 8
