REMARK  Name = ZINC61163733
REMARK  8 active torsions:
REMARK  status: ('A' for Active; 'I' for Inactive)
REMARK    1  A    between atoms: C_1  and  C_2
REMARK    2  A    between atoms: C_3  and  C_8
REMARK    3  A    between atoms: N_6  and  C_7
REMARK    4  A    between atoms: C_8  and  C_9
REMARK    5  A    between atoms: C_8  and  N_10
REMARK    6  A    between atoms: N_13  and  C_14
REMARK    7  A    between atoms: C_14  and  C_15
REMARK    8  A    between atoms: C_14  and  C_16
REMARK                            x       y       z     vdW  Elec       q    Type
REMARK                         _______ _______ _______ _____ _____    ______ ____
ROOT
ATOM      1  N   UNL     1      -0.579  -1.372  -3.378  0.00  0.00    -0.293 N 
ATOM      2  C   UNL     1      -1.156  -1.045  -4.552  0.00  0.00    +0.301 C 
ATOM      3  O   UNL     1      -1.201   0.118  -4.904  0.00  0.00    -0.253 OA
ATOM      4  N   UNL     1      -1.683  -2.007  -5.335  0.00  0.00    -0.293 N 
ATOM      5  H   UNL     1      -0.543  -2.300  -3.098  0.00  0.00    +0.151 HD
ATOM      6  H   UNL     1      -1.647  -2.935  -5.054  0.00  0.00    +0.151 HD
ENDROOT
BRANCH   1   7
ATOM      7  C   UNL     1      -0.006  -0.327  -2.527  0.00  0.00    +0.105 C 
ATOM      8  C   UNL     1       1.425  -0.028  -2.980  0.00  0.00    +0.033 C 
BRANCH   7  11
ATOM      9  C   UNL     1      -0.018   1.503   0.010  0.00  0.00    +0.065 C 
ATOM     10  C   UNL     1       0.002  -0.004   0.002  0.00  0.00    +0.041 A 
ATOM     11  C   UNL     1       0.008  -0.796  -1.095  0.00  0.00    +0.013 A 
ATOM     12  C   UNL     1       0.028  -2.127  -0.666  0.00  0.00    +0.140 A 
ATOM     13  N   UNL     1       0.035  -2.134   0.643  0.00  0.00    -0.179 NA
ATOM     14  N   UNL     1       0.024  -0.805   1.088  0.00  0.00    -0.271 N 
ATOM     15  C   UNL     1       0.031  -0.364   2.485  0.00  0.00    +0.172 C 
ENDBRANCH   7  11
ENDBRANCH   1   7
BRANCH   4  16
ATOM     16  C   UNL     1      -2.310  -1.652  -6.610  0.00  0.00    +0.102 C 
ATOM     17  C   UNL     1      -3.768  -1.254  -6.368  0.00  0.00    +0.033 C 
BRANCH  16  18
ATOM     18  C   UNL     1      -2.260  -2.835  -7.542  0.00  0.00    -0.027 A 
ATOM     19  C   UNL     1      -2.496  -4.107  -7.055  0.00  0.00    +0.007 A 
ATOM     20  C   UNL     1      -2.450  -5.193  -7.909  0.00  0.00    +0.020 A 
ATOM     21  C   UNL     1      -2.168  -5.007  -9.251  0.00  0.00    +0.041 A 
ATOM     22  C   UNL     1      -1.933  -3.733  -9.737  0.00  0.00    +0.020 A 
ATOM     23  C   UNL     1      -1.984  -2.647  -8.883  0.00  0.00    +0.007 A 
ATOM     24 CL   UNL     1      -2.110  -6.370 -10.324  0.00  0.00    -0.084 Cl
ENDBRANCH  16  18
ENDBRANCH   4  16
TORSDOF 4
