REMARK  Name = ZINC13498453
REMARK  12 active torsions:
REMARK  status: ('A' for Active; 'I' for Inactive)
REMARK    1  A    between atoms: C_1  and  C_2
REMARK    2  A    between atoms: C_2  and  C_3
REMARK    3  A    between atoms: C_10  and  C_15
REMARK    4  A    between atoms: C_15  and  N_72
REMARK    5  A    between atoms: C_16  and  N_72
REMARK    6  A    between atoms: C_21  and  C_23
REMARK    7  A    between atoms: C_21  and  C_35
REMARK    8  A    between atoms: C_21  and  N_72
REMARK    9  A    between atoms: N_27  and  C_28
REMARK   10  A    between atoms: C_28  and  C_29
REMARK   11  A    between atoms: C_35  and  C_36
REMARK   12  A    between atoms: C_35  and  C_37
REMARK                            x       y       z     vdW  Elec       q    Type
REMARK                         _______ _______ _______ _____ _____    ______ ____
ROOT
ATOM      1  N   UNL     1       1.669   6.325  -3.294  0.00  0.00    +0.391 N 
ATOM      2  H   UNL     1       2.183   6.445  -4.175  0.00  0.00    -0.080 HD
ENDROOT
BRANCH   1   3
ATOM      3  C   UNL     1       0.816   5.122  -3.397  0.00  0.00    -0.067 C 
ATOM      4  C   UNL     1       1.698   3.857  -3.391  0.00  0.00    -0.015 C 
ATOM      5  C   UNL     1       1.010   2.909  -4.405  0.00  0.00    -0.002 C 
ATOM      6  C   UNL     1       0.536   3.880  -5.515  0.00  0.00    -0.002 C 
ATOM      7  C   UNL     1       0.077   5.137  -4.747  0.00  0.00    -0.015 C 
ENDBRANCH   1   3
BRANCH   1   8
ATOM      8  C   UNL     1       0.831   7.519  -3.060  0.00  0.00    -0.036 C 
BRANCH   8  16
ATOM      9  C   UNL     1      -3.751   7.869  -7.203  0.00  0.00    -0.047 A 
ATOM     10  C   UNL     1      -3.037   8.567  -8.167  0.00  0.00    +0.005 A 
ATOM     11  C   UNL     1      -1.722   8.920  -7.950  0.00  0.00    +0.026 A 
ATOM     12  C   UNL     1      -1.104   8.575  -6.753  0.00  0.00    +0.049 A 
ATOM     13  C   UNL     1      -1.831   7.867  -5.778  0.00  0.00    -0.001 A 
ATOM     14  C   UNL     1      -3.164   7.519  -6.020  0.00  0.00    +0.013 A 
ATOM     15  C   UNL     1      -1.172   7.508  -4.521  0.00  0.00    +0.017 A 
ATOM     16  C   UNL     1       0.122   7.873  -4.342  0.00  0.00    +0.001 A 
ATOM     17  C   UNL     1       0.805   8.587  -5.349  0.00  0.00    +0.251 A 
ATOM     18  O   UNL     1       1.966   8.910  -5.165  0.00  0.00    -0.268 OA
ATOM     19  N   UNL     1       0.209   8.916  -6.509  0.00  0.00    -0.322 N 
ATOM     20  H   UNL     1       0.710   9.404  -7.181  0.00  0.00    +0.169 HD
BRANCH   9  22
ATOM     21  C   UNL     1      -6.105   8.613  -6.969  0.00  0.00    +0.009 C 
ATOM     22  C   UNL     1      -5.187   7.493  -7.464  0.00  0.00    +0.032 C 
ENDBRANCH   9  22
ENDBRANCH   8  16
ENDBRANCH   1   8
BRANCH   1  23
ATOM     23  C   UNL     1       2.639   6.163  -2.191  0.00  0.00    +0.006 C 
BRANCH  23  24
ATOM     24  C   UNL     1       3.783   7.118  -2.411  0.00  0.00    +0.139 A 
ATOM     25  N   UNL     1       3.718   8.303  -2.968  0.00  0.00    -0.115 NA
ATOM     26  N   UNL     1       4.903   8.807  -2.971  0.00  0.00    -0.023 NA
ATOM     27  N   UNL     1       5.722   7.977  -2.426  0.00  0.00    -0.044 NA
ATOM     28  N   UNL     1       5.071   6.921  -2.072  0.00  0.00    -0.226 N 
BRANCH  28  29
ATOM     29  C   UNL     1       5.627   5.733  -1.420  0.00  0.00    +0.182 C 
BRANCH  29  30
ATOM     30  C   UNL     1       6.062   4.742  -2.468  0.00  0.00    -0.026 A 
ATOM     31  C   UNL     1       7.350   4.785  -2.968  0.00  0.00    +0.005 A 
ATOM     32  C   UNL     1       7.749   3.876  -3.929  0.00  0.00    +0.000 A 
ATOM     33  C   UNL     1       6.859   2.925  -4.394  0.00  0.00    +0.000 A 
ATOM     34  C   UNL     1       5.573   2.878  -3.889  0.00  0.00    +0.000 A 
ATOM     35  C   UNL     1       5.174   3.788  -2.928  0.00  0.00    +0.005 A 
ENDBRANCH  29  30
ENDBRANCH  28  29
ENDBRANCH  23  24
BRANCH  23  36
ATOM     36  C   UNL     1       1.974   6.464  -0.846  0.00  0.00    -0.024 C 
ATOM     37  C   UNL     1       0.896   5.416  -0.564  0.00  0.00    +0.006 C 
ATOM     38  C   UNL     1       3.027   6.425   0.263  0.00  0.00    +0.006 C 
ENDBRANCH  23  36
ENDBRANCH   1  23
TORSDOF 9
