REMARK  Name = ZINC37145520
REMARK  5 active torsions:
REMARK  status: ('A' for Active; 'I' for Inactive)
REMARK    1  A    between atoms: C_1  and  C_2
REMARK    2  A    between atoms: C_2  and  C_3
REMARK    3  A    between atoms: C_7  and  C_22
REMARK    4  A    between atoms: C_9  and  N_12
REMARK    5  A    between atoms: C_16  and  C_19
REMARK                            x       y       z     vdW  Elec       q    Type
REMARK                         _______ _______ _______ _____ _____    ______ ____
ROOT
ATOM      1  N   UNL     1       0.708  -1.933  -3.775  0.00  0.00    +0.383 N 
ATOM      2  C   UNL     1      -0.704  -2.334  -3.816  0.00  0.00    -0.078 C 
ATOM      3  C   UNL     1      -1.393  -1.663  -5.006  0.00  0.00    -0.018 C 
ATOM      4  C   UNL     1      -0.700  -2.095  -6.301  0.00  0.00    +0.009 C 
ATOM      5  C   UNL     1       0.787  -1.739  -6.216  0.00  0.00    +0.058 C 
ATOM      6  C   UNL     1       1.396  -2.407  -4.981  0.00  0.00    -0.066 C 
ATOM      7  H   UNL     1       0.768  -0.927  -3.728  0.00  0.00    -0.081 HD
ENDROOT
BRANCH   1  12
ATOM      8  C   UNL     1       0.718  -0.497  -1.257  0.00  0.00    -0.013 C 
ATOM      9  C   UNL     1       2.187  -0.073  -1.207  0.00  0.00    +0.004 C 
ATOM     10  C   UNL     1       2.904  -0.566  -2.466  0.00  0.00    +0.017 C 
ATOM     11  C   UNL     1       2.816  -2.092  -2.538  0.00  0.00    +0.078 C 
ATOM     12  C   UNL     1       1.347  -2.517  -2.587  0.00  0.00    -0.051 C 
ATOM     13  C   UNL     1       0.630  -2.023  -1.329  0.00  0.00    -0.011 C 
BRANCH   8  15
ATOM     14  C   UNL     1      -0.019   1.526   0.010  0.00  0.00    +0.004 C 
ATOM     15  C   UNL     1       0.002  -0.004   0.002  0.00  0.00    -0.000 C 
ENDBRANCH   8  15
BRANCH  11  16
ATOM     16  C   UNL     1       3.455  -2.677  -1.348  0.00  0.00    +0.064 C 
ATOM     17  N   UNL     1       3.949  -3.128  -0.430  0.00  0.00    -0.196 NA
ENDBRANCH  11  16
ENDBRANCH   1  12
BRANCH   5  18
ATOM     18  C   UNL     1       1.493  -2.229  -7.454  0.00  0.00    +0.212 C 
ATOM     19  O   UNL     1       2.398  -3.031  -7.359  0.00  0.00    -0.276 OA
ATOM     20  N   UNL     1       1.119  -1.776  -8.667  0.00  0.00    -0.329 N 
ATOM     21  H   UNL     1       0.395  -1.134  -8.743  0.00  0.00    +0.145 HD
ATOM     22  H   UNL     1       1.574  -2.091  -9.464  0.00  0.00    +0.145 HD
ENDBRANCH   5  18
TORSDOF 4
