REMARK  Name = ZINC13033167
REMARK  10 active torsions:
REMARK  status: ('A' for Active; 'I' for Inactive)
REMARK    1  A    between atoms: C_1  and  C_2
REMARK    2  A    between atoms: C_5  and  C_35
REMARK    3  A    between atoms: C_9  and  C_14
REMARK    4  A    between atoms: C_14  and  N_69
REMARK    5  A    between atoms: C_15  and  C_16
REMARK    6  A    between atoms: C_15  and  N_69
REMARK    7  A    between atoms: N_20  and  C_21
REMARK    8  A    between atoms: C_21  and  C_22
REMARK    9  A    between atoms: C_22  and  C_23
REMARK   10  A    between atoms: C_29  and  N_69
REMARK                            x       y       z     vdW  Elec       q    Type
REMARK                         _______ _______ _______ _____ _____    ______ ____
ROOT
ATOM      1  N   UNL     1       0.153   1.442  -2.967  0.00  0.00    +0.389 N 
ATOM      2  H   UNL     1       0.105   0.421  -2.860  0.00  0.00    -0.080 HD
ENDROOT
BRANCH   1   3
ATOM      3  C   UNL     1      -0.481   2.077  -1.793  0.00  0.00    -0.068 C 
ATOM      4  C   UNL     1       0.155   1.512  -0.521  0.00  0.00    -0.015 C 
ATOM      5  C   UNL     1      -0.507   2.144   0.705  0.00  0.00    -0.002 C 
ATOM      6  C   UNL     1      -0.308   3.661   0.666  0.00  0.00    -0.000 C 
ATOM      7  C   UNL     1      -0.944   4.226  -0.606  0.00  0.00    -0.002 C 
ATOM      8  C   UNL     1      -0.283   3.594  -1.831  0.00  0.00    -0.015 C 
ENDBRANCH   1   3
BRANCH   1   9
ATOM      9  C   UNL     1      -0.564   1.830  -4.200  0.00  0.00    -0.037 C 
BRANCH   9  18
ATOM     10  C   UNL     1      -5.316   3.427  -2.792  0.00  0.00    +0.044 C 
ATOM     11  C   UNL     1      -5.447   2.006  -3.275  0.00  0.00    -0.041 A 
ATOM     12  C   UNL     1      -6.667   1.391  -3.279  0.00  0.00    +0.004 A 
ATOM     13  C   UNL     1      -6.798   0.083  -3.723  0.00  0.00    +0.005 A 
ATOM     14  C   UNL     1      -5.700  -0.622  -4.167  0.00  0.00    -0.026 A 
ATOM     15  C   UNL     1      -4.448  -0.018  -4.173  0.00  0.00    +0.052 A 
ATOM     16  C   UNL     1      -4.319   1.310  -3.722  0.00  0.00    +0.002 A 
ATOM     17  C   UNL     1      -2.995   1.936  -3.727  0.00  0.00    +0.017 A 
ATOM     18  C   UNL     1      -1.939   1.214  -4.177  0.00  0.00    +0.001 A 
ATOM     19  C   UNL     1      -2.122  -0.114  -4.618  0.00  0.00    +0.251 A 
ATOM     20  O   UNL     1      -1.159  -0.747  -5.014  0.00  0.00    -0.268 OA
ATOM     21  N   UNL     1      -3.333  -0.699  -4.613  0.00  0.00    -0.322 N 
ATOM     22  H   UNL     1      -3.423  -1.614  -4.923  0.00  0.00    +0.169 HD
ATOM     23  C   UNL     1      -5.857  -2.043  -4.646  0.00  0.00    +0.046 C 
ENDBRANCH   9  18
ENDBRANCH   1   9
BRANCH   1  24
ATOM     24  C   UNL     1       1.571   1.849  -3.058  0.00  0.00    +0.001 C 
BRANCH  24  25
ATOM     25  C   UNL     1       2.256   0.994  -4.093  0.00  0.00    +0.135 A 
ATOM     26  N   UNL     1       2.399   1.270  -5.366  0.00  0.00    -0.115 NA
ATOM     27  N   UNL     1       3.038   0.296  -5.915  0.00  0.00    -0.023 NA
ATOM     28  N   UNL     1       3.306  -0.595  -5.026  0.00  0.00    -0.044 NA
ATOM     29  N   UNL     1       2.845  -0.199  -3.888  0.00  0.00    -0.231 N 
BRANCH  29  30
ATOM     30  C   UNL     1       2.941  -0.914  -2.613  0.00  0.00    +0.152 C 
BRANCH  30  31
ATOM     31  C   UNL     1       1.767  -1.886  -2.483  0.00  0.00    +0.058 C 
BRANCH  31  32
ATOM     32  C   UNL     1       1.942  -2.723  -1.242  0.00  0.00    -0.046 A 
ATOM     33  C   UNL     1       2.715  -3.868  -1.284  0.00  0.00    +0.004 A 
ATOM     34  C   UNL     1       2.880  -4.633  -0.144  0.00  0.00    +0.000 A 
ATOM     35  C   UNL     1       2.263  -4.258   1.035  0.00  0.00    +0.000 A 
ATOM     36  C   UNL     1       1.485  -3.116   1.075  0.00  0.00    +0.000 A 
ATOM     37  C   UNL     1       1.325  -2.348  -0.063  0.00  0.00    +0.004 A 
ENDBRANCH  31  32
ENDBRANCH  30  31
ENDBRANCH  29  30
ENDBRANCH  24  25
ENDBRANCH   1  24
TORSDOF 8
