REMARK  Name = ZINC06807340
REMARK  6 active torsions:
REMARK  status: ('A' for Active; 'I' for Inactive)
REMARK    1  A    between atoms: C_1  and  C_2
REMARK    2  A    between atoms: C_2  and  C_3
REMARK    3  A    between atoms: N_5  and  C_16
REMARK    4  A    between atoms: C_16  and  C_17
REMARK    5  A    between atoms: N_19  and  C_20
REMARK    6  A    between atoms: C_26  and  C_28
REMARK                            x       y       z     vdW  Elec       q    Type
REMARK                         _______ _______ _______ _____ _____    ______ ____
ROOT
ATOM      1  C   UNL     1      -5.804  -0.142   3.025  0.00  0.00    +0.135 A 
ATOM      2  N   UNL     1      -4.816   0.642   2.764  0.00  0.00    -0.154 NA
ATOM      3  N   UNL     1      -3.536   0.430   3.286  0.00  0.00    -0.217 N 
ATOM      4  C   UNL     1      -3.305  -0.622   4.103  0.00  0.00    +0.292 A 
ATOM      5  O   UNL     1      -2.197  -0.821   4.571  0.00  0.00    -0.264 OA
ATOM      6  C   UNL     1      -4.425  -1.515   4.410  0.00  0.00    +0.118 A 
ATOM      7  N   UNL     1      -5.664  -1.241   3.850  0.00  0.00    -0.288 N 
ATOM      8  C   UNL     1      -6.547  -2.200   4.274  0.00  0.00    +0.094 A 
ATOM      9  C   UNL     1      -7.883  -2.665   4.212  0.00  0.00    +0.068 A 
ATOM     10  C   UNL     1      -7.955  -3.767   4.976  0.00  0.00    +0.198 A 
ATOM     11  O   UNL     1      -6.748  -4.021   5.513  0.00  0.00    -0.461 OA
ATOM     12  C   UNL     1      -5.864  -3.084   5.105  0.00  0.00    +0.154 A 
ATOM     13  C   UNL     1      -4.537  -2.647   5.184  0.00  0.00    +0.080 A 
ENDROOT
BRANCH   1  15
ATOM     14  C   UNL     1      -7.058   1.408   1.550  0.00  0.00    +0.012 C 
ATOM     15  C   UNL     1      -7.152   0.152   2.418  0.00  0.00    +0.073 C 
ENDBRANCH   1  15
BRANCH   3  16
ATOM     16  C   UNL     1      -2.447   1.351   2.951  0.00  0.00    +0.243 C 
BRANCH  16  17
ATOM     17  C   UNL     1      -1.741   0.865   1.711  0.00  0.00    +0.235 C 
ATOM     18  O   UNL     1      -2.112  -0.151   1.161  0.00  0.00    -0.274 OA
ATOM     19  N   UNL     1      -0.698   1.558   1.213  0.00  0.00    -0.311 N 
ATOM     20  H   UNL     1      -0.402   2.370   1.653  0.00  0.00    +0.149 HD
BRANCH  19  21
ATOM     21  C   UNL     1      -0.013   1.086   0.008  0.00  0.00    +0.076 C 
ATOM     22  C   UNL     1      -0.753   1.593  -1.232  0.00  0.00    +0.022 C 
ATOM     23  C   UNL     1      -0.037   1.099  -2.490  0.00  0.00    +0.002 C 
ATOM     24  C   UNL     1       1.399   1.629  -2.501  0.00  0.00    +0.000 C 
ATOM     25  C   UNL     1       2.139   1.122  -1.262  0.00  0.00    +0.005 C 
ATOM     26  C   UNL     1       1.423   1.615  -0.003  0.00  0.00    +0.006 C 
ATOM     27  C   UNL     1       2.163   1.109   1.237  0.00  0.00    +0.009 C 
ENDBRANCH  19  21
ENDBRANCH  16  17
ENDBRANCH   3  16
TORSDOF 4
