REMARK  Name = ZINC17521265
REMARK  9 active torsions:
REMARK  status: ('A' for Active; 'I' for Inactive)
REMARK    1  A    between atoms: C_4  and  C_7
REMARK    2  A    between atoms: C_7  and  N_8
REMARK    3  A    between atoms: N_8  and  S_9
REMARK    4  A    between atoms: S_9  and  C_12
REMARK    5  A    between atoms: C_16  and  C_18
REMARK    6  A    between atoms: N_20  and  N_21
REMARK    7  A    between atoms: C_22  and  C_24
REMARK    8  A    between atoms: C_24  and  N_25
REMARK    9  A    between atoms: C_26  and  C_28
REMARK                            x       y       z     vdW  Elec       q    Type
REMARK                         _______ _______ _______ _____ _____    ______ ____
ROOT
ATOM      1  C   UNL     1      -1.222   1.748   0.017  0.00  0.00    +0.106 A 
ATOM      2  C   UNL     1      -0.013   1.076   0.008  0.00  0.00    +0.028 A 
ATOM      3  C   UNL     1       1.178   1.781   0.000  0.00  0.00    +0.003 A 
ATOM      4  C   UNL     1       1.166   3.160   0.007  0.00  0.00    +0.013 A 
ATOM      5  C   UNL     1      -0.050   3.845   0.022  0.00  0.00    +0.040 A 
ATOM      6  C   UNL     1      -1.248   3.127   0.030  0.00  0.00    +0.041 A 
ENDROOT
BRANCH   5   7
ATOM      7  C   UNL     1      -0.070   5.323   0.030  0.00  0.00    +0.260 C 
ATOM      8  O   UNL     1      -1.131   5.916   0.043  0.00  0.00    -0.269 OA
ATOM      9  N   UNL     1       1.088   6.013   0.024  0.00  0.00    -0.230 N 
ATOM     10  H   UNL     1       1.934   5.539   0.013  0.00  0.00    +0.173 HD
BRANCH   9  11
ATOM     11  N   UNL     1       1.069   7.414   0.031  0.00  0.00    -0.233 N 
ATOM     12  C   UNL     1       2.227   8.103   0.024  0.00  0.00    +0.246 C 
ATOM     13  O   UNL     1       3.285   7.511   0.011  0.00  0.00    -0.273 OA
ATOM     14  H   UNL     1       0.222   7.887   0.042  0.00  0.00    +0.173 HD
BRANCH  12  15
ATOM     15  C   UNL     1       2.206   9.610   0.033  0.00  0.00    +0.202 C 
BRANCH  15  16
ATOM     16  N   UNL     1       3.580  10.117   0.023  0.00  0.00    -0.302 N 
ATOM     17  C   UNL     1       3.809  11.445   0.028  0.00  0.00    +0.251 C 
ATOM     18  O   UNL     1       2.873  12.224   0.041  0.00  0.00    -0.270 OA
ATOM     19  H   UNL     1       4.326   9.497   0.013  0.00  0.00    +0.150 HD
BRANCH  17  20
ATOM     20  C   UNL     1       5.184  11.953   0.018  0.00  0.00    +0.074 A 
ATOM     21  C   UNL     1       5.631  13.265   0.015  0.00  0.00    +0.021 A 
ATOM     22  C   UNL     1       6.990  13.462   0.008  0.00  0.00    +0.008 A 
ATOM     23  C   UNL     1       7.817  12.384  -0.005  0.00  0.00    +0.046 A 
ATOM     24  S   UNL     1       6.718  11.043  -0.002  0.00  0.00    -0.092 S 
ENDBRANCH  17  20
ENDBRANCH  15  16
ENDBRANCH  12  15
ENDBRANCH   9  11
ENDBRANCH   5   7
BRANCH   1  25
ATOM     25  S   UNL     1      -2.732   0.841   0.020  0.00  0.00    +0.059 S 
ATOM     26  O   UNL     1      -3.724   1.702  -0.522  0.00  0.00    -0.153 OA
ATOM     27  O   UNL     1      -2.442  -0.433  -0.540  0.00  0.00    -0.153 OA
BRANCH  25  28
ATOM     28  N   UNL     1      -3.145   0.580   1.602  0.00  0.00    -0.186 NA
ATOM     29  H   UNL     1      -3.164  -0.323   1.956  0.00  0.00    +0.148 HD
BRANCH  28  30
ATOM     30  C   UNL     1      -3.479   1.713   2.468  0.00  0.00    +0.141 C 
BRANCH  30  34
ATOM     31  C   UNL     1      -5.411   0.285   6.000  0.00  0.00    +0.000 A 
ATOM     32  C   UNL     1      -4.036   0.416   5.970  0.00  0.00    +0.000 A 
ATOM     33  C   UNL     1      -3.410   0.878   4.827  0.00  0.00    +0.005 A 
ATOM     34  C   UNL     1      -4.161   1.209   3.714  0.00  0.00    -0.032 A 
ATOM     35  C   UNL     1      -5.537   1.083   3.746  0.00  0.00    +0.005 A 
ATOM     36  C   UNL     1      -6.162   0.616   4.887  0.00  0.00    +0.000 A 
ENDBRANCH  30  34
ENDBRANCH  28  30
ENDBRANCH  25  28
ENDBRANCH   1  25
TORSDOF 9
