REMARK  Name = ZINC35741576
REMARK  11 active torsions:
REMARK  status: ('A' for Active; 'I' for Inactive)
REMARK    1  A    between atoms: C_1  and  C_2
REMARK    2  A    between atoms: C_2  and  C_4
REMARK    3  A    between atoms: C_2  and  N_14
REMARK    4  A    between atoms: C_7  and  S_10
REMARK    5  A    between atoms: S_10  and  N_13
REMARK    6  A    between atoms: N_14  and  C_15
REMARK    7  A    between atoms: N_14  and  C_16
REMARK    8  A    between atoms: C_16  and  C_17
REMARK    9  A    between atoms: N_19  and  C_20
REMARK   10  A    between atoms: C_20  and  C_22
REMARK   11  A    between atoms: C_20  and  C_23
REMARK                            x       y       z     vdW  Elec       q    Type
REMARK                         _______ _______ _______ _____ _____    ______ ____
ROOT
ATOM      1  N   UNL     1       1.670  -0.298   1.155  0.00  0.00    +0.388 N 
ATOM      2  C   UNL     1       3.089   0.014   1.369  0.00  0.00    -0.095 C 
ATOM      3  H   UNL     1       1.124   0.077   1.916  0.00  0.00    -0.081 HD
ENDROOT
BRANCH   1   5
ATOM      4  C   UNL     1       1.408   1.817  -0.051  0.00  0.00    -0.008 C 
ATOM      5  C   UNL     1       1.223   0.300  -0.111  0.00  0.00    -0.041 C 
BRANCH   5   6
ATOM      6  C   UNL     1      -0.233  -0.021  -0.330  0.00  0.00    -0.061 A 
ATOM      7  C   UNL     1      -1.117   0.016   0.732  0.00  0.00    +0.004 A 
ATOM      8  C   UNL     1      -2.453  -0.278   0.530  0.00  0.00    +0.029 A 
ATOM      9  C   UNL     1      -2.905  -0.608  -0.734  0.00  0.00    +0.105 A 
ATOM     10  C   UNL     1      -2.021  -0.644  -1.796  0.00  0.00    +0.029 A 
ATOM     11  C   UNL     1      -0.686  -0.346  -1.595  0.00  0.00    +0.004 A 
BRANCH   9  12
ATOM     12  S   UNL     1      -4.607  -0.984  -0.990  0.00  0.00    +0.056 S 
ATOM     13  O   UNL     1      -4.673  -1.792  -2.157  0.00  0.00    -0.153 OA
ATOM     14  O   UNL     1      -5.122  -1.412   0.263  0.00  0.00    -0.153 OA
BRANCH  12  15
ATOM     15  N   UNL     1      -5.372   0.438  -1.356  0.00  0.00    -0.204 NA
ATOM     16  H   UNL     1      -4.867   1.265  -1.392  0.00  0.00    +0.144 HD
ATOM     17  H   UNL     1      -6.326   0.444  -1.534  0.00  0.00    +0.144 HD
ENDBRANCH  12  15
ENDBRANCH   9  12
ENDBRANCH   5   6
ENDBRANCH   1   5
BRANCH   1  18
ATOM     18  C   UNL     1       1.493  -1.755   1.097  0.00  0.00    +0.019 C 
BRANCH  18  19
ATOM     19  C   UNL     1       1.835  -2.356   2.436  0.00  0.00    +0.197 C 
ATOM     20  O   UNL     1       2.192  -1.641   3.348  0.00  0.00    -0.278 OA
ATOM     21  N   UNL     1       1.745  -3.688   2.620  0.00  0.00    -0.310 N 
ATOM     22  H   UNL     1       1.460  -4.260   1.891  0.00  0.00    +0.149 HD
BRANCH  21  23
ATOM     23  C   UNL     1       2.078  -4.272   3.922  0.00  0.00    +0.101 C 
ATOM     24  C   UNL     1       0.838  -4.263   4.817  0.00  0.00    +0.033 C 
BRANCH  23  25
ATOM     25  C   UNL     1       2.548  -5.691   3.730  0.00  0.00    -0.009 A 
ATOM     26  C   UNL     1       2.111  -6.423   2.642  0.00  0.00    +0.008 A 
ATOM     27  C   UNL     1       2.541  -7.725   2.466  0.00  0.00    +0.020 A 
ATOM     28  C   UNL     1       3.411  -8.295   3.378  0.00  0.00    +0.042 A 
ATOM     29  C   UNL     1       3.850  -7.563   4.466  0.00  0.00    +0.040 A 
ATOM     30  C   UNL     1       3.422  -6.259   4.640  0.00  0.00    +0.047 A 
ATOM     31 CL   UNL     1       3.977  -5.337   6.002  0.00  0.00    -0.083 Cl
ATOM     32 CL   UNL     1       3.952  -9.930   3.156  0.00  0.00    -0.083 Cl
ENDBRANCH  23  25
ENDBRANCH  21  23
ENDBRANCH  18  19
ENDBRANCH   1  18
TORSDOF 8
