REMARK  Name = ZINC38306745
REMARK  5 active torsions:
REMARK  status: ('A' for Active; 'I' for Inactive)
REMARK    1  A    between atoms: C_1  and  C_2
REMARK    2  A    between atoms: N_9  and  N_10
REMARK    3  A    between atoms: C_15  and  C_18
REMARK    4  A    between atoms: C_18  and  C_19
REMARK    5  A    between atoms: N_21  and  C_22
REMARK                            x       y       z     vdW  Elec       q    Type
REMARK                         _______ _______ _______ _____ _____    ______ ____
ROOT
ATOM      1  N   UNL     1       0.061  -3.900   4.363  0.00  0.00    -0.126 NA
ATOM      2  C   UNL     1       0.069  -3.705   5.679  0.00  0.00    +0.183 C 
ATOM      3  N   UNL     1       0.057  -2.507   6.333  0.00  0.00    -0.263 N 
ATOM      4  C   UNL     1       0.066  -2.420   7.656  0.00  0.00    +0.233 C 
ATOM      5  O   UNL     1       0.055  -1.366   8.256  0.00  0.00    -0.274 OA
ATOM      6  C   UNL     1       0.091  -3.776   8.346  0.00  0.00    +0.149 C 
ATOM      7  S   UNL     1       0.088  -4.883   6.878  0.00  0.00    -0.075 S 
ATOM      8  H   UNL     1       0.041  -1.690   5.811  0.00  0.00    +0.157 HD
ENDROOT
BRANCH   1  17
ATOM      9  C   UNL     1      -0.020   1.544   0.038  0.00  0.00    +0.044 C 
ATOM     10  C   UNL     1      -0.006   0.038   0.022  0.00  0.00    -0.050 A 
ATOM     11  C   UNL     1      -0.010  -0.642  -1.185  0.00  0.00    +0.005 A 
ATOM     12  C   UNL     1       0.002  -2.021  -1.216  0.00  0.00    +0.024 A 
ATOM     13  C   UNL     1       0.018  -2.746  -0.029  0.00  0.00    +0.043 A 
ATOM     14  C   UNL     1       0.021  -2.055   1.191  0.00  0.00    +0.029 A 
ATOM     15  C   UNL     1       0.015  -0.663   1.211  0.00  0.00    +0.015 A 
ATOM     16  C   UNL     1       0.038  -3.084   2.253  0.00  0.00    +0.157 C 
ATOM     17  N   UNL     1       0.046  -2.890   3.561  0.00  0.00    -0.142 NA
ATOM     18  C   UNL     1       0.044  -4.368   1.540  0.00  0.00    +0.269 C 
ATOM     19  O   UNL     1       0.057  -5.472   2.055  0.00  0.00    -0.268 OA
ATOM     20  N   UNL     1       0.031  -4.112   0.221  0.00  0.00    -0.280 N 
ATOM     21  H   UNL     1       0.032  -4.795  -0.468  0.00  0.00    +0.155 HD
ENDBRANCH   1  17
BRANCH   6  22
ATOM     22  C   UNL     1      -1.161  -3.988   9.199  0.00  0.00    +0.120 C 
BRANCH  22  23
ATOM     23  C   UNL     1      -1.039  -5.285   9.958  0.00  0.00    +0.219 C 
ATOM     24  O   UNL     1      -0.047  -5.971   9.829  0.00  0.00    -0.275 OA
ATOM     25  N   UNL     1      -2.031  -5.681  10.780  0.00  0.00    -0.285 N 
ATOM     26  H   UNL     1      -2.792  -5.101  10.935  0.00  0.00    +0.155 HD
BRANCH  25  27
ATOM     27  C   UNL     1      -1.961  -6.929  11.409  0.00  0.00    +0.033 A 
ATOM     28  C   UNL     1      -3.118  -7.668  11.619  0.00  0.00    +0.024 A 
ATOM     29  C   UNL     1      -3.047  -8.899  12.240  0.00  0.00    +0.017 A 
ATOM     30  C   UNL     1      -1.824  -9.397  12.652  0.00  0.00    +0.018 A 
ATOM     31  C   UNL     1      -0.669  -8.664  12.445  0.00  0.00    +0.017 A 
ATOM     32  C   UNL     1      -0.734  -7.434  11.820  0.00  0.00    +0.024 A 
ATOM     33 BR   UNL     1      -1.730 -11.084  13.503  0.00  0.00    -0.050 Br
ENDBRANCH  25  27
ENDBRANCH  22  23
ENDBRANCH   6  22
TORSDOF 4
