REMARK  Name = ZINC39394368
REMARK  8 active torsions:
REMARK  status: ('A' for Active; 'I' for Inactive)
REMARK    1  A    between atoms: C_1  and  C_2
REMARK    2  A    between atoms: N_9  and  C_19
REMARK    3  A    between atoms: C_11  and  C_14
REMARK    4  A    between atoms: C_19  and  C_20
REMARK    5  A    between atoms: N_22  and  C_23
REMARK    6  A    between atoms: C_23  and  C_24
REMARK    7  A    between atoms: C_24  and  C_25
REMARK    8  A    between atoms: N_33  and  C_34
REMARK                            x       y       z     vdW  Elec       q    Type
REMARK                         _______ _______ _______ _____ _____    ______ ____
ROOT
ATOM      1  C   UNL     1      -0.018   1.503   0.010  0.00  0.00    +0.044 C 
ATOM      2  C   UNL     1       0.002  -0.004   0.002  0.00  0.00    -0.050 A 
ATOM      3  C   UNL     1       0.006  -0.688  -1.200  0.00  0.00    +0.007 A 
ATOM      4  C   UNL     1       0.034  -2.069  -1.214  0.00  0.00    +0.046 A 
ATOM      5  C   UNL     1       0.054  -2.768  -0.015  0.00  0.00    +0.126 A 
ATOM      6  C   UNL     1       0.034  -2.081   1.183  0.00  0.00    +0.009 A 
ATOM      7  C   UNL     1       0.023  -0.701   1.197  0.00  0.00    +0.012 A 
ATOM      8  C   UNL     1      -0.001  -2.857   2.486  0.00  0.00    +0.124 C 
ATOM      9  N   UNL     1       1.282  -3.546   2.660  0.00  0.00    -0.286 NA
ATOM     10  C   UNL     1       1.330  -4.826   1.959  0.00  0.00    +0.134 C 
ATOM     11  C   UNL     1       1.340  -4.692   0.451  0.00  0.00    +0.218 C 
ATOM     12  O   UNL     1       0.109  -4.128  -0.017  0.00  0.00    -0.483 OA
ENDROOT
BRANCH  11  13
ATOM     13  C   UNL     1       1.527  -6.054  -0.166  0.00  0.00    +0.001 A 
ATOM     14  C   UNL     1       2.788  -6.496  -0.522  0.00  0.00    +0.015 A 
ATOM     15  C   UNL     1       2.921  -7.726  -1.076  0.00  0.00    +0.045 A 
ATOM     16  S   UNL     1       1.232  -8.302  -1.107  0.00  0.00    -0.105 S 
ATOM     17  C   UNL     1       0.463  -6.867  -0.375  0.00  0.00    +0.052 A 
ENDBRANCH  11  13
BRANCH   9  18
ATOM     18  C   UNL     1       1.601  -3.713   4.084  0.00  0.00    +0.180 C 
BRANCH  18  19
ATOM     19  C   UNL     1       1.833  -2.361   4.708  0.00  0.00    +0.227 C 
ATOM     20  O   UNL     1       1.741  -1.357   4.034  0.00  0.00    -0.274 OA
ATOM     21  N   UNL     1       2.142  -2.267   6.017  0.00  0.00    -0.314 N 
ATOM     22  H   UNL     1       2.215  -3.070   6.557  0.00  0.00    +0.149 HD
BRANCH  21  23
ATOM     23  C   UNL     1       2.366  -0.953   6.624  0.00  0.00    +0.112 C 
BRANCH  23  24
ATOM     24  C   UNL     1       2.699  -1.127   8.108  0.00  0.00    +0.093 C 
BRANCH  24  25
ATOM     25  C   UNL     1       2.930   0.225   8.732  0.00  0.00    +0.112 A 
ATOM     26  N   UNL     1       4.080   0.830   8.796  0.00  0.00    -0.232 NA
ATOM     27  C   UNL     1       3.933   2.026   9.422  0.00  0.00    +0.089 A 
ATOM     28  C   UNL     1       4.818   3.056   9.752  0.00  0.00    +0.030 A 
ATOM     29  C   UNL     1       4.357   4.167  10.400  0.00  0.00    +0.002 A 
ATOM     30  C   UNL     1       3.016   4.286  10.736  0.00  0.00    +0.002 A 
ATOM     31  C   UNL     1       2.125   3.282  10.420  0.00  0.00    +0.028 A 
ATOM     32  C   UNL     1       2.575   2.146   9.761  0.00  0.00    +0.069 A 
ATOM     33  N   UNL     1       1.965   0.994   9.306  0.00  0.00    -0.331 N 
ATOM     34  C   UNL     1       0.544   0.659   9.424  0.00  0.00    +0.150 C 
ENDBRANCH  24  25
ENDBRANCH  23  24
ENDBRANCH  21  23
ENDBRANCH  18  19
ENDBRANCH   9  18
TORSDOF 6
