REMARK  Name = ZINC36316500
REMARK  18 active torsions:
REMARK  status: ('A' for Active; 'I' for Inactive)
REMARK    1  A    between atoms: C_1  and  C_2
REMARK    2  A    between atoms: C_2  and  C_3
REMARK    3  A    between atoms: C_4  and  C_22
REMARK    4  A    between atoms: C_5  and  O_14
REMARK    5  A    between atoms: N_6  and  C_8
REMARK    6  A    between atoms: O_14  and  C_15
REMARK    7  A    between atoms: C_22  and  N_23
REMARK    8  A    between atoms: N_23  and  C_24
REMARK    9  A    between atoms: N_23  and  C_33
REMARK   10  A    between atoms: C_24  and  C_25
REMARK   11  A    between atoms: C_25  and  C_27
REMARK   12  A    between atoms: C_25  and  O_32
REMARK   13  A    between atoms: C_27  and  O_28
REMARK   14  A    between atoms: O_28  and  C_29
REMARK   15  A    between atoms: C_29  and  C_30
REMARK   16  A    between atoms: C_33  and  C_34
REMARK   17  A    between atoms: C_34  and  C_35
REMARK   18  A    between atoms: C_34  and  C_36
REMARK                            x       y       z     vdW  Elec       q    Type
REMARK                         _______ _______ _______ _____ _____    ______ ____
ROOT
ATOM      1  C   UNL     1      -2.450  -0.399  -0.590  0.00  0.00    +0.068 A 
ATOM      2  C   UNL     1      -2.364  -0.615   0.789  0.00  0.00    +0.021 A 
ATOM      3  C   UNL     1      -3.504  -1.241   1.186  0.00  0.00    +0.225 A 
ATOM      4  N   UNL     1      -4.281  -1.412   0.083  0.00  0.00    -0.200 N 
ATOM      5  N   UNL     1      -3.595  -0.869  -1.012  0.00  0.00    -0.168 NA
ENDROOT
BRANCH   4   6
ATOM      6  C   UNL     1      -5.544  -2.018   0.048  0.00  0.00    +0.069 A 
ATOM      7  C   UNL     1      -5.767  -3.202   0.739  0.00  0.00    +0.028 A 
ATOM      8  C   UNL     1      -7.013  -3.797   0.703  0.00  0.00    +0.002 A 
ATOM      9  C   UNL     1      -8.037  -3.215  -0.020  0.00  0.00    +0.000 A 
ATOM     10  C   UNL     1      -7.819  -2.037  -0.709  0.00  0.00    +0.002 A 
ATOM     11  C   UNL     1      -6.577  -1.433  -0.672  0.00  0.00    +0.028 A 
ENDBRANCH   4   6
BRANCH   1  13
ATOM     12  C   UNL     1      -1.728   1.757  -1.579  0.00  0.00    +0.010 C 
ATOM     13  C   UNL     1      -1.403   0.268  -1.444  0.00  0.00    +0.054 C 
ENDBRANCH   1  13
BRANCH   3  14
ATOM     14  O   UNL     1      -3.810  -1.626   2.451  0.00  0.00    -0.438 OA
BRANCH  14  15
ATOM     15  C   UNL     1      -3.334  -2.822   2.887  0.00  0.00    +0.131 A 
ATOM     16  C   UNL     1      -2.466  -3.556   2.091  0.00  0.00    +0.049 A 
ATOM     17  C   UNL     1      -1.983  -4.771   2.535  0.00  0.00    +0.042 A 
ATOM     18  C   UNL     1      -2.365  -5.258   3.774  0.00  0.00    +0.124 A 
ATOM     19  C   UNL     1      -3.231  -4.527   4.570  0.00  0.00    +0.042 A 
ATOM     20  C   UNL     1      -3.711  -3.308   4.130  0.00  0.00    +0.049 A 
ATOM     21  F   UNL     1      -1.892  -6.447   4.207  0.00  0.00    -0.205 F 
ENDBRANCH  14  15
ENDBRANCH   3  14
BRANCH   2  22
ATOM     22  C   UNL     1      -1.212  -0.223   1.678  0.00  0.00    -0.036 C 
BRANCH  22  23
ATOM     23  N   UNL     1      -1.371   1.175   2.099  0.00  0.00    +0.384 N 
ATOM     24  H   UNL     1      -1.443   1.766   1.284  0.00  0.00    -0.081 HD
BRANCH  23  25
ATOM     25  C   UNL     1      -2.590   1.307   2.908  0.00  0.00    -0.044 C 
BRANCH  25  26
ATOM     26  C   UNL     1      -2.866   2.788   3.178  0.00  0.00    +0.124 C 
BRANCH  26  27
ATOM     27  O   UNL     1      -1.856   3.310   4.044  0.00  0.00    -0.391 OA
ATOM     28  H   UNL     1      -1.807   2.868   4.902  0.00  0.00    +0.210 HD
ENDBRANCH  26  27
BRANCH  26  29
ATOM     29  C   UNL     1      -4.236   2.939   3.842  0.00  0.00    +0.189 C 
BRANCH  29  30
ATOM     30  O   UNL     1      -4.544   4.327   3.988  0.00  0.00    -0.373 OA
BRANCH  30  31
ATOM     31  C   UNL     1      -5.809   4.579   4.602  0.00  0.00    +0.186 C 
BRANCH  31  32
ATOM     32  C   UNL     1      -6.029   6.067   4.705  0.00  0.00    -0.007 C 
ATOM     33  C   UNL     1      -7.188   6.582   4.374  0.00  0.00    +0.006 C 
ENDBRANCH  31  32
ENDBRANCH  30  31
ENDBRANCH  29  30
ENDBRANCH  26  29
ENDBRANCH  25  26
ENDBRANCH  23  25
BRANCH  23  34
ATOM     34  C   UNL     1      -0.207   1.583   2.897  0.00  0.00    -0.075 C 
BRANCH  34  35
ATOM     35  C   UNL     1       1.055   1.502   2.036  0.00  0.00    -0.034 C 
ATOM     36  C   UNL     1       0.943   2.490   0.873  0.00  0.00    +0.005 C 
ATOM     37  C   UNL     1       2.277   1.852   2.887  0.00  0.00    +0.005 C 
ENDBRANCH  34  35
ENDBRANCH  23  34
ENDBRANCH  22  23
ENDBRANCH   2  22
TORSDOF 15
