REMARK  Name = ZINC25643312
REMARK  13 active torsions:
REMARK  status: ('A' for Active; 'I' for Inactive)
REMARK    1  A    between atoms: C_1  and  C_2
REMARK    2  A    between atoms: C_3  and  C_33
REMARK    3  A    between atoms: C_5  and  N_26
REMARK    4  A    between atoms: C_6  and  C_7
REMARK    5  A    between atoms: C_7  and  O_9
REMARK    6  A    between atoms: O_9  and  C_10
REMARK    7  A    between atoms: C_10  and  C_11
REMARK    8  A    between atoms: C_13  and  O_14
REMARK    9  A    between atoms: C_23  and  C_25
REMARK   10  A    between atoms: C_27  and  C_29
REMARK   11  A    between atoms: C_29  and  C_30
REMARK   12  A    between atoms: C_29  and  C_31
REMARK   13  A    between atoms: C_29  and  C_32
REMARK                            x       y       z     vdW  Elec       q    Type
REMARK                         _______ _______ _______ _____ _____    ______ ____
ROOT
ATOM      1  O   UNL     1       3.046   1.438   1.174  0.00  0.00    -0.456 OA
ENDROOT
BRANCH   1   2
ATOM      2  C   UNL     1       2.343   1.518   0.026  0.00  0.00    +0.342 C 
ATOM      3  O   UNL     1       2.846   1.160  -1.022  0.00  0.00    -0.245 OA
BRANCH   2   9
ATOM      4  C   UNL     1       1.800   4.444  -0.341  0.00  0.00    +0.045 C 
ATOM      5  C   UNL     1       0.693   3.443  -0.134  0.00  0.00    -0.025 A 
ATOM      6  C   UNL     1      -0.597   3.820  -0.104  0.00  0.00    -0.008 A 
ATOM      7  S   UNL     1      -1.467   2.288   0.155  0.00  0.00    -0.078 S 
ATOM      8  C   UNL     1      -0.122   1.200   0.227  0.00  0.00    +0.086 A 
ATOM      9  C   UNL     1       0.973   2.037   0.042  0.00  0.00    +0.091 A 
ATOM     10  C   UNL     1      -1.169   5.206  -0.258  0.00  0.00    +0.052 C 
BRANCH   8  11
ATOM     11  N   UNL     1      -0.134  -0.173   0.416  0.00  0.00    -0.279 N 
ATOM     12  C   UNL     1      -1.305  -0.820   0.580  0.00  0.00    +0.223 C 
ATOM     13  O   UNL     1      -2.348  -0.201   0.561  0.00  0.00    -0.275 OA
ATOM     14  H   UNL     1       0.811  -0.734   0.433  0.00  0.00    +0.155 HD
BRANCH  12  15
ATOM     15  C   UNL     1      -1.319  -2.313   0.786  0.00  0.00    +0.039 C 
ATOM     16  C   UNL     1      -2.763  -2.793   0.944  0.00  0.00    +0.020 C 
ATOM     17  C   UNL     1      -0.682  -3.001  -0.424  0.00  0.00    +0.020 C 
ATOM     18  C   UNL     1      -0.525  -2.661   2.046  0.00  0.00    +0.020 C 
ENDBRANCH  12  15
ENDBRANCH   8  11
ENDBRANCH   2   9
ENDBRANCH   1   2
BRANCH   1  19
ATOM     19  C   UNL     1       4.398   0.915   1.084  0.00  0.00    +0.269 C 
BRANCH  19  20
ATOM     20  C   UNL     1       5.023   0.900   2.455  0.00  0.00    +0.007 A 
ATOM     21  C   UNL     1       4.334   1.335   3.541  0.00  0.00    +0.095 A 
ATOM     22  C   UNL     1       4.941   1.311   4.814  0.00  0.00    +0.285 A 
ATOM     23  O   UNL     1       6.195   0.866   4.988  0.00  0.00    -0.425 OA
ATOM     24  C   UNL     1       6.935   0.420   3.950  0.00  0.00    +0.141 A 
ATOM     25  C   UNL     1       6.389   0.410   2.653  0.00  0.00    +0.024 A 
ATOM     26  C   UNL     1       7.154  -0.045   1.574  0.00  0.00    +0.014 A 
ATOM     27  C   UNL     1       8.427  -0.491   1.784  0.00  0.00    +0.024 A 
ATOM     28  C   UNL     1       8.972  -0.489   3.068  0.00  0.00    +0.037 A 
ATOM     29  C   UNL     1       8.230  -0.035   4.148  0.00  0.00    +0.070 A 
ATOM     30  N   UNL     1      10.275  -0.947   3.267  0.00  0.00    -0.286 N 
ATOM     31  C   UNL     1      10.598  -1.584   4.410  0.00  0.00    +0.214 C 
ATOM     32  O   UNL     1       9.737  -1.844   5.224  0.00  0.00    -0.276 OA
ATOM     33  C   UNL     1      12.029  -1.973   4.678  0.00  0.00    +0.109 C 
ATOM     34  H   UNL     1      11.039  -0.789   2.491  0.00  0.00    +0.155 HD
BRANCH  22  35
ATOM     35  O   UNL     1       4.311   1.704   5.779  0.00  0.00    -0.480 OA
ATOM     36  H   UNL     1       4.771   1.691   6.778  0.00  0.00    +0.295 HD
ENDBRANCH  22  35
ENDBRANCH  19  20
ENDBRANCH   1  19
TORSDOF 7
