REMARK  Name = ZINC08854856
REMARK  6 active torsions:
REMARK  status: ('A' for Active; 'I' for Inactive)
REMARK    1  A    between atoms: C_1  and  C_2
REMARK    2  A    between atoms: C_2  and  C_30
REMARK    3  A    between atoms: N_12  and  C_15
REMARK    4  A    between atoms: C_15  and  N_70
REMARK    5  A    between atoms: C_18  and  C_21
REMARK    6  A    between atoms: C_21  and  C_22
REMARK                            x       y       z     vdW  Elec       q    Type
REMARK                         _______ _______ _______ _____ _____    ______ ____
ROOT
ATOM      1  C   UNL     1      -3.794   6.872   0.086  0.00  0.00    +0.021 C 
ATOM      2  C   UNL     1      -4.645   5.601   0.084  0.00  0.00    +0.040 C 
ATOM      3  C   UNL     1      -4.314   4.759   1.321  0.00  0.00    +0.177 C 
ATOM      4  O   UNL     1      -2.956   4.314   1.229  0.00  0.00    -0.337 OA
ATOM      5  C   UNL     1      -2.672   3.569   0.048  0.00  0.00    +0.278 C 
ATOM      6  C   UNL     1      -1.225   3.144   0.030  0.00  0.00    +0.042 A 
ATOM      7  C   UNL     1      -0.039   3.844   0.022  0.00  0.00    +0.011 A 
ATOM      8  C   UNL     1       1.165   3.163   0.007  0.00  0.00    +0.001 A 
ATOM      9  C   UNL     1       1.173   1.780   0.000  0.00  0.00    +0.002 A 
ATOM     10  C   UNL     1      -0.013   1.076   0.008  0.00  0.00    +0.024 A 
ATOM     11  C   UNL     1      -1.230   1.754   0.017  0.00  0.00    +0.043 A 
ATOM     12  N   UNL     1      -2.541   1.276   0.020  0.00  0.00    -0.283 N 
ATOM     13  C   UNL     1      -3.445   2.272   0.031  0.00  0.00    +0.283 C 
ATOM     14  O   UNL     1      -4.652   2.151   0.036  0.00  0.00    -0.269 OA
ATOM     15  O   UNL     1      -2.981   4.331  -1.115  0.00  0.00    -0.337 OA
ATOM     16  C   UNL     1      -4.340   4.778  -1.172  0.00  0.00    +0.177 C 
ENDROOT
BRANCH   2  17
ATOM     17  C   UNL     1      -6.106   5.971   0.102  0.00  0.00    -0.037 A 
ATOM     18  C   UNL     1      -6.915   5.543   1.138  0.00  0.00    +0.004 A 
ATOM     19  C   UNL     1      -8.254   5.886   1.157  0.00  0.00    +0.000 A 
ATOM     20  C   UNL     1      -8.786   6.650   0.135  0.00  0.00    +0.000 A 
ATOM     21  C   UNL     1      -7.978   7.073  -0.903  0.00  0.00    +0.000 A 
ATOM     22  C   UNL     1      -6.638   6.734  -0.920  0.00  0.00    +0.004 A 
ENDBRANCH   2  17
BRANCH  12  23
ATOM     23  C   UNL     1      -2.892  -0.146   0.012  0.00  0.00    +0.038 C 
BRANCH  23  29
ATOM     24  C   UNL     1      -3.456   0.439   2.293  0.00  0.00    -0.076 C 
ATOM     25  C   UNL     1      -3.420  -0.059   3.740  0.00  0.00    -0.015 C 
ATOM     26  C   UNL     1      -4.328  -1.284   3.875  0.00  0.00    -0.010 C 
ATOM     27  C   UNL     1      -3.865  -2.365   2.895  0.00  0.00    -0.015 C 
ATOM     28  C   UNL     1      -3.888  -1.800   1.473  0.00  0.00    -0.076 C 
ATOM     29  N   UNL     1      -2.975  -0.639   1.403  0.00  0.00    +0.390 N 
ATOM     30  H   UNL     1      -2.040  -0.932   1.709  0.00  0.00    -0.080 HD
BRANCH  26  31
ATOM     31  C   UNL     1      -4.251  -1.823   5.305  0.00  0.00    +0.038 C 
BRANCH  31  32
ATOM     32  C   UNL     1      -4.822  -0.805   6.258  0.00  0.00    -0.047 A 
ATOM     33  C   UNL     1      -3.998   0.149   6.825  0.00  0.00    +0.003 A 
ATOM     34  C   UNL     1      -4.523   1.085   7.696  0.00  0.00    +0.000 A 
ATOM     35  C   UNL     1      -5.870   1.063   8.006  0.00  0.00    +0.000 A 
ATOM     36  C   UNL     1      -6.693   0.106   7.442  0.00  0.00    +0.000 A 
ATOM     37  C   UNL     1      -6.169  -0.828   6.568  0.00  0.00    +0.003 A 
ENDBRANCH  31  32
ENDBRANCH  26  31
ENDBRANCH  23  29
ENDBRANCH  12  23
TORSDOF 5
