REMARK  Name = ZINC02128807
REMARK  5 active torsions:
REMARK  status: ('A' for Active; 'I' for Inactive)
REMARK    1  A    between atoms: C_12  and  C_14
REMARK    2  A    between atoms: C_14  and  C_15
REMARK    3  A    between atoms: C_18  and  O_22
REMARK    4  A    between atoms: C_19  and  O_21
REMARK    5  A    between atoms: N_25  and  C_28
REMARK                            x       y       z     vdW  Elec       q    Type
REMARK                         _______ _______ _______ _____ _____    ______ ____
ROOT
ATOM      1  C   UNL     1      -0.745  -4.015   3.121  0.00  0.00    +0.000 A 
ATOM      2  C   UNL     1      -0.250  -3.844   4.401  0.00  0.00    +0.002 A 
ATOM      3  C   UNL     1      -0.536  -2.697   5.111  0.00  0.00    +0.023 A 
ATOM      4  C   UNL     1      -1.326  -1.700   4.543  0.00  0.00    +0.036 A 
ATOM      5  C   UNL     1      -1.819  -1.883   3.255  0.00  0.00    -0.028 A 
ATOM      6  C   UNL     1      -1.530  -3.030   2.549  0.00  0.00    +0.004 A 
ATOM      7  C   UNL     1      -2.619  -0.651   2.942  0.00  0.00    +0.050 C 
ATOM      8  C   UNL     1      -4.080  -0.997   2.625  0.00  0.00    +0.088 C 
ATOM      9  C   UNL     1      -4.491   0.017   1.521  0.00  0.00    +0.074 C 
ATOM     10  C   UNL     1      -3.237   0.888   1.296  0.00  0.00    -0.053 C 
ATOM     11  C   UNL     1      -4.716  -0.859   0.310  0.00  0.00    +0.228 C 
ATOM     12  O   UNL     1      -5.044  -0.464  -0.788  0.00  0.00    -0.275 OA
ATOM     13  N   UNL     1      -4.498  -2.137   0.639  0.00  0.00    -0.210 N 
ATOM     14  C   UNL     1      -4.141  -2.330   1.913  0.00  0.00    +0.229 C 
ATOM     15  O   UNL     1      -3.902  -3.405   2.419  0.00  0.00    -0.275 OA
ATOM     16  C   UNL     1      -2.512   0.208   4.173  0.00  0.00    +0.211 C 
ATOM     17  O   UNL     1      -3.015   1.299   4.341  0.00  0.00    -0.277 OA
ATOM     18  N   UNL     1      -1.748  -0.469   5.051  0.00  0.00    -0.286 N 
ATOM     19  H   UNL     1      -1.518  -0.141   5.934  0.00  0.00    +0.155 HD
ATOM     20  N   UNL     1      -2.133   0.048   1.766  0.00  0.00    +0.394 N 
ATOM     21  H   UNL     1      -1.865  -0.626   1.039  0.00  0.00    -0.083 HD
ATOM     22  H   UNL     1      -1.323   0.630   2.008  0.00  0.00    -0.083 HD
ENDROOT
BRANCH  13  23
ATOM     23  C   UNL     1      -4.633  -3.189  -0.278  0.00  0.00    +0.044 A 
ATOM     24  C   UNL     1      -5.644  -4.127  -0.117  0.00  0.00    +0.025 A 
ATOM     25  C   UNL     1      -5.779  -5.159  -1.024  0.00  0.00    +0.022 A 
ATOM     26  C   UNL     1      -4.900  -5.266  -2.088  0.00  0.00    +0.041 A 
ATOM     27  C   UNL     1      -3.888  -4.336  -2.248  0.00  0.00    +0.022 A 
ATOM     28  C   UNL     1      -3.753  -3.299  -1.346  0.00  0.00    +0.025 A 
ATOM     29 CL   UNL     1      -5.067  -6.569  -3.223  0.00  0.00    -0.084 Cl
ENDBRANCH  13  23
BRANCH  10  30
ATOM     30  C   UNL     1      -3.086   1.229  -0.188  0.00  0.00    +0.020 C 
BRANCH  30  31
ATOM     31  C   UNL     1      -1.929   2.178  -0.370  0.00  0.00    -0.045 A 
ATOM     32  C   UNL     1      -0.658   1.681  -0.592  0.00  0.00    +0.007 A 
ATOM     33  C   UNL     1       0.405   2.548  -0.765  0.00  0.00    +0.049 A 
ATOM     34  C   UNL     1       0.199   3.917  -0.711  0.00  0.00    +0.158 A 
ATOM     35  C   UNL     1      -1.079   4.417  -0.482  0.00  0.00    +0.158 A 
ATOM     36  C   UNL     1      -2.141   3.543  -0.309  0.00  0.00    +0.052 A 
BRANCH  35  37
ATOM     37  O   UNL     1      -1.287   5.760  -0.427  0.00  0.00    -0.503 OA
ATOM     38  H   UNL     1      -1.498   6.160  -1.282  0.00  0.00    +0.292 HD
ENDBRANCH  35  37
BRANCH  34  39
ATOM     39  O   UNL     1       1.244   4.771  -0.881  0.00  0.00    -0.503 OA
ATOM     40  H   UNL     1       1.395   5.029  -1.800  0.00  0.00    +0.292 HD
ENDBRANCH  34  39
ENDBRANCH  30  31
ENDBRANCH  10  30
TORSDOF 5
