REMARK  Name = ZINC02387540
REMARK  4 active torsions:
REMARK  status: ('A' for Active; 'I' for Inactive)
REMARK    1  A    between atoms: C_10  and  N_11
REMARK    2  A    between atoms: C_12  and  C_14
REMARK    3  A    between atoms: N_16  and  N_17
REMARK    4  A    between atoms: C_18  and  C_19
REMARK                            x       y       z     vdW  Elec       q    Type
REMARK                         _______ _______ _______ _____ _____    ______ ____
ROOT
ATOM      1  N   UNL     1      -2.487   5.269   0.050  0.00  0.00    -0.277 N 
ATOM      2  C   UNL     1      -3.662   5.924  -0.038  0.00  0.00    +0.305 C 
ATOM      3  O   UNL     1      -4.705   5.304  -0.032  0.00  0.00    -0.265 OA
ATOM      4  H   UNL     1      -1.657   5.766   0.112  0.00  0.00    +0.155 HD
ENDROOT
BRANCH   1  14
ATOM      5  C   UNL     1       0.633   1.761  -1.800  0.00  0.00    +0.001 A 
ATOM      6  C   UNL     1       0.632   3.155  -1.815  0.00  0.00    +0.001 A 
ATOM      7  C   UNL     1      -0.368   3.860  -1.218  0.00  0.00    +0.010 A 
ATOM      8  C   UNL     1      -1.413   3.177  -0.576  0.00  0.00    +0.003 A 
ATOM      9  C   UNL     1      -1.415   1.761  -0.565  0.00  0.00    -0.016 A 
ATOM     10  C   UNL     1      -0.363   1.066  -1.188  0.00  0.00    +0.008 A 
ATOM     11  C   UNL     1      -2.463   1.075   0.072  0.00  0.00    +0.008 A 
ATOM     12  C   UNL     1      -3.470   1.774   0.668  0.00  0.00    +0.002 A 
ATOM     13  C   UNL     1      -3.481   3.165   0.660  0.00  0.00    +0.024 A 
ATOM     14  C   UNL     1      -2.466   3.875   0.054  0.00  0.00    +0.042 A 
ENDBRANCH   1  14
BRANCH   2  15
ATOM     15  C   UNL     1      -3.679   7.411  -0.143  0.00  0.00    +0.318 C 
ATOM     16  O   UNL     1      -2.635   8.032  -0.149  0.00  0.00    -0.263 OA
ATOM     17  N   UNL     1      -4.853   8.067  -0.231  0.00  0.00    -0.199 N 
ATOM     18  H   UNL     1      -5.687   7.571  -0.227  0.00  0.00    +0.178 HD
BRANCH  17  19
ATOM     19  N   UNL     1      -4.869   9.464  -0.330  0.00  0.00    -0.187 NA
ATOM     20  C   UNL     1      -6.001  10.096  -0.415  0.00  0.00    +0.139 C 
BRANCH  20  21
ATOM     21  C   UNL     1      -6.018  11.567  -0.519  0.00  0.00    +0.014 A 
ATOM     22  C   UNL     1      -7.234  12.250  -0.611  0.00  0.00    +0.011 A 
ATOM     23  C   UNL     1      -7.243  13.625  -0.708  0.00  0.00    +0.002 A 
ATOM     24  C   UNL     1      -6.052  14.331  -0.715  0.00  0.00    +0.021 A 
ATOM     25  C   UNL     1      -4.843  13.662  -0.624  0.00  0.00    +0.060 A 
ATOM     26  C   UNL     1      -4.818  12.284  -0.521  0.00  0.00    +0.068 A 
ATOM     27 CL   UNL     1      -3.302  11.447  -0.400  0.00  0.00    -0.081 Cl
ATOM     28 CL   UNL     1      -3.355  14.557  -0.633  0.00  0.00    -0.082 Cl
ENDBRANCH  20  21
ENDBRANCH  17  19
ENDBRANCH   2  15
TORSDOF 4
