REMARK  Name = ZINC09232675
REMARK  4 active torsions:
REMARK  status: ('A' for Active; 'I' for Inactive)
REMARK    1  A    between atoms: C_4  and  C_7
REMARK    2  A    between atoms: C_7  and  C_9
REMARK    3  A    between atoms: C_11  and  C_29
REMARK    4  A    between atoms: C_32  and  N_35
REMARK                            x       y       z     vdW  Elec       q    Type
REMARK                         _______ _______ _______ _____ _____    ______ ____
ROOT
ATOM      1  C   UNL     1       2.559   0.437  -1.080  0.00  0.00    +0.069 C 
ATOM      2  C   UNL     1       3.531   1.016  -0.013  0.00  0.00    +0.016 C 
ATOM      3  C   UNL     1       2.745   0.827   1.304  0.00  0.00    -0.047 C 
ATOM      4  C   UNL     1       3.308  -0.404   2.050  0.00  0.00    +0.052 C 
ATOM      5  S   UNL     1       1.744  -1.107   2.737  0.00  0.00    -0.181 S 
ATOM      6  C   UNL     1       0.637  -0.519   1.381  0.00  0.00    -0.005 C 
ATOM      7  C   UNL     1       1.198   0.867  -0.501  0.00  0.00    +0.052 C 
ATOM      8  C   UNL     1       0.080   0.038  -1.062  0.00  0.00    -0.024 A 
ATOM      9  C   UNL     1      -0.202  -1.310  -1.051  0.00  0.00    +0.043 A 
ATOM     10  C   UNL     1      -1.340  -1.787  -1.680  0.00  0.00    +0.124 A 
ATOM     11  C   UNL     1      -2.200  -0.903  -2.310  0.00  0.00    +0.040 A 
ATOM     12  C   UNL     1      -1.921   0.448  -2.323  0.00  0.00    +0.026 A 
ATOM     13  C   UNL     1      -0.775   0.934  -1.697  0.00  0.00    +0.036 A 
ATOM     14  N   UNL     1      -0.286   2.238  -1.576  0.00  0.00    -0.286 N 
ATOM     15  C   UNL     1       0.869   2.284  -0.884  0.00  0.00    +0.212 C 
ATOM     16  O   UNL     1       1.518   3.274  -0.622  0.00  0.00    -0.277 OA
ATOM     17  F   UNL     1      -1.613  -3.110  -1.674  0.00  0.00    -0.205 F 
ATOM     18  H   UNL     1      -0.727   3.018  -1.946  0.00  0.00    +0.155 HD
ATOM     19  N   UNL     1       1.301   0.754   0.942  0.00  0.00    +0.401 N 
ATOM     20  H   UNL     1       0.813   1.542   1.384  0.00  0.00    -0.078 HD
ENDROOT
BRANCH   2  21
ATOM     21  C   UNL     1       4.819   0.234   0.018  0.00  0.00    -0.045 A 
ATOM     22  C   UNL     1       4.920  -0.958  -0.675  0.00  0.00    +0.006 A 
ATOM     23  C   UNL     1       6.103  -1.673  -0.652  0.00  0.00    +0.033 A 
ATOM     24  C   UNL     1       7.181  -1.201   0.073  0.00  0.00    +0.126 A 
ATOM     25  C   UNL     1       7.078  -0.012   0.771  0.00  0.00    +0.033 A 
ATOM     26  C   UNL     1       5.897   0.706   0.743  0.00  0.00    +0.006 A 
BRANCH  24  27
ATOM     27  N   UNL     1       8.446  -1.969   0.103  0.00  0.00    +0.056 N 
ATOM     28  O   UNL     1       9.396  -1.553   0.742  0.00  0.00    -0.126 OA
ATOM     29  O   UNL     1       8.537  -3.017  -0.512  0.00  0.00    -0.126 OA
ENDBRANCH  24  27
ENDBRANCH   2  21
BRANCH   1  30
ATOM     30  C   UNL     1       2.798   1.064  -2.430  0.00  0.00    +0.166 C 
ATOM     31  O   UNL     1       3.295   2.167  -2.506  0.00  0.00    -0.292 OA
BRANCH  30  35
ATOM     32  C   UNL     1       1.735  -1.033  -5.960  0.00  0.00    +0.000 A 
ATOM     33  C   UNL     1       2.174   0.277  -6.044  0.00  0.00    +0.001 A 
ATOM     34  C   UNL     1       2.522   0.965  -4.901  0.00  0.00    +0.011 A 
ATOM     35  C   UNL     1       2.429   0.336  -3.655  0.00  0.00    +0.018 A 
ATOM     36  C   UNL     1       1.989  -0.989  -3.579  0.00  0.00    +0.011 A 
ATOM     37  C   UNL     1       1.640  -1.662  -4.731  0.00  0.00    +0.001 A 
ENDBRANCH  30  35
ENDBRANCH   1  30
TORSDOF 4
