REMARK  Name = ZINC09232582
REMARK  6 active torsions:
REMARK  status: ('A' for Active; 'I' for Inactive)
REMARK    1  A    between atoms: C_1  and  C_2
REMARK    2  A    between atoms: C_2  and  C_3
REMARK    3  A    between atoms: C_2  and  C_4
REMARK    4  A    between atoms: C_2  and  C_5
REMARK    5  A    between atoms: C_5  and  C_7
REMARK    6  A    between atoms: C_9  and  C_33
REMARK                            x       y       z     vdW  Elec       q    Type
REMARK                         _______ _______ _______ _____ _____    ______ ____
ROOT
ATOM      1  C   UNL     1       0.897   1.877   0.122  0.00  0.00    +0.150 C 
ATOM      2  C   UNL     1       1.185   2.321   1.584  0.00  0.00    +0.073 C 
ATOM      3  C   UNL     1       2.703   2.110   1.763  0.00  0.00    +0.127 C 
ATOM      4  C   UNL     1       3.195   1.625   0.408  0.00  0.00    +0.119 C 
ATOM      5  N   UNL     1       2.001   0.957  -0.180  0.00  0.00    -0.311 N 
ATOM      6  C   UNL     1       2.258   0.642  -1.493  0.00  0.00    +0.038 A 
ATOM      7  C   UNL     1       1.354   0.839  -2.519  0.00  0.00    +0.024 A 
ATOM      8  C   UNL     1       1.699   0.501  -3.815  0.00  0.00    +0.002 A 
ATOM      9  C   UNL     1       2.945  -0.035  -4.094  0.00  0.00    +0.001 A 
ATOM     10  C   UNL     1       3.860  -0.243  -3.081  0.00  0.00    +0.010 A 
ATOM     11  C   UNL     1       3.527   0.089  -1.774  0.00  0.00    -0.004 A 
ATOM     12  C   UNL     1       4.470  -0.130  -0.652  0.00  0.00    +0.007 C 
ATOM     13  C   UNL     1       4.316   0.633   0.446  0.00  0.00    -0.003 C 
ATOM     14  C   UNL     1       2.978   1.109   2.854  0.00  0.00    +0.180 C 
ATOM     15  O   UNL     1       2.603  -0.043   2.888  0.00  0.00    -0.291 OA
ATOM     16  C   UNL     1       3.784   1.796   3.865  0.00  0.00    +0.029 A 
ATOM     17  C   UNL     1       4.299   1.305   5.069  0.00  0.00    +0.012 A 
ATOM     18  C   UNL     1       5.039   2.187   5.846  0.00  0.00    +0.001 A 
ATOM     19  C   UNL     1       5.264   3.493   5.459  0.00  0.00    +0.001 A 
ATOM     20  C   UNL     1       4.764   4.006   4.269  0.00  0.00    +0.012 A 
ATOM     21  C   UNL     1       4.016   3.138   3.467  0.00  0.00    +0.029 A 
ATOM     22  C   UNL     1       3.372   3.394   2.177  0.00  0.00    +0.180 C 
ATOM     23  O   UNL     1       3.377   4.438   1.561  0.00  0.00    -0.291 OA
ENDROOT
BRANCH   2  24
ATOM     24  C   UNL     1       0.830   3.773   1.772  0.00  0.00    -0.005 A 
ATOM     25  C   UNL     1       0.176   4.182   2.920  0.00  0.00    +0.007 A 
ATOM     26  C   UNL     1      -0.145   5.515   3.095  0.00  0.00    +0.000 A 
ATOM     27  C   UNL     1       0.178   6.439   2.118  0.00  0.00    +0.003 A 
ATOM     28  C   UNL     1       0.826   6.032   0.968  0.00  0.00    +0.038 A 
ATOM     29  C   UNL     1       1.153   4.697   0.794  0.00  0.00    +0.127 A 
ATOM     30  F   UNL     1       1.786   4.298  -0.331  0.00  0.00    -0.205 F 
ENDBRANCH   2  24
BRANCH   1  31
ATOM     31  C   UNL     1      -0.427   1.163   0.034  0.00  0.00    +0.159 C 
ATOM     32  O   UNL     1      -0.486  -0.027   0.230  0.00  0.00    -0.295 OA
BRANCH  31  34
ATOM     33  C   UNL     1      -2.881   0.990  -0.282  0.00  0.00    +0.018 C 
ATOM     34  C   UNL     1      -1.677   1.934  -0.304  0.00  0.00    +0.022 C 
ATOM     35  C   UNL     1      -1.884   3.048   0.725  0.00  0.00    +0.018 C 
ATOM     36  C   UNL     1      -1.536   2.548  -1.699  0.00  0.00    +0.018 C 
ENDBRANCH  31  34
ENDBRANCH   1  31
TORSDOF 3
