REMARK  Name = ZINC13203826
REMARK  11 active torsions:
REMARK  status: ('A' for Active; 'I' for Inactive)
REMARK    1  A    between atoms: C_1  and  C_2
REMARK    2  A    between atoms: C_2  and  C_3
REMARK    3  A    between atoms: C_3  and  C_5
REMARK    4  A    between atoms: C_3  and  N_6
REMARK    5  A    between atoms: N_6  and  C_7
REMARK    6  A    between atoms: C_15  and  C_17
REMARK    7  A    between atoms: C_17  and  S_18
REMARK    8  A    between atoms: S_18  and  C_19
REMARK    9  A    between atoms: C_22  and  C_27
REMARK   10  A    between atoms: N_23  and  C_24
REMARK   11  A    between atoms: C_24  and  C_25
REMARK                            x       y       z     vdW  Elec       q    Type
REMARK                         _______ _______ _______ _____ _____    ______ ____
ROOT
ATOM      1  C   UNL     1       3.217   3.284  -0.285  0.00  0.00    +0.173 C 
ENDROOT
BRANCH   1   3
ATOM      2  N   UNL     1       1.386   1.633  -0.088  0.00  0.00    -0.293 N 
ATOM      3  C   UNL     1       1.762   2.926  -0.126  0.00  0.00    +0.226 C 
ATOM      4  O   UNL     1       0.929   3.803  -0.032  0.00  0.00    -0.275 OA
BRANCH   2   5
ATOM      5  C   UNL     1      -0.037   1.284  -0.048  0.00  0.00    +0.099 C 
ATOM      6  C   UNL     1      -0.729   1.819  -1.312  0.00  0.00    +0.046 C 
ATOM      7  C   UNL     1      -2.267   1.719  -1.101  0.00  0.00    +0.168 C 
ATOM      8  S   UNL     1      -2.402   2.253   0.657  0.00  0.00    -0.029 S 
ATOM      9  O   UNL     1      -2.630   3.655   0.698  0.00  0.00    -0.174 OA
ATOM     10  O   UNL     1      -3.292   1.379   1.339  0.00  0.00    -0.174 OA
ATOM     11  C   UNL     1      -0.684   1.910   1.211  0.00  0.00    +0.188 C 
ENDBRANCH   2   5
BRANCH   2  12
ATOM     12  C   UNL     1       2.399   0.575  -0.087  0.00  0.00    +0.073 C 
ATOM     13  C   UNL     1       2.268  -0.256   1.191  0.00  0.00    +0.028 C 
BRANCH  12  15
ATOM     14  C   UNL     1       2.463   0.471  -2.583  0.00  0.00    +0.005 C 
ATOM     15  C   UNL     1       2.195  -0.328  -1.306  0.00  0.00    +0.019 C 
ENDBRANCH  12  15
ENDBRANCH   2  12
ENDBRANCH   1   3
BRANCH   1  16
ATOM     16  S   UNL     1       3.411   5.080  -0.188  0.00  0.00    -0.077 S 
BRANCH  16  17
ATOM     17  C   UNL     1       5.156   5.212  -0.398  0.00  0.00    +0.193 A 
ATOM     18  N   UNL     1       5.997   4.217  -0.565  0.00  0.00    -0.122 NA
ATOM     19  N   UNL     1       7.195   4.666  -0.690  0.00  0.00    -0.128 NA
ATOM     20  C   UNL     1       7.193   5.978  -0.602  0.00  0.00    +0.172 A 
ATOM     21  N   UNL     1       5.886   6.367  -0.412  0.00  0.00    -0.291 N 
BRANCH  20  22
ATOM     22  C   UNL     1       8.367   6.862  -0.689  0.00  0.00    +0.056 A 
ATOM     23  C   UNL     1       9.698   6.544  -0.593  0.00  0.00    +0.019 A 
ATOM     24  C   UNL     1      10.628   7.552  -0.713  0.00  0.00    +0.008 A 
ATOM     25  C   UNL     1      10.202   8.827  -0.909  0.00  0.00    +0.046 A 
ATOM     26  S   UNL     1       8.428   8.629  -0.940  0.00  0.00    -0.094 S 
ENDBRANCH  20  22
BRANCH  21  27
ATOM     27  C   UNL     1       5.383   7.735  -0.258  0.00  0.00    +0.250 C 
BRANCH  27  28
ATOM     28  C   UNL     1       5.387   8.110   1.202  0.00  0.00    +0.375 C 
ATOM     29  O   UNL     1       5.771   7.316   2.028  0.00  0.00    -0.244 OA
ATOM     30  O   UNL     1       4.964   9.325   1.584  0.00  0.00    -0.244 OA
ENDBRANCH  27  28
ENDBRANCH  21  27
ENDBRANCH  16  17
ENDBRANCH   1  16
TORSDOF 9
