REMARK  Name = ZINC32104491
REMARK  3 active torsions:
REMARK  status: ('A' for Active; 'I' for Inactive)
REMARK    1  A    between atoms: C_5  and  C_7
REMARK    2  A    between atoms: C_7  and  N_8
REMARK    3  A    between atoms: C_15  and  O_17
REMARK                            x       y       z     vdW  Elec       q    Type
REMARK                         _______ _______ _______ _____ _____    ______ ____
ROOT
ATOM      1  N   UNL     1       1.369  -2.680   1.350  0.00  0.00    -0.242 N 
ATOM      2  C   UNL     1       2.531  -2.929   1.991  0.00  0.00    +0.159 A 
ATOM      3  C   UNL     1       2.206  -3.390   3.262  0.00  0.00    +0.036 A 
ATOM      4  C   UNL     1       0.829  -3.404   3.368  0.00  0.00    +0.141 A 
ATOM      5  N   UNL     1       0.320  -2.975   2.236  0.00  0.00    -0.177 NA
ATOM      6  C   UNL     1       3.274  -3.777   4.246  0.00  0.00    +0.112 C 
ATOM      7  C   UNL     1       4.532  -2.964   3.950  0.00  0.00    +0.121 C 
ATOM      8  C   UNL     1       4.779  -2.856   2.472  0.00  0.00    +0.191 C 
ATOM      9  N   UNL     1       3.829  -2.818   1.587  0.00  0.00    -0.198 NA
ATOM     10  C   UNL     1       3.553  -5.245   4.199  0.00  0.00    -0.005 A 
ATOM     11  C   UNL     1       4.005  -6.058   3.183  0.00  0.00    +0.026 A 
ATOM     12  C   UNL     1       4.160  -7.410   3.477  0.00  0.00    +0.041 A 
ATOM     13  C   UNL     1       3.873  -7.909   4.732  0.00  0.00    +0.022 A 
ATOM     14  C   UNL     1       3.418  -7.096   5.759  0.00  0.00    +0.025 A 
ATOM     15  C   UNL     1       3.259  -5.739   5.476  0.00  0.00    +0.038 A 
ATOM     16  N   UNL     1       2.828  -4.714   6.301  0.00  0.00    -0.284 N 
ATOM     17  C   UNL     1       2.805  -3.525   5.662  0.00  0.00    +0.233 C 
ATOM     18  O   UNL     1       2.473  -2.458   6.133  0.00  0.00    -0.274 OA
ATOM     19 CL   UNL     1       4.725  -8.490   2.241  0.00  0.00    -0.084 Cl
ATOM     20  H   UNL     1       2.571  -4.836   7.229  0.00  0.00    +0.155 HD
ENDROOT
BRANCH   8  21
ATOM     21  O   UNL     1       6.056  -2.794   2.041  0.00  0.00    -0.495 OA
ATOM     22  H   UNL     1       6.144  -2.725   1.080  0.00  0.00    +0.293 HD
ENDBRANCH   8  21
BRANCH   1  23
ATOM     23  C   UNL     1       1.229  -2.186  -0.022  0.00  0.00    +0.182 C 
BRANCH  23  28
ATOM     24  C   UNL     1      -0.017   1.378   0.010  0.00  0.00    +0.000 A 
ATOM     25  C   UNL     1       1.171   2.086   0.002  0.00  0.00    +0.001 A 
ATOM     26  C   UNL     1       2.377   1.412  -0.013  0.00  0.00    +0.020 A 
ATOM     27  C   UNL     1       2.397   0.029  -0.021  0.00  0.00    +0.046 A 
ATOM     28  C   UNL     1       1.208  -0.679  -0.013  0.00  0.00    -0.008 A 
ATOM     29  C   UNL     1       0.002  -0.004   0.002  0.00  0.00    +0.007 A 
ATOM     30 CL   UNL     1       3.912  -0.818  -0.041  0.00  0.00    -0.083 Cl
ENDBRANCH  23  28
ENDBRANCH   1  23
TORSDOF 3
