REMARK  Name = ZINC36412982
REMARK  9 active torsions:
REMARK  status: ('A' for Active; 'I' for Inactive)
REMARK    1  A    between atoms: C_1  and  C_2
REMARK    2  A    between atoms: C_14  and  C_16
REMARK    3  A    between atoms: C_16  and  N_17
REMARK    4  A    between atoms: N_17  and  C_18
REMARK    5  A    between atoms: N_17  and  C_19
REMARK    6  A    between atoms: C_19  and  C_20
REMARK    7  A    between atoms: C_19  and  C_21
REMARK    8  A    between atoms: N_23  and  C_24
REMARK    9  A    between atoms: C_29  and  C_30
REMARK                            x       y       z     vdW  Elec       q    Type
REMARK                         _______ _______ _______ _____ _____    ______ ____
ROOT
ATOM      1  N   UNL     1      -0.192  -1.873   4.479  0.00  0.00    +0.391 N 
ATOM      2  C   UNL     1      -0.975  -0.731   4.969  0.00  0.00    -0.094 C 
ATOM      3  H   UNL     1      -0.812  -2.553   4.065  0.00  0.00    -0.080 HD
ENDROOT
BRANCH   1   4
ATOM      4  C   UNL     1       0.531  -2.488   5.601  0.00  0.00    +0.017 C 
ATOM      5  C   UNL     1       1.449  -3.592   5.072  0.00  0.00    -0.004 C 
BRANCH   4   6
ATOM      6  C   UNL     1      -0.458  -3.079   6.572  0.00  0.00    +0.203 C 
ATOM      7  O   UNL     1      -1.640  -3.093   6.301  0.00  0.00    -0.277 OA
ATOM      8  N   UNL     1      -0.029  -3.593   7.742  0.00  0.00    -0.286 N 
ATOM      9  H   UNL     1       0.922  -3.660   7.922  0.00  0.00    +0.155 HD
BRANCH   8  10
ATOM     10  C   UNL     1      -0.955  -4.030   8.696  0.00  0.00    +0.045 A 
ATOM     11  C   UNL     1      -2.240  -3.504   8.710  0.00  0.00    +0.025 A 
ATOM     12  C   UNL     1      -3.152  -3.937   9.652  0.00  0.00    +0.022 A 
ATOM     13  C   UNL     1      -2.786  -4.894  10.582  0.00  0.00    +0.042 A 
ATOM     14  C   UNL     1      -1.506  -5.420  10.571  0.00  0.00    +0.034 A 
ATOM     15  C   UNL     1      -0.592  -4.995   9.626  0.00  0.00    +0.077 A 
ATOM     16 CL   UNL     1      -3.934  -5.435  11.767  0.00  0.00    -0.084 Cl
BRANCH  15  17
ATOM     17  C   UNL     1       0.800  -5.572   9.610  0.00  0.00    +0.419 C 
ATOM     18  F   UNL     1       0.925  -6.517  10.635  0.00  0.00    -0.166 F 
ATOM     19  F   UNL     1       1.035  -6.188   8.377  0.00  0.00    -0.166 F 
ATOM     20  F   UNL     1       1.732  -4.547   9.805  0.00  0.00    -0.166 F 
ENDBRANCH  15  17
ENDBRANCH   8  10
ENDBRANCH   4   6
ENDBRANCH   1   4
BRANCH   1  21
ATOM     21  C   UNL     1       0.771  -1.410   3.471  0.00  0.00    +0.020 C 
BRANCH  21  35
ATOM     22  C   UNL     1       0.003   1.626   0.059  0.00  0.00    +0.029 C 
ATOM     23  C   UNL     1       0.001   0.097   0.033  0.00  0.00    +0.087 C 
ATOM     24  C   UNL     1       0.693  -0.391  -1.241  0.00  0.00    +0.118 C 
ATOM     25  C   UNL     1       1.056  -1.847  -1.109  0.00  0.00    +0.219 C 
ATOM     26  O   UNL     1       0.399  -2.686  -1.689  0.00  0.00    -0.275 OA
ATOM     27  N   UNL     1       2.107  -2.224  -0.350  0.00  0.00    -0.284 N 
ATOM     28  C   UNL     1       2.815  -1.278   0.401  0.00  0.00    +0.055 A 
ATOM     29  C   UNL     1       4.198  -1.220   0.349  0.00  0.00    +0.025 A 
ATOM     30  C   UNL     1       4.877  -0.293   1.118  0.00  0.00    +0.002 A 
ATOM     31  C   UNL     1       4.181   0.575   1.939  0.00  0.00    +0.002 A 
ATOM     32  C   UNL     1       2.800   0.529   1.990  0.00  0.00    +0.025 A 
ATOM     33  C   UNL     1       2.111  -0.389   1.214  0.00  0.00    +0.058 A 
ATOM     34  N   UNL     1       0.710  -0.411   1.209  0.00  0.00    -0.268 N 
ATOM     35  C   UNL     1       0.027  -0.891   2.267  0.00  0.00    +0.204 C 
ATOM     36  O   UNL     1      -1.185  -0.905   2.251  0.00  0.00    -0.277 OA
ATOM     37  H   UNL     1       2.373  -3.156  -0.325  0.00  0.00    +0.155 HD
ENDBRANCH  21  35
ENDBRANCH   1  21
TORSDOF 6
