REMARK  Name = ZINC00843543
REMARK  6 active torsions:
REMARK  status: ('A' for Active; 'I' for Inactive)
REMARK    1  A    between atoms: C_1  and  O_2
REMARK    2  A    between atoms: O_2  and  C_3
REMARK    3  A    between atoms: C_6  and  C_11
REMARK    4  A    between atoms: C_8  and  O_9
REMARK    5  A    between atoms: O_9  and  C_10
REMARK    6  A    between atoms: C_28  and  C_30
REMARK                            x       y       z     vdW  Elec       q    Type
REMARK                         _______ _______ _______ _____ _____    ______ ____
ROOT
ATOM      1  C   UNL     1       2.507  -2.501  -4.386  0.00  0.00    +0.234 C 
ATOM      2  C   UNL     1       1.565  -2.514  -5.554  0.00  0.00    +0.028 C 
ATOM      3  C   UNL     1       1.546  -1.492  -6.434  0.00  0.00    +0.083 C 
ATOM      4  C   UNL     1       2.494  -0.373  -6.205  0.00  0.00    +0.042 A 
ATOM      5  C   UNL     1       2.340   0.851  -6.841  0.00  0.00    +0.013 A 
ATOM      6  C   UNL     1       3.246   1.866  -6.596  0.00  0.00    +0.001 A 
ATOM      7  C   UNL     1       4.301   1.663  -5.723  0.00  0.00    +0.004 A 
ATOM      8  C   UNL     1       4.461   0.446  -5.087  0.00  0.00    +0.046 A 
ATOM      9  C   UNL     1       3.562  -0.579  -5.323  0.00  0.00    +0.131 A 
ATOM     10  O   UNL     1       3.698  -1.784  -4.720  0.00  0.00    -0.479 OA
ATOM     11  N   UNL     1       0.694  -1.486  -7.489  0.00  0.00    -0.216 NA
ATOM     12  C   UNL     1      -0.161  -2.450  -7.753  0.00  0.00    +0.209 C 
ATOM     13  N   UNL     1      -1.077  -2.611  -8.758  0.00  0.00    -0.275 N 
ATOM     14  C   UNL     1      -1.717  -3.811  -8.567  0.00  0.00    +0.208 C 
ATOM     15  N   UNL     1      -1.245  -4.383  -7.506  0.00  0.00    -0.169 NA
ATOM     16  N   UNL     1      -0.261  -3.557  -6.961  0.00  0.00    -0.182 N 
ATOM     17  C   UNL     1       0.611  -3.666  -5.782  0.00  0.00    +0.163 C 
ATOM     18  H   UNL     1      -1.245  -1.985  -9.481  0.00  0.00    +0.156 HD
ENDROOT
BRANCH  17  19
ATOM     19  C   UNL     1       1.422  -4.929  -5.913  0.00  0.00    -0.021 A 
ATOM     20  C   UNL     1       2.049  -5.227  -7.109  0.00  0.00    +0.007 A 
ATOM     21  C   UNL     1       2.794  -6.385  -7.229  0.00  0.00    +0.015 A 
ATOM     22  C   UNL     1       2.912  -7.246  -6.152  0.00  0.00    +0.018 A 
ATOM     23  C   UNL     1       2.284  -6.948  -4.957  0.00  0.00    +0.015 A 
ATOM     24  C   UNL     1       1.544  -5.787  -4.836  0.00  0.00    +0.007 A 
ATOM     25 BR   UNL     1       3.930  -8.831  -6.316  0.00  0.00    -0.050 Br
ENDBRANCH  17  19
BRANCH   1  29
ATOM     26  C   UNL     1       0.606  -0.608  -1.056  0.00  0.00    +0.162 A 
ATOM     27  C   UNL     1       1.173   0.159  -2.062  0.00  0.00    +0.050 A 
ATOM     28  C   UNL     1       1.787  -0.456  -3.137  0.00  0.00    +0.011 A 
ATOM     29  C   UNL     1       1.837  -1.836  -3.212  0.00  0.00    +0.001 A 
ATOM     30  C   UNL     1       1.273  -2.606  -2.212  0.00  0.00    +0.057 A 
ATOM     31  C   UNL     1       0.662  -1.996  -1.129  0.00  0.00    +0.162 A 
BRANCH  26  33
ATOM     32  C   UNL     1      -0.017   1.425   0.010  0.00  0.00    +0.277 C 
ATOM     33  O   UNL     1       0.002  -0.004   0.002  0.00  0.00    -0.491 OA
ENDBRANCH  26  33
BRANCH  31  34
ATOM     34  O   UNL     1       0.112  -2.753  -0.142  0.00  0.00    -0.491 OA
ATOM     35  C   UNL     1       0.206  -4.171  -0.283  0.00  0.00    +0.277 C 
ENDBRANCH  31  34
ENDBRANCH   1  29
TORSDOF 4
