REMARK  Name = ZINC20258489
REMARK  7 active torsions:
REMARK  status: ('A' for Active; 'I' for Inactive)
REMARK    1  A    between atoms: C_1  and  O_2
REMARK    2  A    between atoms: O_2  and  C_3
REMARK    3  A    between atoms: C_6  and  C_27
REMARK    4  A    between atoms: C_8  and  C_9
REMARK    5  A    between atoms: C_9  and  N_10
REMARK    6  A    between atoms: N_28  and  N_29
REMARK    7  A    between atoms: C_30  and  C_32
REMARK                            x       y       z     vdW  Elec       q    Type
REMARK                         _______ _______ _______ _____ _____    ______ ____
ROOT
ATOM      1  C   UNL     1       4.858   2.702  -0.971  0.00  0.00    +0.121 A 
ATOM      2  C   UNL     1       5.943   2.671  -0.105  0.00  0.00    +0.046 A 
ATOM      3  C   UNL     1       5.877   3.319   1.110  0.00  0.00    +0.013 A 
ATOM      4  C   UNL     1       4.717   4.012   1.468  0.00  0.00    -0.005 A 
ATOM      5  C   UNL     1       3.630   4.044   0.591  0.00  0.00    +0.014 A 
ATOM      6  C   UNL     1       3.705   3.394  -0.622  0.00  0.00    -0.022 A 
ENDROOT
BRANCH   1   8
ATOM      7  C   UNL     1       6.140   1.366  -2.461  0.00  0.00    +0.277 C 
ATOM      8  O   UNL     1       4.926   2.058  -2.165  0.00  0.00    -0.495 OA
ENDBRANCH   1   8
BRANCH   4   9
ATOM      9  C   UNL     1       4.641   4.705   2.766  0.00  0.00    +0.138 C 
ATOM     10  N   UNL     1       5.652   4.674   3.579  0.00  0.00    -0.187 NA
BRANCH  10  11
ATOM     11  N   UNL     1       5.580   5.333   4.813  0.00  0.00    -0.200 N 
ATOM     12  C   UNL     1       6.630   5.300   5.657  0.00  0.00    +0.336 C 
ATOM     13  O   UNL     1       7.638   4.700   5.348  0.00  0.00    -0.264 OA
ATOM     14  H   UNL     1       4.666   5.878   5.093  0.00  0.00    +0.178 HD
BRANCH  12  15
ATOM     15  C   UNL     1       6.553   6.009   6.984  0.00  0.00    +0.471 C 
ATOM     16  F   UNL     1       7.755   5.833   7.678  0.00  0.00    -0.162 F 
ATOM     17  F   UNL     1       6.333   7.374   6.772  0.00  0.00    -0.162 F 
ATOM     18  F   UNL     1       5.498   5.479   7.736  0.00  0.00    -0.162 F 
ENDBRANCH  12  15
ENDBRANCH  10  11
ENDBRANCH   4   9
BRANCH   6  19
ATOM     19  C   UNL     1       2.533   3.428  -1.568  0.00  0.00    -0.039 C 
BRANCH  19  20
ATOM     20  N   UNL     1       1.728   2.202  -1.399  0.00  0.00    +0.383 N 
ATOM     21  C   UNL     1       2.425   1.085  -1.979  0.00  0.00    -0.073 C 
ATOM     22  C   UNL     1       1.506  -0.140  -2.094  0.00  0.00    -0.008 C 
ATOM     23  C   UNL     1       1.273  -0.711  -0.708  0.00  0.00    +0.004 C 
ATOM     24  C   UNL     1       0.043  -0.071  -0.083  0.00  0.00    +0.008 C 
ATOM     25  C   UNL     1      -0.009   1.387  -0.064  0.00  0.00    +0.019 C 
ATOM     26  C   UNL     1       1.319   2.065  -0.038  0.00  0.00    -0.069 C 
ATOM     27  C   UNL     1      -0.383   2.030  -1.408  0.00  0.00    +0.023 A 
ATOM     28  C   UNL     1      -0.817   3.323  -1.319  0.00  0.00    +0.022 A 
ATOM     29  C   UNL     1      -1.192   4.034  -2.462  0.00  0.00    +0.007 A 
ATOM     30  C   UNL     1      -1.131   3.428  -3.683  0.00  0.00    +0.070 A 
ATOM     31  C   UNL     1      -0.691   2.094  -3.751  0.00  0.00    +0.251 A 
ATOM     32  O   UNL     1      -0.629   1.525  -4.830  0.00  0.00    -0.268 OA
ATOM     33  N   UNL     1      -0.339   1.445  -2.628  0.00  0.00    -0.312 N 
ATOM     34  C   UNL     1       0.111   0.053  -2.687  0.00  0.00    +0.126 C 
ATOM     35  H   UNL     1       0.769   2.227  -1.937  0.00  0.00    -0.081 HD
ENDBRANCH  19  20
ENDBRANCH   6  19
TORSDOF 6
