REMARK  Name = ZINC38650081
REMARK  14 active torsions:
REMARK  status: ('A' for Active; 'I' for Inactive)
REMARK    1  A    between atoms: C_1  and  C_2
REMARK    2  A    between atoms: C_2  and  C_4
REMARK    3  A    between atoms: C_2  and  O_29
REMARK    4  A    between atoms: C_4  and  O_6
REMARK    5  A    between atoms: O_6  and  C_7
REMARK    6  A    between atoms: C_14  and  N_28
REMARK    7  A    between atoms: C_15  and  C_26
REMARK    8  A    between atoms: C_16  and  C_18
REMARK    9  A    between atoms: C_23  and  O_24
REMARK   10  A    between atoms: O_24  and  C_25
REMARK   11  A    between atoms: O_29  and  C_30
REMARK   12  A    between atoms: C_33  and  C_36
REMARK   13  A    between atoms: C_36  and  C_37
REMARK   14  A    between atoms: C_36  and  C_38
REMARK                            x       y       z     vdW  Elec       q    Type
REMARK                         _______ _______ _______ _____ _____    ______ ____
ROOT
ATOM      1  C   UNL     1      -3.663  -0.572   0.867  0.00  0.00    +0.135 A 
ATOM      2  C   UNL     1      -4.013  -1.396  -0.194  0.00  0.00    +0.047 A 
ATOM      3  C   UNL     1      -5.303  -1.879  -0.296  0.00  0.00    +0.012 A 
ATOM      4  C   UNL     1      -6.250  -1.544   0.655  0.00  0.00    +0.008 A 
ATOM      5  C   UNL     1      -5.906  -0.721   1.716  0.00  0.00    +0.138 A 
ATOM      6  C   UNL     1      -4.607  -0.239   1.824  0.00  0.00    +0.093 A 
ATOM      7  O   UNL     1      -6.820  -0.382   2.658  0.00  0.00    -0.441 OA
ATOM      8  C   UNL     1      -8.132  -0.503   2.394  0.00  0.00    +0.199 C 
ATOM      9  C   UNL     1      -8.591  -1.294   1.395  0.00  0.00    +0.098 C 
ATOM     10  C   UNL     1      -7.651  -2.080   0.525  0.00  0.00    +0.101 C 
ENDROOT
BRANCH  10  11
ATOM     11  C   UNL     1      -7.673  -3.527   0.948  0.00  0.00    +0.007 A 
ATOM     12  C   UNL     1      -7.301  -3.877   2.232  0.00  0.00    +0.008 A 
ATOM     13  C   UNL     1      -7.321  -5.204   2.620  0.00  0.00    +0.001 A 
ATOM     14  C   UNL     1      -7.711  -6.183   1.726  0.00  0.00    +0.004 A 
ATOM     15  C   UNL     1      -8.084  -5.838   0.441  0.00  0.00    +0.046 A 
ATOM     16  C   UNL     1      -8.070  -4.506   0.051  0.00  0.00    +0.124 A 
BRANCH  16  17
ATOM     17  O   UNL     1      -8.441  -4.163  -1.211  0.00  0.00    -0.495 OA
ATOM     18  C   UNL     1      -8.839  -5.225  -2.081  0.00  0.00    +0.277 C 
ENDBRANCH  16  17
ENDBRANCH  10  11
BRANCH   8  19
ATOM     19  N   UNL     1      -9.033   0.194   3.159  0.00  0.00    -0.328 N 
ATOM     20  H   UNL     1      -8.720   0.764   3.879  0.00  0.00    +0.145 HD
ATOM     21  H   UNL     1      -9.983   0.116   2.981  0.00  0.00    +0.145 HD
ENDBRANCH   8  19
BRANCH   9  22
ATOM     22  C   UNL     1     -10.001  -1.381   1.162  0.00  0.00    +0.101 C 
ATOM     23  N   UNL     1     -11.120  -1.451   0.977  0.00  0.00    -0.191 NA
ENDBRANCH   9  22
BRANCH   1  24
ATOM     24  O   UNL     1      -2.394  -0.096   0.969  0.00  0.00    -0.423 OA
BRANCH  24  25
ATOM     25  C   UNL     1      -2.027   0.902   0.149  0.00  0.00    +0.353 C 
ATOM     26  O   UNL     1      -2.841   1.412  -0.584  0.00  0.00    -0.246 OA
BRANCH  25  28
ATOM     27  C   UNL     1      -0.267   2.011   1.499  0.00  0.00    +0.064 C 
ATOM     28  C   UNL     1      -0.600   1.386   0.142  0.00  0.00    +0.279 C 
BRANCH  28  29
ATOM     29  O   UNL     1      -0.433   2.364  -0.886  0.00  0.00    -0.478 OA
BRANCH  29  30
ATOM     30  C   UNL     1       0.820   2.526  -1.386  0.00  0.00    +0.122 A 
ATOM     31  C   UNL     1       1.887   1.838  -0.825  0.00  0.00    +0.046 A 
ATOM     32  C   UNL     1       3.159   2.004  -1.335  0.00  0.00    +0.007 A 
ATOM     33  C   UNL     1       3.372   2.854  -2.404  0.00  0.00    -0.045 A 
ATOM     34  C   UNL     1       2.311   3.541  -2.966  0.00  0.00    +0.007 A 
ATOM     35  C   UNL     1       1.035   3.374  -2.463  0.00  0.00    +0.046 A 
BRANCH  33  36
ATOM     36  C   UNL     1       4.761   3.034  -2.959  0.00  0.00    +0.013 C 
ATOM     37  C   UNL     1       4.783   2.610  -4.429  0.00  0.00    +0.012 C 
ATOM     38  C   UNL     1       5.170   4.504  -2.846  0.00  0.00    +0.012 C 
ENDBRANCH  33  36
ENDBRANCH  29  30
ENDBRANCH  28  29
ENDBRANCH  25  28
ENDBRANCH  24  25
ENDBRANCH   1  24
TORSDOF 10
