REMARK  Name = ZINC36068388
REMARK  11 active torsions:
REMARK  status: ('A' for Active; 'I' for Inactive)
REMARK    1  A    between atoms: C_1  and  C_2
REMARK    2  A    between atoms: C_5  and  C_9
REMARK    3  A    between atoms: C_6  and  C_8
REMARK    4  A    between atoms: C_9  and  N_10
REMARK    5  A    between atoms: N_10  and  C_11
REMARK    6  A    between atoms: N_10  and  C_21
REMARK    7  A    between atoms: C_11  and  C_12
REMARK    8  A    between atoms: C_21  and  C_22
REMARK    9  A    between atoms: C_24  and  C_27
REMARK   10  A    between atoms: N_29  and  C_30
REMARK   11  A    between atoms: C_30  and  C_31
REMARK                            x       y       z     vdW  Elec       q    Type
REMARK                         _______ _______ _______ _____ _____    ______ ____
ROOT
ATOM      1  N   UNL     1      -1.373  -4.542   0.306  0.00  0.00    +0.391 N 
ATOM      2  H   UNL     1      -1.867  -4.029   1.021  0.00  0.00    -0.080 HD
ENDROOT
BRANCH   1   3
ATOM      3  C   UNL     1      -0.055  -3.930   0.088  0.00  0.00    -0.042 C 
BRANCH   3   8
ATOM      4  C   UNL     1      -0.715   1.679  -1.133  0.00  0.00    +0.044 C 
ATOM      5  C   UNL     1      -0.543   0.216  -0.815  0.00  0.00    -0.050 A 
ATOM      6  C   UNL     1      -0.282  -0.686  -1.829  0.00  0.00    +0.003 A 
ATOM      7  C   UNL     1      -0.124  -2.027  -1.537  0.00  0.00    +0.002 A 
ATOM      8  C   UNL     1      -0.226  -2.467  -0.231  0.00  0.00    -0.061 A 
ATOM      9  C   UNL     1      -0.485  -1.565   0.784  0.00  0.00    -0.049 A 
ATOM     10  C   UNL     1      -0.639  -0.223   0.492  0.00  0.00    +0.007 A 
ATOM     11  C   UNL     1      -0.597  -2.045   2.208  0.00  0.00    +0.044 C 
ENDBRANCH   3   8
ENDBRANCH   1   3
BRANCH   1  12
ATOM     12  C   UNL     1      -2.143  -4.505  -0.944  0.00  0.00    -0.042 C 
BRANCH  12  13
ATOM     13  C   UNL     1      -3.534  -5.027  -0.692  0.00  0.00    -0.060 A 
ATOM     14  C   UNL     1      -3.831  -6.352  -0.952  0.00  0.00    +0.005 A 
ATOM     15  C   UNL     1      -5.106  -6.835  -0.722  0.00  0.00    +0.050 A 
ATOM     16  C   UNL     1      -6.089  -5.992  -0.231  0.00  0.00    +0.166 A 
ATOM     17  C   UNL     1      -5.790  -4.657   0.030  0.00  0.00    +0.166 A 
ATOM     18  C   UNL     1      -4.509  -4.181  -0.197  0.00  0.00    +0.051 A 
ATOM     19  O   UNL     1      -6.914  -4.042   0.501  0.00  0.00    -0.453 OA
ATOM     20  C   UNL     1      -8.006  -4.908   0.140  0.00  0.00    +0.466 C 
ATOM     21  O   UNL     1      -7.401  -6.213   0.076  0.00  0.00    -0.453 OA
ENDBRANCH  12  13
ENDBRANCH   1  12
BRANCH   1  22
ATOM     22  C   UNL     1      -1.201  -5.936   0.735  0.00  0.00    +0.020 C 
BRANCH  22  23
ATOM     23  C   UNL     1      -0.518  -5.968   2.078  0.00  0.00    +0.179 A 
ATOM     24  N   UNL     1      -1.122  -5.958   3.229  0.00  0.00    -0.210 NA
ATOM     25  C   UNL     1      -0.180  -5.996   4.210  0.00  0.00    +0.163 A 
ATOM     26  C   UNL     1       1.035  -6.030   3.598  0.00  0.00    +0.230 A 
ATOM     27  O   UNL     1       0.807  -6.017   2.275  0.00  0.00    -0.449 OA
BRANCH  25  28
ATOM     28  C   UNL     1      -0.429  -6.000   5.663  0.00  0.00    +0.266 C 
ATOM     29  O   UNL     1       0.506  -6.036   6.440  0.00  0.00    -0.268 OA
ATOM     30  N   UNL     1      -1.692  -5.963   6.131  0.00  0.00    -0.306 N 
ATOM     31  H   UNL     1      -2.438  -5.934   5.511  0.00  0.00    +0.149 HD
BRANCH  30  32
ATOM     32  C   UNL     1      -1.940  -5.966   7.575  0.00  0.00    +0.140 C 
BRANCH  32  33
ATOM     33  C   UNL     1      -3.424  -5.920   7.830  0.00  0.00    -0.030 A 
ATOM     34  C   UNL     1      -4.067  -4.702   7.952  0.00  0.00    +0.005 A 
ATOM     35  C   UNL     1      -5.429  -4.660   8.186  0.00  0.00    +0.000 A 
ATOM     36  C   UNL     1      -6.147  -5.836   8.299  0.00  0.00    +0.000 A 
ATOM     37  C   UNL     1      -5.505  -7.053   8.177  0.00  0.00    +0.000 A 
ATOM     38  C   UNL     1      -4.144  -7.096   7.938  0.00  0.00    +0.005 A 
ENDBRANCH  32  33
ENDBRANCH  30  32
ENDBRANCH  25  28
ENDBRANCH  22  23
ENDBRANCH   1  22
TORSDOF 9
