REMARK  Name = ZINC38672971
REMARK  8 active torsions:
REMARK  status: ('A' for Active; 'I' for Inactive)
REMARK    1  A    between atoms: C_1  and  N_2
REMARK    2  A    between atoms: N_5  and  C_8
REMARK    3  A    between atoms: C_8  and  C_10
REMARK    4  A    between atoms: C_8  and  C_26
REMARK    5  A    between atoms: C_10  and  N_11
REMARK    6  A    between atoms: C_12  and  C_14
REMARK    7  A    between atoms: C_14  and  C_19
REMARK    8  A    between atoms: N_35  and  C_36
REMARK                            x       y       z     vdW  Elec       q    Type
REMARK                         _______ _______ _______ _____ _____    ______ ____
ROOT
ATOM      1  C   UNL     1       1.400  -3.849  -0.001  0.00  0.00    +0.104 C 
ENDROOT
BRANCH   1   2
ATOM      2  C   UNL     1       2.039  -4.245   1.305  0.00  0.00    -0.028 A 
ATOM      3  C   UNL     1       1.685  -3.594   2.473  0.00  0.00    +0.007 A 
ATOM      4  C   UNL     1       2.272  -3.956   3.668  0.00  0.00    +0.024 A 
ATOM      5  C   UNL     1       3.217  -4.975   3.699  0.00  0.00    +0.033 A 
ATOM      6  C   UNL     1       3.570  -5.630   2.530  0.00  0.00    -0.026 A 
ATOM      7  C   UNL     1       2.974  -5.262   1.334  0.00  0.00    +0.010 A 
ATOM      8  C   UNL     1       4.582  -6.745   2.526  0.00  0.00    +0.038 C 
ATOM      9  C   UNL     1       5.464  -6.671   3.772  0.00  0.00    +0.024 C 
ATOM     10  C   UNL     1       4.564  -6.577   5.012  0.00  0.00    +0.105 C 
ATOM     11  N   UNL     1       3.804  -5.323   4.921  0.00  0.00    -0.333 N 
ATOM     12  C   UNL     1       3.662  -4.452   6.090  0.00  0.00    +0.129 C 
ENDBRANCH   1   2
BRANCH   1  17
ATOM     13  C   UNL     1       4.262   0.940  -0.789  0.00  0.00    -0.096 C 
ATOM     14  N   UNL     1       3.758  -0.354  -0.311  0.00  0.00    +0.379 N 
ATOM     15  C   UNL     1       2.358  -0.208   0.111  0.00  0.00    -0.064 C 
ATOM     16  C   UNL     1       1.838  -1.551   0.627  0.00  0.00    +0.066 C 
ATOM     17  N   UNL     1       1.944  -2.557  -0.440  0.00  0.00    -0.297 NA
ATOM     18  C   UNL     1       3.336  -2.696  -0.889  0.00  0.00    +0.066 C 
ATOM     19  C   UNL     1       3.844  -1.343  -1.393  0.00  0.00    -0.064 C 
ATOM     20  H   UNL     1       4.314  -0.663   0.472  0.00  0.00    -0.082 HD
ENDBRANCH   1  17
BRANCH   1  21
ATOM     21  C   UNL     1      -0.113  -3.728   0.188  0.00  0.00    +0.127 C 
BRANCH  21  22
ATOM     22  N   UNL     1      -0.725  -3.256  -1.056  0.00  0.00    -0.313 N 
ATOM     23  C   UNL     1      -2.066  -3.167  -1.157  0.00  0.00    +0.224 C 
ATOM     24  O   UNL     1      -2.763  -3.390  -0.190  0.00  0.00    -0.275 OA
ATOM     25  H   UNL     1      -0.164  -3.007  -1.808  0.00  0.00    +0.149 HD
BRANCH  23  26
ATOM     26  C   UNL     1      -2.699  -2.790  -2.471  0.00  0.00    +0.072 C 
ATOM     27  C   UNL     1      -2.147  -1.438  -2.955  0.00  0.00    +0.021 C 
ATOM     28  C   UNL     1      -3.351  -0.479  -3.051  0.00  0.00    +0.001 C 
ATOM     29  C   UNL     1      -4.395  -1.081  -2.079  0.00  0.00    +0.001 C 
ATOM     30  C   UNL     1      -4.220  -2.606  -2.291  0.00  0.00    +0.021 C 
BRANCH  26  31
ATOM     31  C   UNL     1      -2.427  -3.858  -3.500  0.00  0.00    -0.032 A 
ATOM     32  C   UNL     1      -1.799  -5.031  -3.128  0.00  0.00    +0.006 A 
ATOM     33  C   UNL     1      -1.549  -6.011  -4.071  0.00  0.00    +0.020 A 
ATOM     34  C   UNL     1      -1.928  -5.816  -5.387  0.00  0.00    +0.041 A 
ATOM     35  C   UNL     1      -2.557  -4.641  -5.759  0.00  0.00    +0.020 A 
ATOM     36  C   UNL     1      -2.811  -3.665  -4.814  0.00  0.00    +0.006 A 
ATOM     37 CL   UNL     1      -1.614  -7.045  -6.572  0.00  0.00    -0.084 Cl
ENDBRANCH  26  31
ENDBRANCH  23  26
ENDBRANCH  21  22
ENDBRANCH   1  21
TORSDOF 6
