REMARK  Name = ZINC23129126
REMARK  12 active torsions:
REMARK  status: ('A' for Active; 'I' for Inactive)
REMARK    1  A    between atoms: C_1  and  C_2
REMARK    2  A    between atoms: C_3  and  C_8
REMARK    3  A    between atoms: N_5  and  C_7
REMARK    4  A    between atoms: C_8  and  N_9
REMARK    5  A    between atoms: N_9  and  C_10
REMARK    6  A    between atoms: N_9  and  C_11
REMARK    7  A    between atoms: C_11  and  C_13
REMARK    8  A    between atoms: C_11  and  C_20
REMARK    9  A    between atoms: C_13  and  C_14
REMARK   10  A    between atoms: N_23  and  C_26
REMARK   11  A    between atoms: C_26  and  C_27
REMARK   12  A    between atoms: C_32  and  C_33
REMARK                            x       y       z     vdW  Elec       q    Type
REMARK                         _______ _______ _______ _____ _____    ______ ____
ROOT
ATOM      1  C   UNL     1       4.532   2.876   4.531  0.00  0.00    +0.003 C 
ATOM      2  C   UNL     1       5.542   1.918   3.893  0.00  0.00    -0.014 C 
ATOM      3  C   UNL     1       5.072   1.554   2.483  0.00  0.00    -0.078 C 
ATOM      4  N   UNL     1       3.749   0.920   2.555  0.00  0.00    +0.382 N 
ATOM      5  C   UNL     1       2.752   1.837   3.121  0.00  0.00    -0.078 C 
ATOM      6  C   UNL     1       3.152   2.211   4.550  0.00  0.00    -0.014 C 
ATOM      7  H   UNL     1       3.829   0.054   3.228  0.00  0.00    -0.081 HD
ENDROOT
BRANCH   1   8
ATOM      8  C   UNL     1       4.964   3.196   5.963  0.00  0.00    +0.064 C 
BRANCH   8   9
ATOM      9  N   UNL     1       4.060   4.203   6.534  0.00  0.00    -0.298 NA
ATOM     10  C   UNL     1       3.651   5.180   5.517  0.00  0.00    +0.105 C 
BRANCH   9  11
ATOM     11  C   UNL     1       2.890   3.568   7.155  0.00  0.00    +0.123 C 
BRANCH  11  14
ATOM     12  C   UNL     1       3.184   5.227   9.839  0.00  0.00    +0.068 C 
ATOM     13  C   UNL     1       3.405   3.744   9.687  0.00  0.00    +0.064 A 
ATOM     14  C   UNL     1       3.275   3.013   8.502  0.00  0.00    +0.007 A 
ATOM     15  C   UNL     1       3.550   1.717   8.780  0.00  0.00    +0.113 A 
ATOM     16  N   UNL     1       3.853   1.634  10.093  0.00  0.00    -0.274 N 
ATOM     17  N   UNL     1       3.751   2.919  10.641  0.00  0.00    -0.176 NA
ATOM     18  C   UNL     1       4.216   0.413  10.817  0.00  0.00    +0.172 C 
ENDBRANCH  11  14
ENDBRANCH   9  11
ENDBRANCH   8   9
BRANCH   8  19
ATOM     19  C   UNL     1       6.394   3.741   5.954  0.00  0.00    +0.054 C 
BRANCH  19  20
ATOM     20  C   UNL     1       6.847   3.987   7.370  0.00  0.00    -0.046 A 
ATOM     21  C   UNL     1       6.556   5.189   7.989  0.00  0.00    +0.004 A 
ATOM     22  C   UNL     1       6.967   5.413   9.290  0.00  0.00    +0.000 A 
ATOM     23  C   UNL     1       7.678   4.440   9.968  0.00  0.00    +0.000 A 
ATOM     24  C   UNL     1       7.973   3.241   9.346  0.00  0.00    +0.000 A 
ATOM     25  C   UNL     1       7.558   3.014   8.048  0.00  0.00    +0.004 A 
ENDBRANCH  19  20
ENDBRANCH   8  19
ENDBRANCH   1   8
BRANCH   4  26
ATOM     26  C   UNL     1       3.327   0.432   1.236  0.00  0.00    -0.039 C 
BRANCH  26  27
ATOM     27  C   UNL     1       2.053  -0.360   1.377  0.00  0.00    -0.019 A 
ATOM     28  C   UNL     1       0.811   0.066   1.058  0.00  0.00    +0.107 A 
ATOM     29  N   UNL     1      -0.056  -0.933   1.331  0.00  0.00    -0.284 N 
ATOM     30  H   UNL     1      -1.131  -0.795   1.143  0.00  0.00    +0.188 HD
ATOM     31  N   UNL     1       0.673  -2.017   1.837  0.00  0.00    -0.174 NA
ATOM     32  C   UNL     1       1.944  -1.676   1.867  0.00  0.00    +0.094 A 
BRANCH  32  33
ATOM     33  C   UNL     1       3.066  -2.529   2.334  0.00  0.00    +0.002 A 
ATOM     34  C   UNL     1       4.256  -2.577   1.611  0.00  0.00    +0.010 A 
ATOM     35  C   UNL     1       5.297  -3.369   2.052  0.00  0.00    +0.001 A 
ATOM     36  C   UNL     1       5.157  -4.121   3.204  0.00  0.00    +0.000 A 
ATOM     37  C   UNL     1       3.976  -4.080   3.924  0.00  0.00    +0.001 A 
ATOM     38  C   UNL     1       2.930  -3.288   3.494  0.00  0.00    +0.010 A 
ENDBRANCH  32  33
ENDBRANCH  26  27
ENDBRANCH   4  26
TORSDOF 9
