REMARK  Name = ZINC33040129
REMARK  6 active torsions:
REMARK  status: ('A' for Active; 'I' for Inactive)
REMARK    1  A    between atoms: C_1  and  C_2
REMARK    2  A    between atoms: C_2  and  C_4
REMARK    3  A    between atoms: C_2  and  N_16
REMARK    4  A    between atoms: N_16  and  C_17
REMARK    5  A    between atoms: C_21  and  C_23
REMARK    6  A    between atoms: N_25  and  C_26
REMARK                            x       y       z     vdW  Elec       q    Type
REMARK                         _______ _______ _______ _____ _____    ______ ____
ROOT
ATOM      1  C   UNL     1      -3.838   1.756   1.522  0.00  0.00    +0.038 C 
ATOM      2  C   UNL     1      -3.693   1.770  -0.001  0.00  0.00    +0.154 C 
ENDROOT
BRANCH   2   3
ATOM      3  C   UNL     1      -4.894   1.106  -0.626  0.00  0.00    +0.240 C 
ATOM      4  O   UNL     1      -4.842  -0.063  -0.946  0.00  0.00    -0.273 OA
ATOM      5  N   UNL     1      -6.024   1.811  -0.829  0.00  0.00    -0.270 N 
ATOM      6  C   UNL     1      -6.077   3.245  -0.513  0.00  0.00    +0.114 C 
ATOM      7  C   UNL     1      -7.391   3.520   0.222  0.00  0.00    +0.024 C 
ATOM      8  C   UNL     1      -8.558   3.200  -0.711  0.00  0.00    +0.038 C 
ATOM      9  C   UNL     1      -8.403   1.822  -1.298  0.00  0.00    -0.026 A 
ATOM     10  C   UNL     1      -7.171   1.188  -1.340  0.00  0.00    +0.039 A 
ATOM     11  C   UNL     1      -7.061  -0.082  -1.893  0.00  0.00    +0.024 A 
ATOM     12  C   UNL     1      -8.180  -0.715  -2.399  0.00  0.00    +0.002 A 
ATOM     13  C   UNL     1      -9.408  -0.083  -2.354  0.00  0.00    +0.000 A 
ATOM     14  C   UNL     1      -9.520   1.180  -1.806  0.00  0.00    +0.005 A 
ENDBRANCH   2   3
BRANCH   2  15
ATOM     15  N   UNL     1      -2.480   1.044  -0.383  0.00  0.00    -0.333 N 
ATOM     16  H   UNL     1      -2.539  -0.019  -0.661  0.00  0.00    +0.147 HD
BRANCH  15  17
ATOM     17  C   UNL     1      -1.247   1.700  -0.394  0.00  0.00    +0.028 A 
ATOM     18  C   UNL     1      -1.171   3.042  -0.037  0.00  0.00    +0.023 A 
ATOM     19  C   UNL     1       0.046   3.698  -0.053  0.00  0.00    +0.003 A 
ATOM     20  C   UNL     1       1.194   3.024  -0.416  0.00  0.00    +0.013 A 
ATOM     21  C   UNL     1       1.129   1.675  -0.771  0.00  0.00    +0.038 A 
ATOM     22  C   UNL     1      -0.098   1.013  -0.756  0.00  0.00    +0.036 A 
BRANCH  21  23
ATOM     23  C   UNL     1       2.358   0.951  -1.161  0.00  0.00    +0.244 C 
ATOM     24  O   UNL     1       2.299  -0.223  -1.470  0.00  0.00    -0.270 OA
ATOM     25  N   UNL     1       3.543   1.593  -1.175  0.00  0.00    -0.314 N 
ATOM     26  C   UNL     1       4.760   0.875  -1.562  0.00  0.00    +0.128 C 
ATOM     27  H   UNL     1       3.596   2.656  -0.896  0.00  0.00    +0.149 HD
ENDBRANCH  21  23
ENDBRANCH  15  17
ENDBRANCH   2  15
TORSDOF 4
