REMARK  Name = ZINC01204373
REMARK  10 active torsions:
REMARK  status: ('A' for Active; 'I' for Inactive)
REMARK    1  A    between atoms: C_1  and  C_2
REMARK    2  A    between atoms: C_3  and  C_28
REMARK    3  A    between atoms: C_4  and  C_20
REMARK    4  A    between atoms: C_10  and  C_11
REMARK    5  A    between atoms: C_23  and  O_26
REMARK    6  A    between atoms: O_26  and  C_27
REMARK    7  A    between atoms: C_28  and  O_30
REMARK    8  A    between atoms: O_30  and  C_31
REMARK    9  A    between atoms: C_31  and  C_32
REMARK   10  A    between atoms: C_31  and  C_33
REMARK                            x       y       z     vdW  Elec       q    Type
REMARK                         _______ _______ _______ _____ _____    ______ ____
ROOT
ATOM      1  C   UNL     1       4.436   4.715   0.024  0.00  0.00    +0.066 C 
ATOM      2  C   UNL     1       3.343   3.679   0.009  0.00  0.00    +0.053 C 
ATOM      3  C   UNL     1       3.666   2.353  -0.074  0.00  0.00    +0.085 C 
ATOM      4  C   UNL     1       2.541   1.344  -0.087  0.00  0.00    +0.162 C 
ATOM      5  N   UNL     1       1.152   1.875  -0.008  0.00  0.00    -0.275 N 
ATOM      6  C   UNL     1       0.024   1.156  -0.005  0.00  0.00    +0.268 A 
ATOM      7  O   UNL     1       0.069  -0.059  -0.072  0.00  0.00    -0.266 OA
ATOM      8  C   UNL     1      -1.228   1.825   0.072  0.00  0.00    +0.084 A 
ATOM      9  C   UNL     1      -2.489   1.302   0.084  0.00  0.00    +0.066 C 
ATOM     10  S   UNL     1      -0.707   3.531   0.149  0.00  0.00    -0.046 S 
ATOM     11  C   UNL     1       1.050   3.247   0.070  0.00  0.00    +0.178 A 
ATOM     12  N   UNL     1       2.073   4.061   0.076  0.00  0.00    -0.228 NA
ENDROOT
BRANCH   9  13
ATOM     13  C   UNL     1      -3.608   2.160   0.167  0.00  0.00    +0.131 A 
ATOM     14  C   UNL     1      -4.933   1.770   0.189  0.00  0.00    +0.050 A 
ATOM     15  C   UNL     1      -5.693   2.945   0.278  0.00  0.00    +0.057 A 
ATOM     16  C   UNL     1      -4.825   3.983   0.306  0.00  0.00    +0.171 A 
ATOM     17  O   UNL     1      -3.573   3.508   0.245  0.00  0.00    -0.449 OA
ATOM     18 BR   UNL     1      -5.301   5.810   0.421  0.00  0.00    -0.008 Br
ENDBRANCH   9  13
BRANCH   4  19
ATOM     19  C   UNL     1       2.656   0.536  -1.355  0.00  0.00    -0.020 A 
ATOM     20  C   UNL     1       2.048   0.981  -2.514  0.00  0.00    +0.009 A 
ATOM     21  C   UNL     1       2.157   0.245  -3.678  0.00  0.00    +0.046 A 
ATOM     22  C   UNL     1       2.869  -0.946  -3.681  0.00  0.00    +0.120 A 
ATOM     23  C   UNL     1       3.474  -1.392  -2.515  0.00  0.00    +0.046 A 
ATOM     24  C   UNL     1       3.367  -0.650  -1.355  0.00  0.00    +0.009 A 
BRANCH  22  25
ATOM     25  O   UNL     1       2.972  -1.674  -4.823  0.00  0.00    -0.495 OA
ATOM     26  C   UNL     1       2.324  -1.154  -5.986  0.00  0.00    +0.277 C 
ENDBRANCH  22  25
ENDBRANCH   4  19
BRANCH   3  27
ATOM     27  C   UNL     1       5.006   1.940  -0.145  0.00  0.00    +0.339 C 
ATOM     28  O   UNL     1       5.894   2.768  -0.243  0.00  0.00    -0.245 OA
BRANCH  27  29
ATOM     29  O   UNL     1       5.311   0.625  -0.105  0.00  0.00    -0.459 OA
BRANCH  29  30
ATOM     30  C   UNL     1       6.695   0.277  -0.182  0.00  0.00    +0.171 C 
ATOM     31  C   UNL     1       6.937  -1.024   0.586  0.00  0.00    +0.052 C 
ATOM     32  C   UNL     1       7.092   0.086  -1.647  0.00  0.00    +0.052 C 
ENDBRANCH  29  30
ENDBRANCH  27  29
ENDBRANCH   3  27
TORSDOF 6
