REMARK  Name = ZINC30881634
REMARK  10 active torsions:
REMARK  status: ('A' for Active; 'I' for Inactive)
REMARK    1  A    between atoms: C_1  and  C_2
REMARK    2  A    between atoms: C_2  and  N_3
REMARK    3  A    between atoms: N_6  and  C_7
REMARK    4  A    between atoms: C_7  and  C_8
REMARK    5  A    between atoms: C_11  and  C_35
REMARK    6  A    between atoms: C_12  and  C_20
REMARK    7  A    between atoms: C_15  and  C_17
REMARK    8  A    between atoms: C_17  and  C_18
REMARK    9  A    between atoms: C_17  and  C_19
REMARK   10  A    between atoms: C_20  and  C_21
REMARK                            x       y       z     vdW  Elec       q    Type
REMARK                         _______ _______ _______ _____ _____    ______ ____
ROOT
ATOM      1  C   UNL     1      -0.406   2.711   2.008  0.00  0.00    +0.032 C 
ATOM      2  C   UNL     1      -0.779   3.399   0.728  0.00  0.00    -0.022 C 
ATOM      3  C   UNL     1      -0.617   2.882  -0.448  0.00  0.00    -0.073 C 
ATOM      4  C   UNL     1      -0.042   1.518  -0.694  0.00  0.00    +0.023 C 
ATOM      5  C   UNL     1       0.696   1.024   0.552  0.00  0.00    +0.012 C 
ATOM      6  C   UNL     1      -0.219   1.211   1.769  0.00  0.00    +0.000 C 
ATOM      7  C   UNL     1      -1.031   3.700  -1.643  0.00  0.00    +0.039 C 
ENDROOT
BRANCH   6   8
ATOM      8  C   UNL     1       0.423   0.567   3.000  0.00  0.00    -0.013 C 
ATOM      9  C   UNL     1       0.497  -0.948   2.802  0.00  0.00    +0.007 C 
ATOM     10  C   UNL     1       1.835   1.125   3.189  0.00  0.00    +0.007 C 
ENDBRANCH   6   8
BRANCH   1  11
ATOM     11  C   UNL     1      -1.514   2.924   3.041  0.00  0.00    +0.113 C 
BRANCH  11  15
ATOM     12  N   UNL     1      -2.566   6.076   4.614  0.00  0.00    -0.300 N 
ATOM     13  C   UNL     1      -2.499   4.769   4.290  0.00  0.00    +0.300 C 
ATOM     14  O   UNL     1      -3.259   3.974   4.809  0.00  0.00    -0.253 OA
ATOM     15  N   UNL     1      -1.588   4.344   3.392  0.00  0.00    -0.299 N 
ATOM     16  H   UNL     1      -1.879   6.795   4.145  0.00  0.00    +0.150 HD
ATOM     17  H   UNL     1      -0.900   5.063   2.923  0.00  0.00    +0.150 HD
BRANCH  12  19
ATOM     18  C   UNL     1      -3.422   8.051   5.775  0.00  0.00    +0.024 C 
ATOM     19  C   UNL     1      -3.556   6.538   5.590  0.00  0.00    +0.102 C 
ENDBRANCH  12  19
ENDBRANCH  11  15
ENDBRANCH   1  11
BRANCH   4  20
ATOM     20  C   UNL     1      -1.173   0.544  -1.033  0.00  0.00    +0.103 C 
BRANCH  20  21
ATOM     21  C   UNL     1      -0.587  -0.777  -1.460  0.00  0.00    +0.216 C 
ATOM     22  O   UNL     1       0.616  -0.931  -1.474  0.00  0.00    -0.276 OA
ATOM     23  N   UNL     1      -1.400  -1.788  -1.827  0.00  0.00    -0.298 N 
ATOM     24  C   UNL     1      -2.862  -1.624  -1.811  0.00  0.00    +0.126 C 
ATOM     25  C   UNL     1      -3.411  -2.062  -3.178  0.00  0.00    +0.125 C 
ATOM     26  N   UNL     1      -2.942  -3.422  -3.475  0.00  0.00    -0.314 N 
ATOM     27  C   UNL     1      -1.478  -3.468  -3.591  0.00  0.00    +0.125 C 
ATOM     28  C   UNL     1      -0.850  -3.085  -2.247  0.00  0.00    +0.126 C 
ATOM     29  C   UNL     1      -3.548  -3.919  -4.622  0.00  0.00    +0.099 A 
ATOM     30  C   UNL     1      -4.936  -3.960  -4.706  0.00  0.00    +0.042 A 
ATOM     31  C   UNL     1      -5.527  -4.457  -5.854  0.00  0.00    +0.005 A 
ATOM     32  C   UNL     1      -4.706  -4.898  -6.883  0.00  0.00    +0.018 A 
ATOM     33  C   UNL     1      -3.336  -4.829  -6.733  0.00  0.00    +0.084 A 
ATOM     34  N   UNL     1      -2.800  -4.345  -5.628  0.00  0.00    -0.350 N 
ATOM     35  H   UNL     1      -1.703  -4.300  -5.556  0.00  0.00    +0.166 HD
ENDBRANCH  20  21
ENDBRANCH   4  20
TORSDOF 6
