REMARK  Name = ZINC36503432
REMARK  11 active torsions:
REMARK  status: ('A' for Active; 'I' for Inactive)
REMARK    1  A    between atoms: C_1  and  C_2
REMARK    2  A    between atoms: C_5  and  S_8
REMARK    3  A    between atoms: S_8  and  C_11
REMARK    4  A    between atoms: C_11  and  N_12
REMARK    5  A    between atoms: C_13  and  C_15
REMARK    6  A    between atoms: C_15  and  C_17
REMARK    7  A    between atoms: C_15  and  N_26
REMARK    8  A    between atoms: C_20  and  N_23
REMARK    9  A    between atoms: N_26  and  C_27
REMARK   10  A    between atoms: C_27  and  C_28
REMARK   11  A    between atoms: C_33  and  C_35
REMARK                            x       y       z     vdW  Elec       q    Type
REMARK                         _______ _______ _______ _____ _____    ______ ____
ROOT
ATOM      1  C   UNL     1       2.827  -4.774   3.687  0.00  0.00    +0.193 C 
ENDROOT
BRANCH   1   2
ATOM      2  C   UNL     1       1.546  -4.665   4.473  0.00  0.00    -0.018 A 
ATOM      3  C   UNL     1       0.923  -5.806   4.942  0.00  0.00    +0.008 A 
ATOM      4  C   UNL     1      -0.252  -5.706   5.663  0.00  0.00    +0.033 A 
ATOM      5  C   UNL     1      -0.803  -4.464   5.917  0.00  0.00    +0.126 A 
ATOM      6  C   UNL     1      -0.180  -3.323   5.450  0.00  0.00    +0.033 A 
ATOM      7  C   UNL     1       0.997  -3.422   4.732  0.00  0.00    +0.008 A 
BRANCH   5   8
ATOM      8  N   UNL     1      -2.062  -4.357   6.689  0.00  0.00    +0.056 N 
ATOM      9  O   UNL     1      -2.607  -5.356   7.097  0.00  0.00    -0.126 OA
ATOM     10  O   UNL     1      -2.544  -3.271   6.910  0.00  0.00    -0.126 OA
ENDBRANCH   5   8
ENDBRANCH   1   2
BRANCH   1  12
ATOM     11  N   UNL     1       2.567  -4.156   1.306  0.00  0.00    -0.294 N 
ATOM     12  C   UNL     1       2.509  -5.113   2.253  0.00  0.00    +0.239 C 
ATOM     13  O   UNL     1       2.200  -6.246   1.953  0.00  0.00    -0.273 OA
ATOM     14  H   UNL     1       2.814  -3.249   1.546  0.00  0.00    +0.150 HD
BRANCH  11  15
ATOM     15  C   UNL     1       2.258  -4.486  -0.088  0.00  0.00    +0.278 C 
BRANCH  15  16
ATOM     16  S   UNL     1       0.516  -4.107  -0.426  0.00  0.00    +0.013 S 
ATOM     17  O   UNL     1      -0.308  -4.630   0.606  0.00  0.00    -0.168 OA
ATOM     18  O   UNL     1       0.217  -4.362  -1.792  0.00  0.00    -0.168 OA
BRANCH  16  23
ATOM     19  C   UNL     1       0.088   1.884   0.149  0.00  0.00    +0.044 C 
ATOM     20  C   UNL     1       0.195   0.387   0.006  0.00  0.00    -0.050 A 
ATOM     21  C   UNL     1       0.500  -0.169  -1.223  0.00  0.00    +0.005 A 
ATOM     22  C   UNL     1       0.598  -1.542  -1.355  0.00  0.00    +0.027 A 
ATOM     23  C   UNL     1       0.392  -2.358  -0.258  0.00  0.00    +0.090 A 
ATOM     24  C   UNL     1       0.089  -1.801   0.971  0.00  0.00    +0.027 A 
ATOM     25  C   UNL     1      -0.005  -0.429   1.103  0.00  0.00    +0.005 A 
ENDBRANCH  16  23
ENDBRANCH  15  16
ENDBRANCH  11  15
ENDBRANCH   1  12
BRANCH   1  26
ATOM     26  N   UNL     1       3.666  -5.827   4.263  0.00  0.00    -0.278 N 
ATOM     27  C   UNL     1       4.658  -5.507   5.118  0.00  0.00    +0.231 C 
ATOM     28  O   UNL     1       5.411  -6.367   5.522  0.00  0.00    -0.274 OA
BRANCH  27  29
ATOM     29  C   UNL     1       4.830  -4.080   5.571  0.00  0.00    +0.204 C 
ATOM     30 CL   UNL     1       6.321  -3.946   6.577  0.00  0.00    -0.116 Cl
ENDBRANCH  27  29
BRANCH  26  31
ATOM     31  C   UNL     1       3.426  -7.229   3.911  0.00  0.00    +0.183 C 
BRANCH  31  32
ATOM     32  C   UNL     1       4.412  -7.657   2.854  0.00  0.00    +0.122 A 
ATOM     33  C   UNL     1       5.622  -8.200   3.080  0.00  0.00    +0.046 A 
ATOM     34  C   UNL     1       6.204  -8.445   1.815  0.00  0.00    +0.041 A 
ATOM     35  C   UNL     1       5.314  -8.037   0.892  0.00  0.00    +0.195 A 
ATOM     36  O   UNL     1       4.229  -7.566   1.527  0.00  0.00    -0.466 OA
ENDBRANCH  31  32
ENDBRANCH  26  31
ENDBRANCH   1  26
TORSDOF 10
