REMARK  Name = ZINC02088249
REMARK  8 active torsions:
REMARK  status: ('A' for Active; 'I' for Inactive)
REMARK    1  A    between atoms: C_1  and  C_2
REMARK    2  A    between atoms: C_5  and  C_8
REMARK    3  A    between atoms: C_11  and  C_36
REMARK    4  A    between atoms: C_16  and  C_18
REMARK    5  A    between atoms: N_20  and  C_21
REMARK    6  A    between atoms: N_20  and  C_28
REMARK    7  A    between atoms: C_21  and  C_22
REMARK    8  A    between atoms: C_28  and  C_29
REMARK                            x       y       z     vdW  Elec       q    Type
REMARK                         _______ _______ _______ _____ _____    ______ ____
ROOT
ATOM      1  C   UNL     1       0.186  -4.337  -0.161  0.00  0.00    +0.104 C 
ATOM      2  C   UNL     1      -1.236  -4.850   0.092  0.00  0.00    +0.063 C 
ATOM      3  C   UNL     1      -1.254  -6.382   0.045  0.00  0.00    +0.215 C 
ATOM      4  N   UNL     1      -0.184  -6.896   0.906  0.00  0.00    -0.238 N 
ATOM      5  C   UNL     1       0.887  -6.151   1.310  0.00  0.00    +0.119 A 
ATOM      6  C   UNL     1       1.667  -6.926   2.089  0.00  0.00    +0.078 A 
ATOM      7  C   UNL     1       1.060  -8.199   2.169  0.00  0.00    +0.149 A 
ATOM      8  N   UNL     1      -0.052  -8.171   1.454  0.00  0.00    -0.164 NA
ATOM      9  N   UNL     1       1.063  -4.817   0.925  0.00  0.00    -0.322 N 
ATOM     10  H   UNL     1       1.720  -4.242   1.348  0.00  0.00    +0.148 HD
ENDROOT
BRANCH   1  15
ATOM     11  C   UNL     1       0.175   1.441  -0.236  0.00  0.00    +0.044 C 
ATOM     12  C   UNL     1       0.178  -0.065  -0.216  0.00  0.00    -0.050 A 
ATOM     13  C   UNL     1       0.192  -0.772  -1.404  0.00  0.00    +0.004 A 
ATOM     14  C   UNL     1       0.195  -2.154  -1.386  0.00  0.00    +0.006 A 
ATOM     15  C   UNL     1       0.184  -2.830  -0.180  0.00  0.00    -0.027 A 
ATOM     16  C   UNL     1       0.171  -2.123   1.008  0.00  0.00    +0.006 A 
ATOM     17  C   UNL     1       0.172  -0.741   0.990  0.00  0.00    +0.004 A 
ENDBRANCH   1  15
BRANCH   3  18
ATOM     18  C   UNL     1      -2.607  -6.894   0.543  0.00  0.00    +0.412 C 
ATOM     19  F   UNL     1      -3.625  -6.392  -0.274  0.00  0.00    -0.168 F 
ATOM     20  F   UNL     1      -2.621  -8.293   0.499  0.00  0.00    -0.168 F 
ATOM     21  F   UNL     1      -2.811  -6.467   1.859  0.00  0.00    -0.168 F 
ENDBRANCH   3  18
BRANCH   7  22
ATOM     22  C   UNL     1       1.577  -9.361   2.920  0.00  0.00    +0.267 C 
ATOM     23  O   UNL     1       2.669  -9.303   3.453  0.00  0.00    -0.268 OA
ATOM     24  N   UNL     1       0.840 -10.485   3.016  0.00  0.00    -0.288 N 
BRANCH  24  25
ATOM     25  C   UNL     1       1.300 -11.594   3.855  0.00  0.00    +0.143 C 
BRANCH  25  26
ATOM     26  C   UNL     1       0.761 -11.423   5.252  0.00  0.00    -0.030 A 
ATOM     27  C   UNL     1       1.485 -10.710   6.190  0.00  0.00    +0.005 A 
ATOM     28  C   UNL     1       0.991 -10.554   7.471  0.00  0.00    +0.000 A 
ATOM     29  C   UNL     1      -0.227 -11.110   7.815  0.00  0.00    +0.000 A 
ATOM     30  C   UNL     1      -0.951 -11.822   6.878  0.00  0.00    +0.000 A 
ATOM     31  C   UNL     1      -0.459 -11.975   5.595  0.00  0.00    +0.005 A 
ENDBRANCH  25  26
ENDBRANCH  24  25
BRANCH  24  32
ATOM     32  C   UNL     1      -0.422 -10.598   2.280  0.00  0.00    +0.143 C 
BRANCH  32  33
ATOM     33  C   UNL     1      -0.170 -11.258   0.949  0.00  0.00    -0.030 A 
ATOM     34  C   UNL     1       0.037 -10.485  -0.178  0.00  0.00    +0.005 A 
ATOM     35  C   UNL     1       0.268 -11.090  -1.399  0.00  0.00    +0.000 A 
ATOM     36  C   UNL     1       0.293 -12.469  -1.493  0.00  0.00    +0.000 A 
ATOM     37  C   UNL     1       0.087 -13.242  -0.366  0.00  0.00    +0.000 A 
ATOM     38  C   UNL     1      -0.140 -12.637   0.856  0.00  0.00    +0.005 A 
ENDBRANCH  32  33
ENDBRANCH  24  32
ENDBRANCH   7  22
TORSDOF 7
