REMARK  Name = ZINC20764078
REMARK  7 active torsions:
REMARK  status: ('A' for Active; 'I' for Inactive)
REMARK    1  A    between atoms: C_1  and  C_2
REMARK    2  A    between atoms: C_2  and  O_3
REMARK    3  A    between atoms: O_3  and  C_4
REMARK    4  A    between atoms: C_8  and  C_11
REMARK    5  A    between atoms: C_9  and  O_10
REMARK    6  A    between atoms: C_14  and  C_27
REMARK    7  A    between atoms: C_16  and  C_19
REMARK                            x       y       z     vdW  Elec       q    Type
REMARK                         _______ _______ _______ _____ _____    ______ ____
ROOT
ATOM      1  C   UNL     1       1.147   1.523  -2.506  0.00  0.00    -0.028 C 
ATOM      2  C   UNL     1       0.209   2.676  -2.876  0.00  0.00    +0.044 C 
ATOM      3  C   UNL     1      -0.236   2.522  -4.304  0.00  0.00    +0.040 C 
ATOM      4  N   UNL     1       0.347   1.745  -5.138  0.00  0.00    -0.299 NA
ATOM      5  C   UNL     1       1.498   0.912  -4.813  0.00  0.00    +0.081 C 
ATOM      6  N   UNL     1       2.145   1.379  -3.580  0.00  0.00    +0.401 N 
ATOM      7  H   UNL     1       2.622   2.351  -3.770  0.00  0.00    -0.081 HD
ATOM      8  H   UNL     1       2.909   0.648  -3.276  0.00  0.00    -0.081 HD
ENDROOT
BRANCH   3   9
ATOM      9  C   UNL     1      -1.399   3.302  -4.765  0.00  0.00    -0.001 A 
ATOM     10  C   UNL     1      -2.065   4.155  -3.881  0.00  0.00    +0.013 A 
ATOM     11  C   UNL     1      -3.149   4.887  -4.316  0.00  0.00    +0.050 A 
ATOM     12  C   UNL     1      -3.589   4.772  -5.627  0.00  0.00    +0.166 A 
ATOM     13  C   UNL     1      -2.933   3.917  -6.513  0.00  0.00    +0.167 A 
ATOM     14  C   UNL     1      -1.842   3.185  -6.085  0.00  0.00    +0.059 A 
ATOM     15  O   UNL     1      -3.555   3.986  -7.726  0.00  0.00    -0.453 OA
ATOM     16  C   UNL     1      -4.340   5.192  -7.688  0.00  0.00    +0.466 C 
ATOM     17  O   UNL     1      -4.621   5.373  -6.287  0.00  0.00    -0.453 OA
ENDBRANCH   3   9
BRANCH   5  18
ATOM     18  C   UNL     1       2.490   0.971  -5.946  0.00  0.00    -0.039 A 
ATOM     19  C   UNL     1       2.048   1.170  -7.241  0.00  0.00    +0.006 A 
ATOM     20  C   UNL     1       2.956   1.224  -8.281  0.00  0.00    +0.040 A 
ATOM     21  C   UNL     1       4.309   1.079  -8.027  0.00  0.00    +0.137 A 
ATOM     22  C   UNL     1       4.751   0.879  -6.730  0.00  0.00    +0.053 A 
ATOM     23  C   UNL     1       3.841   0.831  -5.690  0.00  0.00    +0.022 A 
ATOM     24 BR   UNL     1       6.599   0.681  -6.380  0.00  0.00    -0.047 Br
ATOM     25  F   UNL     1       5.197   1.133  -9.044  0.00  0.00    -0.204 F 
ENDBRANCH   5  18
BRANCH   1  30
ATOM     26  C   UNL     1       1.866   1.824   1.198  0.00  0.00    +0.162 A 
ATOM     27  C   UNL     1       3.126   2.399   1.184  0.00  0.00    +0.049 A 
ATOM     28  C   UNL     1       3.738   2.693  -0.020  0.00  0.00    +0.004 A 
ATOM     29  C   UNL     1       3.098   2.410  -1.212  0.00  0.00    +0.006 A 
ATOM     30  C   UNL     1       1.843   1.830  -1.205  0.00  0.00    -0.016 A 
ATOM     31  C   UNL     1       1.224   1.533  -0.001  0.00  0.00    +0.160 A 
BRANCH  31  32
ATOM     32  O   UNL     1      -0.011   0.963   0.007  0.00  0.00    -0.503 OA
ATOM     33  H   UNL     1      -0.517   0.733  -0.942  0.00  0.00    +0.292 HD
ENDBRANCH  31  32
BRANCH  26  34
ATOM     34  O   UNL     1       1.260   1.539   2.382  0.00  0.00    -0.489 OA
BRANCH  34  36
ATOM     35  C   UNL     1       1.144   1.475   4.795  0.00  0.00    +0.048 C 
ATOM     36  C   UNL     1       1.978   1.865   3.574  0.00  0.00    +0.226 C 
ENDBRANCH  34  36
ENDBRANCH  26  34
ENDBRANCH   1  30
TORSDOF 6
