REMARK  Name = ZINC59884721
REMARK  10 active torsions:
REMARK  status: ('A' for Active; 'I' for Inactive)
REMARK    1  A    between atoms: C_4  and  N_32
REMARK    2  A    between atoms: C_5  and  C_7
REMARK    3  A    between atoms: N_8  and  N_9
REMARK    4  A    between atoms: C_13  and  S_16
REMARK    5  A    between atoms: N_14  and  N_15
REMARK    6  A    between atoms: S_16  and  C_17
REMARK    7  A    between atoms: C_17  and  C_18
REMARK    8  A    between atoms: N_20  and  C_21
REMARK    9  A    between atoms: C_24  and  O_27
REMARK   10  A    between atoms: O_27  and  C_28
REMARK                            x       y       z     vdW  Elec       q    Type
REMARK                         _______ _______ _______ _____ _____    ______ ____
ROOT
ATOM      1  N   UNL     1       1.958  -4.693   0.073  0.00  0.00    -0.204 N 
ATOM      2  C   UNL     1       3.019  -5.502   0.159  0.00  0.00    +0.254 A 
ATOM      3  N   UNL     1       4.311  -5.120   0.223  0.00  0.00    -0.109 NA
ATOM      4  N   UNL     1       5.063  -6.161   0.298  0.00  0.00    -0.119 NA
ATOM      5  C   UNL     1       4.298  -7.274   0.286  0.00  0.00    +0.210 A 
ATOM      6  N   UNL     1       2.994  -6.873   0.204  0.00  0.00    -0.211 N 
ATOM      7  H   UNL     1       1.064  -5.068   0.037  0.00  0.00    +0.177 HD
ENDROOT
BRANCH   6   8
ATOM      8  N   UNL     1       1.889  -7.676   0.171  0.00  0.00    -0.294 N 
ATOM      9  H   UNL     1       1.648  -7.920  -0.778  0.00  0.00    +0.163 HD
ATOM     10  H   UNL     1       2.026  -8.502   0.733  0.00  0.00    +0.163 HD
ENDBRANCH   6   8
BRANCH   1  12
ATOM     11  C   UNL     1       1.080  -2.619  -0.045  0.00  0.00    +0.140 C 
ATOM     12  N   UNL     1       2.123  -3.414   0.039  0.00  0.00    -0.187 NA
BRANCH  11  17
ATOM     13  C   UNL     1       2.725   0.744  -0.180  0.00  0.00    +0.001 A 
ATOM     14  C   UNL     1       1.621   1.581  -0.157  0.00  0.00    +0.002 A 
ATOM     15  C   UNL     1       0.341   1.053  -0.097  0.00  0.00    +0.033 A 
ATOM     16  C   UNL     1       0.155  -0.311  -0.061  0.00  0.00    +0.135 A 
ATOM     17  C   UNL     1       1.267  -1.167  -0.084  0.00  0.00    +0.025 A 
ATOM     18  C   UNL     1       2.560  -0.623  -0.144  0.00  0.00    +0.012 A 
BRANCH  16  19
ATOM     19  N   UNL     1      -1.213  -0.872   0.003  0.00  0.00    +0.057 N 
ATOM     20  O   UNL     1      -2.249  -0.069   0.136  0.00  0.00    -0.126 OA
ATOM     21  O   UNL     1      -1.395  -2.174  -0.072  0.00  0.00    -0.126 OA
ENDBRANCH  16  19
ENDBRANCH  11  17
ENDBRANCH   1  12
BRANCH   5  22
ATOM     22  S   UNL     1       4.842  -8.841   0.363  0.00  0.00    -0.075 S 
BRANCH  22  23
ATOM     23  C   UNL     1       6.646  -8.675   0.463  0.00  0.00    +0.173 C 
BRANCH  23  24
ATOM     24  C   UNL     1       7.272 -10.043   0.539  0.00  0.00    +0.227 C 
ATOM     25  O   UNL     1       6.571 -11.033   0.527  0.00  0.00    -0.275 OA
ATOM     26  N   UNL     1       8.612 -10.168   0.621  0.00  0.00    -0.285 N 
ATOM     27  H   UNL     1       9.167  -9.378   0.718  0.00  0.00    +0.155 HD
BRANCH  26  28
ATOM     28  C   UNL     1       9.203 -11.437   0.567  0.00  0.00    +0.034 A 
ATOM     29  C   UNL     1      10.433 -11.657   1.171  0.00  0.00    +0.027 A 
ATOM     30  C   UNL     1      11.014 -12.908   1.118  0.00  0.00    +0.048 A 
ATOM     31  C   UNL     1      10.369 -13.945   0.460  0.00  0.00    +0.130 A 
ATOM     32  C   UNL     1       9.140 -13.726  -0.144  0.00  0.00    +0.048 A 
ATOM     33  C   UNL     1       8.555 -12.477  -0.086  0.00  0.00    +0.027 A 
BRANCH  31  34
ATOM     34  O   UNL     1      10.943 -15.177   0.408  0.00  0.00    -0.406 OA
BRANCH  34  35
ATOM     35  C   UNL     1      10.223 -16.199  -0.286  0.00  0.00    +0.575 C 
ATOM     36  F   UNL     1      10.035 -15.814  -1.618  0.00  0.00    -0.133 F 
ATOM     37  F   UNL     1      10.950 -17.393  -0.243  0.00  0.00    -0.133 F 
ATOM     38  F   UNL     1       8.978 -16.389   0.325  0.00  0.00    -0.133 F 
ENDBRANCH  34  35
ENDBRANCH  31  34
ENDBRANCH  26  28
ENDBRANCH  23  24
ENDBRANCH  22  23
ENDBRANCH   5  22
TORSDOF 10
