REMARK  Name = ZINC04905422
REMARK  5 active torsions:
REMARK  status: ('A' for Active; 'I' for Inactive)
REMARK    1  A    between atoms: C_1  and  C_2
REMARK    2  A    between atoms: C_2  and  C_13
REMARK    3  A    between atoms: N_3  and  N_4
REMARK    4  A    between atoms: C_5  and  C_7
REMARK    5  A    between atoms: C_26  and  C_29
REMARK                            x       y       z     vdW  Elec       q    Type
REMARK                         _______ _______ _______ _____ _____    ______ ____
ROOT
ATOM      1  C   UNL     1       3.592   1.803  -0.023  0.00  0.00    -0.002 A 
ATOM      2  C   UNL     1       4.814   1.125  -0.032  0.00  0.00    +0.011 A 
ATOM      3  C   UNL     1       5.993   1.833  -0.051  0.00  0.00    +0.024 A 
ATOM      4  C   UNL     1       5.983   3.224  -0.049  0.00  0.00    +0.031 A 
ATOM      5  C   UNL     1       4.758   3.904  -0.021  0.00  0.00    -0.019 A 
ATOM      6  C   UNL     1       3.577   3.200  -0.015  0.00  0.00    +0.015 A 
ATOM      7  C   UNL     1       4.799   5.382   0.021  0.00  0.00    +0.049 C 
ATOM      8  C   UNL     1       3.688   6.242  -0.492  0.00  0.00    -0.023 C 
ATOM      9  C   UNL     1       4.197   7.367  -0.979  0.00  0.00    -0.030 C 
ATOM     10  C   UNL     1       5.721   7.356  -0.841  0.00  0.00    +0.033 C 
ATOM     11  C   UNL     1       6.018   5.850  -0.829  0.00  0.00    +0.029 C 
ATOM     12  C   UNL     1       7.245   5.392  -0.062  0.00  0.00    +0.105 C 
ATOM     13  N   UNL     1       7.200   3.914  -0.083  0.00  0.00    -0.336 N 
ATOM     14  H   UNL     1       8.030   3.413  -0.122  0.00  0.00    +0.147 HD
ENDROOT
BRANCH  12  15
ATOM     15  C   UNL     1       8.497   5.884  -0.741  0.00  0.00    -0.027 A 
ATOM     16  C   UNL     1       8.952   5.261  -1.888  0.00  0.00    +0.005 A 
ATOM     17  C   UNL     1      10.098   5.716  -2.513  0.00  0.00    +0.000 A 
ATOM     18  C   UNL     1      10.795   6.787  -1.986  0.00  0.00    +0.000 A 
ATOM     19  C   UNL     1      10.343   7.407  -0.836  0.00  0.00    +0.000 A 
ATOM     20  C   UNL     1       9.194   6.955  -0.213  0.00  0.00    +0.005 A 
ENDBRANCH  12  15
BRANCH   1  22
ATOM     21  C   UNL     1       2.346  -0.458  -0.023  0.00  0.00    +0.068 C 
ATOM     22  C   UNL     1       2.325   1.049  -0.015  0.00  0.00    +0.063 C 
ATOM     23  N   UNL     1       1.193   1.683  -0.000  0.00  0.00    -0.184 NA
BRANCH  23  24
ATOM     24  N   UNL     1      -0.011   0.966   0.007  0.00  0.00    -0.203 N 
ATOM     25  C   UNL     1      -1.187   1.624   0.017  0.00  0.00    +0.265 C 
ATOM     26  O   UNL     1      -1.204   2.840   0.023  0.00  0.00    -0.268 OA
ATOM     27  H   UNL     1       0.002  -0.004   0.002  0.00  0.00    +0.178 HD
BRANCH  25  28
ATOM     28  C   UNL     1      -2.457   0.868   0.018  0.00  0.00    +0.056 A 
ATOM     29  C   UNL     1      -3.686   1.539   0.028  0.00  0.00    +0.016 A 
ATOM     30  C   UNL     1      -4.846   0.785   0.029  0.00  0.00    +0.020 A 
ATOM     31  C   UNL     1      -4.755  -0.596   0.020  0.00  0.00    +0.111 A 
ATOM     32  N   UNL     1      -3.583  -1.202   0.011  0.00  0.00    -0.263 NA
ATOM     33  C   UNL     1      -2.452  -0.528   0.005  0.00  0.00    +0.123 A 
ENDBRANCH  25  28
ENDBRANCH  23  24
ENDBRANCH   1  22
TORSDOF 4
