REMARK  Name = ZINC39560601
REMARK  5 active torsions:
REMARK  status: ('A' for Active; 'I' for Inactive)
REMARK    1  A    between atoms: C_4  and  C_7
REMARK    2  A    between atoms: C_7  and  C_9
REMARK    3  A    between atoms: C_7  and  S_20
REMARK    4  A    between atoms: C_9  and  C_11
REMARK    5  A    between atoms: S_20  and  C_21
REMARK                            x       y       z     vdW  Elec       q    Type
REMARK                         _______ _______ _______ _____ _____    ______ ____
ROOT
ATOM      1  C   UNL     1       3.604  -0.721  -0.029  0.00  0.00    +0.150 C 
ENDROOT
BRANCH   1   5
ATOM      2  C   UNL     1      -0.419   0.714  -0.072  0.00  0.00    +0.000 A 
ATOM      3  C   UNL     1       0.634   1.609  -0.109  0.00  0.00    +0.000 A 
ATOM      4  C   UNL     1       1.936   1.144  -0.094  0.00  0.00    +0.005 A 
ATOM      5  C   UNL     1       2.185  -0.214  -0.043  0.00  0.00    -0.027 A 
ATOM      6  C   UNL     1       1.131  -1.109  -0.006  0.00  0.00    +0.005 A 
ATOM      7  C   UNL     1      -0.171  -0.645  -0.021  0.00  0.00    +0.000 A 
ENDBRANCH   1   5
BRANCH   1   8
ATOM      8  C   UNL     1       3.825  -1.629  -1.210  0.00  0.00    +0.179 C 
ATOM      9  O   UNL     1       3.702  -2.831  -1.084  0.00  0.00    -0.291 OA
BRANCH   8  10
ATOM     10  C   UNL     1       4.176  -1.084  -2.464  0.00  0.00    +0.024 C 
ATOM     11  C   UNL     1       4.407  -1.773  -3.641  0.00  0.00    +0.006 A 
ATOM     12  C   UNL     1       4.377  -3.148  -3.973  0.00  0.00    +0.010 A 
ATOM     13  C   UNL     1       4.652  -3.551  -5.233  0.00  0.00    +0.001 A 
ATOM     14  C   UNL     1       4.975  -2.649  -6.259  0.00  0.00    +0.002 A 
ATOM     15  C   UNL     1       5.032  -1.316  -6.048  0.00  0.00    +0.026 A 
ATOM     16  C   UNL     1       4.745  -0.793  -4.702  0.00  0.00    +0.043 A 
ATOM     17  N   UNL     1       4.727   0.419  -4.225  0.00  0.00    -0.380 N 
ATOM     18  C   UNL     1       4.371   0.377  -2.804  0.00  0.00    +0.152 C 
ATOM     19  H   UNL     1       4.916   1.224  -4.733  0.00  0.00    +0.160 HD
ENDBRANCH   8  10
ENDBRANCH   1   8
BRANCH   1  20
ATOM     20  S   UNL     1       3.902  -1.641   1.506  0.00  0.00    -0.102 S 
BRANCH  20  21
ATOM     21  C   UNL     1       3.848  -0.369   2.798  0.00  0.00    +0.237 C 
ATOM     22  N   UNL     1       2.452  -0.075   3.179  0.00  0.00    -0.238 N 
ATOM     23  N   UNL     1       2.337  -0.420   4.533  0.00  0.00    -0.174 NA
ATOM     24  C   UNL     1       3.439  -0.864   5.008  0.00  0.00    +0.117 C 
ATOM     25  N   UNL     1       4.445  -0.865   4.033  0.00  0.00    -0.289 N 
ATOM     26  C   UNL     1       5.827  -1.293   4.293  0.00  0.00    +0.109 C 
ATOM     27  C   UNL     1       5.807  -2.803   4.556  0.00  0.00    +0.019 C 
ATOM     28  C   UNL     1       5.446  -3.113   5.989  0.00  0.00    +0.002 C 
ATOM     29  C   UNL     1       4.008  -2.844   6.362  0.00  0.00    +0.008 C 
ATOM     30  C   UNL     1       3.698  -1.344   6.426  0.00  0.00    +0.073 C 
ATOM     31  H   UNL     1       1.756   0.285   2.608  0.00  0.00    +0.171 HD
ENDBRANCH  20  21
ENDBRANCH   1  20
TORSDOF 5
