REMARK  Name = ZINC06811910
REMARK  8 active torsions:
REMARK  status: ('A' for Active; 'I' for Inactive)
REMARK    1  A    between atoms: C_1  and  C_2
REMARK    2  A    between atoms: C_2  and  C_3
REMARK    3  A    between atoms: C_6  and  N_9
REMARK    4  A    between atoms: C_10  and  C_12
REMARK    5  A    between atoms: C_14  and  C_25
REMARK    6  A    between atoms: C_18  and  C_23
REMARK    7  A    between atoms: C_23  and  C_24
REMARK    8  A    between atoms: C_28  and  C_31
REMARK                            x       y       z     vdW  Elec       q    Type
REMARK                         _______ _______ _______ _____ _____    ______ ____
ROOT
ATOM      1  C   UNL     1       2.637  -2.753  -6.962  0.00  0.00    +0.166 C 
ATOM      2  C   UNL     1       1.963  -2.257  -8.248  0.00  0.00    +0.140 C 
ATOM      3  N   UNL     1       2.783  -2.587  -9.415  0.00  0.00    -0.272 N 
ATOM      4  N   UNL     1       3.004  -3.918  -9.569  0.00  0.00    -0.225 N 
ATOM      5  C   UNL     1       3.350  -4.579 -10.712  0.00  0.00    +0.151 A 
ATOM      6  N   UNL     1       3.477  -5.842 -10.408  0.00  0.00    -0.132 NA
ATOM      7  N   UNL     1       3.232  -6.023  -9.156  0.00  0.00    -0.121 NA
ATOM      8  C   UNL     1       2.932  -4.881  -8.602  0.00  0.00    +0.209 A 
ATOM      9  S   UNL     1       2.496  -4.565  -6.921  0.00  0.00    -0.069 S 
ATOM     10  H   UNL     1       3.652  -2.075  -9.402  0.00  0.00    +0.167 HD
ENDROOT
BRANCH   2  11
ATOM     11  C   UNL     1       1.782  -0.763  -8.172  0.00  0.00    -0.024 A 
ATOM     12  C   UNL     1       2.848   0.076  -8.439  0.00  0.00    +0.006 A 
ATOM     13  C   UNL     1       2.681   1.447  -8.373  0.00  0.00    +0.004 A 
ATOM     14  C   UNL     1       1.451   1.978  -8.032  0.00  0.00    -0.050 A 
ATOM     15  C   UNL     1       0.387   1.138  -7.760  0.00  0.00    +0.004 A 
ATOM     16  C   UNL     1       0.553  -0.232  -7.830  0.00  0.00    +0.006 A 
ATOM     17  C   UNL     1       1.271   3.472  -7.955  0.00  0.00    +0.044 C 
ENDBRANCH   2  11
BRANCH   1  19
ATOM     18  N   UNL     1       2.657  -1.835  -4.665  0.00  0.00    -0.285 N 
ATOM     19  C   UNL     1       1.945  -2.160  -5.762  0.00  0.00    +0.233 C 
ATOM     20  O   UNL     1       0.746  -1.975  -5.784  0.00  0.00    -0.274 OA
ATOM     21  H   UNL     1       3.624  -1.911  -4.675  0.00  0.00    +0.155 HD
BRANCH  18  25
ATOM     22  C   UNL     1       0.706  -0.505  -1.233  0.00  0.00    -0.048 A 
ATOM     23  C   UNL     1       1.956  -0.007  -1.553  0.00  0.00    +0.005 A 
ATOM     24  C   UNL     1       2.608  -0.450  -2.687  0.00  0.00    +0.023 A 
ATOM     25  C   UNL     1       2.002  -1.389  -3.512  0.00  0.00    +0.033 A 
ATOM     26  C   UNL     1       0.745  -1.883  -3.191  0.00  0.00    +0.023 A 
ATOM     27  C   UNL     1       0.100  -1.440  -2.053  0.00  0.00    +0.005 A 
BRANCH  22  29
ATOM     28  C   UNL     1       0.372  -0.923   1.188  0.00  0.00    +0.009 C 
ATOM     29  C   UNL     1      -0.000  -0.023   0.008  0.00  0.00    +0.032 C 
ENDBRANCH  22  29
ENDBRANCH  18  25
ENDBRANCH   1  19
BRANCH   5  30
ATOM     30  C   UNL     1       3.549  -3.964 -12.074  0.00  0.00    +0.074 C 
ATOM     31  C   UNL     1       5.011  -3.544 -12.235  0.00  0.00    +0.012 C 
ENDBRANCH   5  30
TORSDOF 5
