REMARK  Name = ZINC03268989
REMARK  9 active torsions:
REMARK  status: ('A' for Active; 'I' for Inactive)
REMARK    1  A    between atoms: C_1  and  C_2
REMARK    2  A    between atoms: C_4  and  N_9
REMARK    3  A    between atoms: C_10  and  C_12
REMARK    4  A    between atoms: C_13  and  N_29
REMARK    5  A    between atoms: C_14  and  C_22
REMARK    6  A    between atoms: C_15  and  N_17
REMARK    7  A    between atoms: N_17  and  C_18
REMARK    8  A    between atoms: C_18  and  C_19
REMARK    9  A    between atoms: C_19  and  C_21
REMARK                            x       y       z     vdW  Elec       q    Type
REMARK                         _______ _______ _______ _____ _____    ______ ____
ROOT
ATOM      1  C   UNL     1      -2.485   4.093   0.244  0.00  0.00    +0.097 A 
ATOM      2  C   UNL     1      -2.713   5.458   0.365  0.00  0.00    +0.058 A 
ATOM      3  C   UNL     1      -4.039   5.872   0.464  0.00  0.00    +0.086 A 
ATOM      4  C   UNL     1      -5.033   4.889   0.434  0.00  0.00    +0.080 A 
ATOM      5  S   UNL     1      -4.135   3.418   0.264  0.00  0.00    -0.067 S 
ENDROOT
BRANCH   3   6
ATOM      6  C   UNL     1      -4.381   7.291   0.596  0.00  0.00    +0.251 C 
ATOM      7  O   UNL     1      -4.576   7.965  -0.399  0.00  0.00    -0.270 OA
ATOM      8  N   UNL     1      -4.481   7.849   1.819  0.00  0.00    -0.297 N 
ATOM      9  C   UNL     1      -4.279   7.153   3.098  0.00  0.00    +0.108 C 
ATOM     10  C   UNL     1      -4.519   8.182   4.223  0.00  0.00    +0.020 C 
ATOM     11  C   UNL     1      -5.403   9.252   3.529  0.00  0.00    +0.020 C 
ATOM     12  C   UNL     1      -4.816   9.258   2.095  0.00  0.00    +0.108 C 
ENDBRANCH   3   6
BRANCH   1  14
ATOM     13  N   UNL     1      -1.237   2.069   0.019  0.00  0.00    -0.281 N 
ATOM     14  C   UNL     1      -1.255   3.412   0.128  0.00  0.00    +0.257 C 
ATOM     15  O   UNL     1      -0.210   4.038   0.127  0.00  0.00    -0.269 OA
ATOM     16  H   UNL     1      -2.070   1.576  -0.047  0.00  0.00    +0.155 HD
BRANCH  13  20
ATOM     17  C   UNL     1       1.409  -1.898   1.218  0.00  0.00    +0.045 C 
ATOM     18  C   UNL     1       1.294  -0.541   0.573  0.00  0.00    -0.035 A 
ATOM     19  C   UNL     1       0.089   0.135   0.596  0.00  0.00    +0.027 A 
ATOM     20  C   UNL     1      -0.017   1.385   0.002  0.00  0.00    +0.034 A 
ATOM     21  C   UNL     1       1.091   1.953  -0.615  0.00  0.00    +0.024 A 
ATOM     22  C   UNL     1       2.293   1.274  -0.635  0.00  0.00    +0.017 A 
ATOM     23  C   UNL     1       2.395   0.028  -0.042  0.00  0.00    +0.021 A 
ATOM     24 BR   UNL     1       4.043  -0.899  -0.071  0.00  0.00    -0.050 Br
ENDBRANCH  13  20
ENDBRANCH   1  14
BRANCH   2  25
ATOM     25  N   UNL     1      -1.666   6.368   0.387  0.00  0.00    -0.356 N 
ATOM     26  H   UNL     1      -0.750   6.056   0.317  0.00  0.00    +0.142 HD
ATOM     27  H   UNL     1      -1.850   7.317   0.473  0.00  0.00    +0.142 HD
ENDBRANCH   2  25
BRANCH   4  28
ATOM     28  N   UNL     1      -6.396   5.052   0.515  0.00  0.00    -0.334 N 
ATOM     29  H   UNL     1      -6.774   5.941   0.606  0.00  0.00    +0.147 HD
BRANCH  28  30
ATOM     30  C   UNL     1      -7.278   3.883   0.465  0.00  0.00    +0.132 C 
BRANCH  30  31
ATOM     31  C   UNL     1      -8.713   4.331   0.572  0.00  0.00    -0.063 C 
ATOM     32  C   UNL     1      -9.422   4.522  -0.513  0.00  0.00    +0.009 C 
ATOM     33  C   UNL     1      -9.332   4.558   1.927  0.00  0.00    +0.040 C 
ENDBRANCH  30  31
ENDBRANCH  28  30
ENDBRANCH   4  28
TORSDOF 7
