REMARK  Name = ZINC43726897
REMARK  9 active torsions:
REMARK  status: ('A' for Active; 'I' for Inactive)
REMARK    1  A    between atoms: C_1  and  C_2
REMARK    2  A    between atoms: C_2  and  C_4
REMARK    3  A    between atoms: C_2  and  C_9
REMARK    4  A    between atoms: C_4  and  C_5
REMARK    5  A    between atoms: C_5  and  C_6
REMARK    6  A    between atoms: C_15  and  C_41
REMARK    7  A    between atoms: C_16  and  C_38
REMARK    8  A    between atoms: C_28  and  C_37
REMARK    9  A    between atoms: C_31  and  C_34
REMARK                            x       y       z     vdW  Elec       q    Type
REMARK                         _______ _______ _______ _____ _____    ______ ____
ROOT
ATOM      1  C   UNL     1      -1.220  -0.079  -0.576  0.00  0.00    -0.001 C 
ATOM      2  C   UNL     1      -0.842  -1.573  -0.583  0.00  0.00    +0.005 C 
ATOM      3  C   UNL     1      -1.810  -2.230  -1.597  0.00  0.00    +0.005 C 
ATOM      4  C   UNL     1      -2.010  -1.122  -2.642  0.00  0.00    +0.006 C 
ATOM      5  C   UNL     1      -2.008   0.205  -1.884  0.00  0.00    -0.012 C 
ATOM      6  C   UNL     1      -3.408   0.648  -1.473  0.00  0.00    +0.109 C 
ATOM      7  C   UNL     1      -4.384   0.607  -2.638  0.00  0.00    +0.020 C 
ATOM      8  C   UNL     1      -4.501  -0.788  -3.242  0.00  0.00    +0.006 C 
ATOM      9  C   UNL     1      -3.147  -1.344  -3.595  0.00  0.00    +0.062 C 
ATOM     10  C   UNL     1      -3.248  -2.805  -3.969  0.00  0.00    +0.137 C 
ATOM     11  O   UNL     1      -2.718  -3.248  -4.956  0.00  0.00    -0.297 OA
ATOM     12  C   UNL     1      -4.053  -3.702  -3.050  0.00  0.00    +0.078 C 
ATOM     13  C   UNL     1      -5.466  -3.114  -2.965  0.00  0.00    +0.003 C 
ATOM     14  C   UNL     1      -5.449  -1.683  -2.455  0.00  0.00    -0.025 C 
ATOM     15  C   UNL     1      -5.162  -1.576  -0.969  0.00  0.00    +0.008 C 
ATOM     16  C   UNL     1      -5.993  -2.537  -0.126  0.00  0.00    +0.015 C 
ATOM     17  C   UNL     1      -5.828  -3.965  -0.646  0.00  0.00    +0.102 C 
ATOM     18  C   UNL     1      -6.329  -4.025  -2.088  0.00  0.00    +0.019 C 
ATOM     19  C   UNL     1      -6.873  -1.111  -2.691  0.00  0.00    +0.012 C 
ATOM     20  C   UNL     1      -1.304   1.304  -2.703  0.00  0.00    +0.012 C 
ENDROOT
BRANCH  17  21
ATOM     21  C   UNL     1      -6.636  -4.908   0.206  0.00  0.00    +0.359 C 
ATOM     22  O   UNL     1      -7.284  -4.478   1.145  0.00  0.00    -0.246 OA
ATOM     23  O   UNL     1      -6.641  -6.102  -0.041  0.00  0.00    -0.246 OA
ENDBRANCH  17  21
BRANCH   6  24
ATOM     24  C   UNL     1      -3.334   2.083  -0.988  0.00  0.00    +0.360 C 
ATOM     25  O   UNL     1      -4.208   2.877  -1.295  0.00  0.00    -0.246 OA
ATOM     26  O   UNL     1      -2.401   2.444  -0.291  0.00  0.00    -0.246 OA
ENDBRANCH   6  24
BRANCH   1  28
ATOM     27  C   UNL     1       0.578   0.832   0.902  0.00  0.00    +0.008 C 
ATOM     28  C   UNL     1       0.047   0.779  -0.532  0.00  0.00    -0.010 C 
BRANCH  28  29
ATOM     29  C   UNL     1       1.109   0.166  -1.447  0.00  0.00    +0.015 C 
BRANCH  29  30
ATOM     30  C   UNL     1       2.299   1.121  -1.557  0.00  0.00    +0.125 C 
BRANCH  30  31
ATOM     31  C   UNL     1       3.346   0.517  -2.458  0.00  0.00    +0.356 C 
ATOM     32  O   UNL     1       3.157  -0.576  -2.965  0.00  0.00    -0.246 OA
ATOM     33  O   UNL     1       4.381   1.121  -2.680  0.00  0.00    -0.246 OA
ENDBRANCH  30  31
ENDBRANCH  29  30
ENDBRANCH  28  29
ENDBRANCH   1  28
TORSDOF 6
