REMARK  Name = ZINC20082494
REMARK  10 active torsions:
REMARK  status: ('A' for Active; 'I' for Inactive)
REMARK    1  A    between atoms: C_1  and  C_2
REMARK    2  A    between atoms: C_2  and  C_3
REMARK    3  A    between atoms: C_10  and  C_15
REMARK    4  A    between atoms: C_15  and  C_17
REMARK    5  A    between atoms: C_15  and  N_27
REMARK    6  A    between atoms: N_21  and  C_22
REMARK    7  A    between atoms: N_27  and  C_28
REMARK    8  A    between atoms: N_27  and  C_36
REMARK    9  A    between atoms: C_28  and  C_29
REMARK   10  A    between atoms: C_36  and  C_37
REMARK                            x       y       z     vdW  Elec       q    Type
REMARK                         _______ _______ _______ _____ _____    ______ ____
ROOT
ATOM      1  C   UNL     1       1.473  -4.118  -1.579  0.00  0.00    +0.163 C 
ENDROOT
BRANCH   1   9
ATOM      2  C   UNL     1       4.578  -6.177  -6.519  0.00  0.00    -0.047 A 
ATOM      3  C   UNL     1       3.478  -6.294  -7.357  0.00  0.00    +0.005 A 
ATOM      4  C   UNL     1       2.215  -5.970  -6.910  0.00  0.00    +0.026 A 
ATOM      5  C   UNL     1       2.040  -5.518  -5.606  0.00  0.00    +0.049 A 
ATOM      6  C   UNL     1       3.158  -5.400  -4.759  0.00  0.00    -0.001 A 
ATOM      7  C   UNL     1       4.430  -5.736  -5.235  0.00  0.00    +0.013 A 
ATOM      8  C   UNL     1       2.965  -4.919  -3.390  0.00  0.00    +0.021 A 
ATOM      9  C   UNL     1       1.708  -4.612  -2.983  0.00  0.00    +0.042 A 
ATOM     10  C   UNL     1       0.620  -4.748  -3.872  0.00  0.00    +0.254 A 
ATOM     11  O   UNL     1      -0.501  -4.461  -3.488  0.00  0.00    -0.268 OA
ATOM     12  N   UNL     1       0.789  -5.185  -5.132  0.00  0.00    -0.322 N 
ATOM     13  H   UNL     1      -0.089  -5.275  -5.788  0.00  0.00    +0.169 HD
BRANCH   2  15
ATOM     14  C   UNL     1       6.219  -8.020  -6.761  0.00  0.00    +0.009 C 
ATOM     15  C   UNL     1       5.949  -6.539  -7.031  0.00  0.00    +0.032 C 
ENDBRANCH   2  15
ENDBRANCH   1   9
BRANCH   1  16
ATOM     16  C   UNL     1       0.614  -5.108  -0.836  0.00  0.00    +0.173 A 
ATOM     17  N   UNL     1      -0.695  -5.181  -0.859  0.00  0.00    -0.111 NA
ATOM     18  N   UNL     1      -1.053  -6.156  -0.097  0.00  0.00    -0.023 NA
ATOM     19  N   UNL     1      -0.007  -6.707   0.412  0.00  0.00    -0.044 NA
ATOM     20  N   UNL     1       1.041  -6.092  -0.024  0.00  0.00    -0.224 N 
BRANCH  20  21
ATOM     21  C   UNL     1       2.433  -6.405   0.306  0.00  0.00    +0.111 C 
ATOM     22  C   UNL     1       2.754  -7.863  -0.083  0.00  0.00    +0.027 C 
ATOM     23  C   UNL     1       3.696  -8.358   1.043  0.00  0.00    +0.002 C 
ATOM     24  C   UNL     1       3.098  -7.693   2.308  0.00  0.00    +0.002 C 
ATOM     25  C   UNL     1       2.652  -6.297   1.826  0.00  0.00    +0.027 C 
ENDBRANCH  20  21
ENDBRANCH   1  16
BRANCH   1  26
ATOM     26  N   UNL     1       0.793  -2.817  -1.625  0.00  0.00    -0.277 NA
BRANCH  26  27
ATOM     27  C   UNL     1       1.379  -1.952  -2.658  0.00  0.00    +0.121 C 
BRANCH  27  28
ATOM     28  C   UNL     1       0.512  -0.734  -2.846  0.00  0.00    -0.033 A 
ATOM     29  C   UNL     1       0.744   0.401  -2.092  0.00  0.00    +0.008 A 
ATOM     30  C   UNL     1      -0.051   1.519  -2.263  0.00  0.00    +0.038 A 
ATOM     31  C   UNL     1      -1.080   1.501  -3.190  0.00  0.00    +0.123 A 
ATOM     32  C   UNL     1      -1.311   0.363  -3.944  0.00  0.00    +0.038 A 
ATOM     33  C   UNL     1      -0.515  -0.754  -3.771  0.00  0.00    +0.008 A 
ATOM     34  F   UNL     1      -1.858   2.592  -3.358  0.00  0.00    -0.205 F 
ENDBRANCH  27  28
ENDBRANCH  26  27
BRANCH  26  35
ATOM     35  C   UNL     1       0.823  -2.161  -0.311  0.00  0.00    +0.160 C 
BRANCH  35  36
ATOM     36  C   UNL     1      -0.127  -2.865   0.624  0.00  0.00    +0.119 A 
ATOM     37  C   UNL     1       0.208  -3.803   1.527  0.00  0.00    +0.046 A 
ATOM     38  C   UNL     1      -0.985  -4.187   2.181  0.00  0.00    +0.041 A 
ATOM     39  C   UNL     1      -1.978  -3.461   1.638  0.00  0.00    +0.195 A 
ATOM     40  O   UNL     1      -1.452  -2.657   0.700  0.00  0.00    -0.467 OA
ENDBRANCH  35  36
ENDBRANCH  26  35
ENDBRANCH   1  26
TORSDOF 9
