REMARK  Name = ZINC13556451
REMARK  10 active torsions:
REMARK  status: ('A' for Active; 'I' for Inactive)
REMARK    1  A    between atoms: C_1  and  C_2
REMARK    2  A    between atoms: C_6  and  C_7
REMARK    3  A    between atoms: N_9  and  C_10
REMARK    4  A    between atoms: C_12  and  C_18
REMARK    5  A    between atoms: C_12  and  C_19
REMARK    6  A    between atoms: C_14  and  C_16
REMARK    7  A    between atoms: C_14  and  C_17
REMARK    8  A    between atoms: C_21  and  C_26
REMARK    9  A    between atoms: C_21  and  C_27
REMARK   10  A    between atoms: N_24  and  O_25
REMARK                            x       y       z     vdW  Elec       q    Type
REMARK                         _______ _______ _______ _____ _____    ______ ____
ROOT
ATOM      1  C   UNL     1       0.357  -0.198   2.506  0.00  0.00    +0.280 C 
ATOM      2  O   UNL     1       0.429   0.988   2.770  0.00  0.00    -0.267 OA
ATOM      3  N   UNL     1       0.322  -1.109   3.499  0.00  0.00    -0.306 N 
ATOM      4  H   UNL     1       0.265  -2.054   3.289  0.00  0.00    +0.149 HD
ENDROOT
BRANCH   1  10
ATOM      5  C   UNL     1       0.425   1.686   0.010  0.00  0.00    +0.048 C 
ATOM      6  C   UNL     1       0.339   0.181   0.012  0.00  0.00    +0.009 A 
ATOM      7  C   UNL     1       0.279  -0.659  -1.106  0.00  0.00    +0.044 A 
ATOM      8  C   UNL     1       0.208  -1.953  -0.647  0.00  0.00    +0.116 A 
ATOM      9  O   UNL     1       0.227  -1.919   0.683  0.00  0.00    -0.454 OA
ATOM     10  C   UNL     1       0.310  -0.637   1.106  0.00  0.00    +0.193 A 
ATOM     11  C   UNL     1       0.124  -3.146  -1.565  0.00  0.00    +0.081 C 
ATOM     12  C   UNL     1      -0.379  -2.696  -2.939  0.00  0.00    -0.023 C 
ATOM     13  C   UNL     1       0.472  -1.539  -3.474  0.00  0.00    +0.066 C 
ATOM     14  C   UNL     1       0.284  -0.343  -2.552  0.00  0.00    +0.091 C 
ATOM     15  N   UNL     1       0.138   0.862  -3.000  0.00  0.00    -0.091 NA
ATOM     16  C   UNL     1      -1.833  -2.237  -2.818  0.00  0.00    +0.011 C 
ATOM     17  C   UNL     1      -0.301  -3.872  -3.914  0.00  0.00    +0.011 C 
BRANCH  15  18
ATOM     18  O   UNL     1       0.151   1.105  -4.395  0.00  0.00    -0.409 OA
ATOM     19  H   UNL     1       0.035   2.035  -4.633  0.00  0.00    +0.328 HD
ENDBRANCH  15  18
ENDBRANCH   1  10
BRANCH   3  20
ATOM     20  C   UNL     1       0.369  -0.670   4.899  0.00  0.00    +0.071 C 
ATOM     21  C   UNL     1       1.829  -0.523   5.331  0.00  0.00    +0.009 C 
ATOM     22  C   UNL     1       1.895  -0.078   6.792  0.00  0.00    -0.072 C 
ATOM     23  N   UNL     1       1.141  -0.961   7.668  0.00  0.00    +0.386 N 
ATOM     24  C   UNL     1      -0.201  -1.339   7.254  0.00  0.00    -0.072 C 
ATOM     25  C   UNL     1      -0.288  -1.730   5.782  0.00  0.00    +0.009 C 
ATOM     26  C   UNL     1      -0.611  -2.580   8.083  0.00  0.00    -0.010 C 
ATOM     27  C   UNL     1      -1.220  -0.239   7.563  0.00  0.00    -0.010 C 
ATOM     28  C   UNL     1       3.378  -0.146   7.225  0.00  0.00    -0.010 C 
ATOM     29  C   UNL     1       1.452   1.379   6.921  0.00  0.00    -0.010 C 
ATOM     30  H   UNL     1       1.686  -1.815   7.811  0.00  0.00    -0.084 HD
ATOM     31  H   UNL     1       1.082  -0.523   8.591  0.00  0.00    -0.084 HD
ENDBRANCH   3  20
TORSDOF 3
