REMARK  Name = ZINC00661970
REMARK  5 active torsions:
REMARK  status: ('A' for Active; 'I' for Inactive)
REMARK    1  A    between atoms: C_1  and  C_2
REMARK    2  A    between atoms: C_2  and  C_3
REMARK    3  A    between atoms: C_11  and  N_27
REMARK    4  A    between atoms: C_12  and  C_16
REMARK    5  A    between atoms: C_16  and  C_18
REMARK                            x       y       z     vdW  Elec       q    Type
REMARK                         _______ _______ _______ _____ _____    ______ ____
ROOT
ATOM      1  C   UNL     1      -0.939   1.582  -1.255  0.00  0.00    -0.007 C 
ATOM      2  C   UNL     1      -0.164   1.062  -0.038  0.00  0.00    +0.010 C 
ATOM      3  C   UNL     1      -0.856   1.568   1.226  0.00  0.00    +0.056 C 
ATOM      4  C   UNL     1      -1.070   3.058   1.153  0.00  0.00    +0.046 A 
ATOM      5  C   UNL     1      -1.015   3.759  -0.038  0.00  0.00    -0.025 A 
ATOM      6  C   UNL     1      -1.233   5.123  -0.047  0.00  0.00    +0.017 A 
ATOM      7  C   UNL     1      -1.507   5.795   1.167  0.00  0.00    +0.029 A 
ATOM      8  C   UNL     1      -1.764   7.210   1.389  0.00  0.00    +0.052 A 
ATOM      9  C   UNL     1      -2.007   7.635   2.680  0.00  0.00    +0.083 A 
ATOM     10  S   UNL     1      -1.896   6.136   3.636  0.00  0.00    -0.064 S 
ATOM     11  C   UNL     1      -1.536   4.990   2.329  0.00  0.00    +0.111 A 
ATOM     12  N   UNL     1      -1.325   3.695   2.287  0.00  0.00    -0.244 NA
ATOM     13  C   UNL     1      -0.722   3.090  -1.356  0.00  0.00    +0.040 C 
ENDROOT
BRANCH   8  14
ATOM     14  N   UNL     1      -1.765   8.107   0.333  0.00  0.00    -0.356 N 
ATOM     15  H   UNL     1      -1.592   7.794  -0.569  0.00  0.00    +0.142 HD
ATOM     16  H   UNL     1      -1.938   9.047   0.495  0.00  0.00    +0.142 HD
ENDBRANCH   8  14
BRANCH   1  18
ATOM     17  C   UNL     1      -1.281   1.329  -3.717  0.00  0.00    +0.004 C 
ATOM     18  C   UNL     1      -0.424   0.901  -2.524  0.00  0.00    +0.000 C 
ENDBRANCH   1  18
BRANCH   9  19
ATOM     19  C   UNL     1      -2.279   8.948   3.135  0.00  0.00    +0.202 C 
ATOM     20  O   UNL     1      -2.200   9.888   2.364  0.00  0.00    -0.286 OA
BRANCH  19  21
ATOM     21  C   UNL     1      -2.657   9.178   4.544  0.00  0.00    +0.027 A 
ATOM     22  C   UNL     1      -3.232   8.147   5.292  0.00  0.00    +0.015 A 
ATOM     23  C   UNL     1      -3.579   8.361   6.608  0.00  0.00    +0.050 A 
ATOM     24  C   UNL     1      -3.371   9.604   7.192  0.00  0.00    +0.166 A 
ATOM     25  C   UNL     1      -2.803  10.639   6.449  0.00  0.00    +0.167 A 
ATOM     26  C   UNL     1      -2.447  10.428   5.131  0.00  0.00    +0.061 A 
ATOM     27  O   UNL     1      -2.706  11.744   7.245  0.00  0.00    -0.453 OA
ATOM     28  C   UNL     1      -2.840  11.259   8.594  0.00  0.00    +0.466 C 
ATOM     29  O   UNL     1      -3.628  10.063   8.450  0.00  0.00    -0.453 OA
ENDBRANCH  19  21
ENDBRANCH   9  19
TORSDOF 4
