REMARK  Name = ZINC48797511
REMARK  7 active torsions:
REMARK  status: ('A' for Active; 'I' for Inactive)
REMARK    1  A    between atoms: C_1  and  C_2
REMARK    2  A    between atoms: C_3  and  N_12
REMARK    3  A    between atoms: C_7  and  S_8
REMARK    4  A    between atoms: S_8  and  N_11
REMARK    5  A    between atoms: N_12  and  C_13
REMARK    6  A    between atoms: C_13  and  C_14
REMARK    7  A    between atoms: C_19  and  O_20
REMARK                            x       y       z     vdW  Elec       q    Type
REMARK                         _______ _______ _______ _____ _____    ______ ____
ROOT
ATOM      1  C   UNL     1      -0.018   1.503   0.010  0.00  0.00    +0.048 C 
ATOM      2  C   UNL     1       0.002  -0.004   0.002  0.00  0.00    -0.003 A 
ATOM      3  C   UNL     1       0.006  -0.693  -1.204  0.00  0.00    +0.032 A 
ATOM      4  C   UNL     1       0.025  -2.082  -1.208  0.00  0.00    +0.023 A 
ATOM      5  C   UNL     1       0.041  -2.773  -0.012  0.00  0.00    +0.004 A 
ATOM      6  C   UNL     1       0.037  -2.085   1.187  0.00  0.00    +0.029 A 
ATOM      7  C   UNL     1       0.023  -0.702   1.194  0.00  0.00    +0.110 A 
ENDROOT
BRANCH   7   8
ATOM      8  S   UNL     1       0.025   0.171   2.724  0.00  0.00    +0.056 S 
ATOM      9  O   UNL     1      -1.015   1.136   2.643  0.00  0.00    -0.153 OA
ATOM     10  O   UNL     1       0.075  -0.810   3.751  0.00  0.00    -0.153 OA
BRANCH   8  11
ATOM     11  N   UNL     1       1.448   1.014   2.805  0.00  0.00    -0.204 NA
ATOM     12  H   UNL     1       2.087   0.958   2.078  0.00  0.00    +0.144 HD
ATOM     13  H   UNL     1       1.642   1.565   3.580  0.00  0.00    +0.144 HD
ENDBRANCH   8  11
ENDBRANCH   7   8
BRANCH   3  14
ATOM     14  N   UNL     1      -0.010   0.010  -2.412  0.00  0.00    -0.339 N 
ATOM     15  H   UNL     1      -0.024   0.980  -2.408  0.00  0.00    +0.146 HD
BRANCH  14  16
ATOM     16  C   UNL     1      -0.006  -0.718  -3.683  0.00  0.00    +0.140 C 
BRANCH  16  17
ATOM     17  C   UNL     1      -0.026   0.265  -4.825  0.00  0.00    +0.012 A 
ATOM     18  C   UNL     1      -1.213   0.546  -5.475  0.00  0.00    +0.009 A 
ATOM     19  C   UNL     1      -1.232   1.448  -6.522  0.00  0.00    +0.002 A 
ATOM     20  C   UNL     1      -0.065   2.071  -6.923  0.00  0.00    +0.019 A 
ATOM     21  C   UNL     1       1.125   1.794  -6.276  0.00  0.00    +0.060 A 
ATOM     22  C   UNL     1       1.146   0.892  -5.221  0.00  0.00    +0.135 A 
ATOM     23 BR   UNL     1       2.721   2.646  -6.824  0.00  0.00    -0.047 Br
BRANCH  22  24
ATOM     24  O   UNL     1       2.313   0.622  -4.579  0.00  0.00    -0.505 OA
ATOM     25  H   UNL     1       2.811  -0.114  -4.962  0.00  0.00    +0.292 HD
ENDBRANCH  22  24
ENDBRANCH  16  17
ENDBRANCH  14  16
ENDBRANCH   3  14
TORSDOF 6
