REMARK  Name = ZINC09329519
REMARK  4 active torsions:
REMARK  status: ('A' for Active; 'I' for Inactive)
REMARK    1  A    between atoms: C_8  and  C_26
REMARK    2  A    between atoms: C_10  and  C_17
REMARK    3  A    between atoms: C_21  and  N_23
REMARK    4  A    between atoms: C_26  and  C_28
REMARK                            x       y       z     vdW  Elec       q    Type
REMARK                         _______ _______ _______ _____ _____    ______ ____
ROOT
ATOM      1  C   UNL     1       8.254  -2.150  -1.075  0.00  0.00    +0.000 A 
ATOM      2  C   UNL     1       8.607  -2.907  -2.177  0.00  0.00    +0.002 A 
ATOM      3  C   UNL     1       7.653  -3.639  -2.854  0.00  0.00    +0.023 A 
ATOM      4  C   UNL     1       6.326  -3.622  -2.431  0.00  0.00    +0.036 A 
ATOM      5  C   UNL     1       5.982  -2.855  -1.321  0.00  0.00    -0.027 A 
ATOM      6  C   UNL     1       6.938  -2.127  -0.649  0.00  0.00    +0.004 A 
ATOM      7  C   UNL     1       4.504  -3.047  -1.132  0.00  0.00    +0.052 C 
ATOM      8  C   UNL     1       3.748  -1.714  -1.211  0.00  0.00    +0.069 C 
ATOM      9  C   UNL     1       3.672  -1.238   0.258  0.00  0.00    +0.016 C 
ATOM     10  C   UNL     1       4.051  -2.462   1.095  0.00  0.00    -0.047 C 
ATOM     11  C   UNL     1       2.947  -4.408   0.066  0.00  0.00    -0.005 C 
ATOM     12  S   UNL     1       2.123  -4.145   1.687  0.00  0.00    -0.181 S 
ATOM     13  C   UNL     1       3.084  -2.685   2.262  0.00  0.00    +0.052 C 
ATOM     14  C   UNL     1       4.087  -3.984  -2.232  0.00  0.00    +0.212 C 
ATOM     15  O   UNL     1       2.968  -4.402  -2.442  0.00  0.00    -0.277 OA
ATOM     16  N   UNL     1       5.197  -4.268  -2.940  0.00  0.00    -0.286 N 
ATOM     17  H   UNL     1       5.212  -4.853  -3.713  0.00  0.00    +0.155 HD
ATOM     18  N   UNL     1       4.205  -3.597   0.169  0.00  0.00    +0.401 N 
ATOM     19  H   UNL     1       4.973  -4.199   0.487  0.00  0.00    -0.078 HD
ENDROOT
BRANCH   9  20
ATOM     20  C   UNL     1       2.273  -0.789   0.592  0.00  0.00    -0.043 A 
ATOM     21  C   UNL     1       1.271  -1.724   0.772  0.00  0.00    +0.004 A 
ATOM     22  C   UNL     1      -0.012  -1.311   1.077  0.00  0.00    +0.002 A 
ATOM     23  C   UNL     1      -0.293   0.037   1.203  0.00  0.00    +0.033 A 
ATOM     24  C   UNL     1       0.709   0.971   1.024  0.00  0.00    +0.126 A 
ATOM     25  C   UNL     1       1.992   0.559   0.717  0.00  0.00    +0.036 A 
BRANCH  24  26
ATOM     26  N   UNL     1       0.408   2.414   1.159  0.00  0.00    +0.056 N 
ATOM     27  O   UNL     1      -0.723   2.778   1.428  0.00  0.00    -0.126 OA
ATOM     28  O   UNL     1       1.291   3.238   1.001  0.00  0.00    -0.126 OA
ENDBRANCH  24  26
ENDBRANCH   9  20
BRANCH   8  29
ATOM     29  C   UNL     1       2.364  -1.925  -1.768  0.00  0.00    +0.168 C 
ATOM     30  O   UNL     1       1.622  -2.738  -1.260  0.00  0.00    -0.292 OA
BRANCH  29  31
ATOM     31  C   UNL     1       1.912  -1.144  -2.931  0.00  0.00    +0.036 A 
ATOM     32  C   UNL     1       0.628  -1.335  -3.464  0.00  0.00    +0.014 A 
ATOM     33  C   UNL     1       0.252  -0.571  -4.554  0.00  0.00    +0.020 A 
ATOM     34  C   UNL     1       1.148   0.340  -5.085  0.00  0.00    +0.111 A 
ATOM     35  N   UNL     1       2.352   0.495  -4.567  0.00  0.00    -0.263 NA
ATOM     36  C   UNL     1       2.757  -0.203  -3.528  0.00  0.00    +0.122 A 
ENDBRANCH  29  31
ENDBRANCH   8  29
TORSDOF 4
