REMARK  Name = ZINC35067076
REMARK  17 active torsions:
REMARK  status: ('A' for Active; 'I' for Inactive)
REMARK    1  A    between atoms: C_1  and  C_2
REMARK    2  A    between atoms: C_2  and  C_3
REMARK    3  A    between atoms: C_3  and  C_4
REMARK    4  A    between atoms: C_4  and  C_5
REMARK    5  A    between atoms: C_5  and  C_7
REMARK    6  A    between atoms: C_5  and  C_9
REMARK    7  A    between atoms: C_7  and  C_8
REMARK    8  A    between atoms: N_11  and  C_12
REMARK    9  A    between atoms: N_11  and  C_17
REMARK   10  A    between atoms: C_12  and  C_13
REMARK   11  A    between atoms: C_13  and  N_14
REMARK   12  A    between atoms: N_14  and  C_15
REMARK   13  A    between atoms: N_14  and  C_16
REMARK   14  A    between atoms: C_17  and  C_19
REMARK   15  A    between atoms: C_17  and  C_21
REMARK   16  A    between atoms: C_19  and  C_20
REMARK   17  A    between atoms: N_31  and  C_32
REMARK                            x       y       z     vdW  Elec       q    Type
REMARK                         _______ _______ _______ _____ _____    ______ ____
ROOT
ATOM      1  C   UNL     1      -3.606  -5.139  -0.817  0.00  0.00    +0.142 C 
ENDROOT
BRANCH   1   2
ATOM      2  C   UNL     1      -4.402  -5.530   0.401  0.00  0.00    +0.138 A 
ATOM      3  N   UNL     1      -5.606  -5.059   0.527  0.00  0.00    -0.231 NA
ATOM      4  C   UNL     1      -6.381  -5.368   1.596  0.00  0.00    +0.078 A 
ATOM      5  C   UNL     1      -7.676  -4.862   1.733  0.00  0.00    +0.028 A 
ATOM      6  C   UNL     1      -8.428  -5.202   2.834  0.00  0.00    +0.002 A 
ATOM      7  C   UNL     1      -7.917  -6.043   3.814  0.00  0.00    +0.001 A 
ATOM      8  C   UNL     1      -6.642  -6.554   3.702  0.00  0.00    +0.015 A 
ATOM      9  C   UNL     1      -5.864  -6.223   2.595  0.00  0.00    +0.065 A 
ATOM     10  C   UNL     1      -4.498  -6.739   2.422  0.00  0.00    +0.266 A 
ATOM     11  O   UNL     1      -3.994  -7.481   3.245  0.00  0.00    -0.267 OA
ATOM     12  N   UNL     1      -3.826  -6.363   1.309  0.00  0.00    -0.263 N 
BRANCH  12  13
ATOM     13  C   UNL     1      -2.523  -6.831   1.094  0.00  0.00    +0.051 A 
ATOM     14  C   UNL     1      -1.488  -6.412   1.920  0.00  0.00    +0.029 A 
ATOM     15  C   UNL     1      -0.205  -6.874   1.706  0.00  0.00    +0.040 A 
ATOM     16  C   UNL     1       0.051  -7.755   0.669  0.00  0.00    +0.124 A 
ATOM     17  C   UNL     1      -0.979  -8.174  -0.157  0.00  0.00    +0.040 A 
ATOM     18  C   UNL     1      -2.265  -7.718   0.057  0.00  0.00    +0.029 A 
ATOM     19  F   UNL     1       1.307  -8.207   0.461  0.00  0.00    -0.205 F 
ENDBRANCH  12  13
ENDBRANCH   1   2
BRANCH   1  22
ATOM     20  C   UNL     1      -2.099  -3.232  -0.638  0.00  0.00    +0.219 C 
ATOM     21  O   UNL     1      -1.901  -2.041  -0.528  0.00  0.00    -0.275 OA
ATOM     22  N   UNL     1      -3.355  -3.696  -0.794  0.00  0.00    -0.293 N 
BRANCH  20  23
ATOM     23  C   UNL     1      -0.940  -4.195  -0.600  0.00  0.00    +0.075 C 
BRANCH  23  24
ATOM     24  C   UNL     1      -0.731  -4.796  -1.992  0.00  0.00    +0.009 C 
ATOM     25  C   UNL     1      -0.493  -3.672  -3.002  0.00  0.00    +0.004 C 
ENDBRANCH  23  24
BRANCH  23  26
ATOM     26  C   UNL     1       0.327  -3.451  -0.171  0.00  0.00    +0.013 C 
BRANCH  26  27
ATOM     27  C   UNL     1       1.469  -4.453   0.011  0.00  0.00    +0.000 C 
BRANCH  27  29
ATOM     28  C   UNL     1       3.905  -4.701   0.509  0.00  0.00    +0.004 C 
ATOM     29  C   UNL     1       2.762  -3.699   0.328  0.00  0.00    -0.003 C 
ENDBRANCH  27  29
ENDBRANCH  26  27
ENDBRANCH  23  26
ENDBRANCH  20  23
BRANCH  22  30
ATOM     30  C   UNL     1      -4.469  -2.756  -0.940  0.00  0.00    +0.090 C 
BRANCH  30  31
ATOM     31  C   UNL     1      -4.587  -2.329  -2.404  0.00  0.00    -0.060 C 
BRANCH  31  32
ATOM     32  N   UNL     1      -5.705  -1.387  -2.551  0.00  0.00    +0.377 N 
ATOM     33  C   UNL     1      -5.744  -0.884  -3.931  0.00  0.00    -0.097 C 
ATOM     34  C   UNL     1      -6.967  -2.072  -2.244  0.00  0.00    -0.097 C 
ATOM     35  H   UNL     1      -5.579  -0.613  -1.915  0.00  0.00    -0.083 HD
ENDBRANCH  31  32
ENDBRANCH  30  31
ENDBRANCH  22  30
ENDBRANCH   1  22
BRANCH   1  36
ATOM     36  C   UNL     1      -4.392  -5.500  -2.079  0.00  0.00    +0.027 C 
ATOM     37  C   UNL     1      -3.524  -5.243  -3.312  0.00  0.00    +0.006 C 
ENDBRANCH   1  36
TORSDOF 12
