REMARK  Name = ZINC13255174
REMARK  14 active torsions:
REMARK  status: ('A' for Active; 'I' for Inactive)
REMARK    1  A    between atoms: C_1  and  C_2
REMARK    2  A    between atoms: C_2  and  N_3
REMARK    3  A    between atoms: N_3  and  C_4
REMARK    4  A    between atoms: N_3  and  S_6
REMARK    5  A    between atoms: C_4  and  C_5
REMARK    6  A    between atoms: S_6  and  C_9
REMARK    7  A    between atoms: C_12  and  O_27
REMARK    8  A    between atoms: C_13  and  N_15
REMARK    9  A    between atoms: C_16  and  C_18
REMARK   10  A    between atoms: C_18  and  C_19
REMARK   11  A    between atoms: C_19  and  C_25
REMARK   12  A    between atoms: O_27  and  C_28
REMARK   13  A    between atoms: C_28  and  C_29
REMARK   14  A    between atoms: C_28  and  C_30
REMARK                            x       y       z     vdW  Elec       q    Type
REMARK                         _______ _______ _______ _____ _____    ______ ____
ROOT
ATOM      1  C   UNL     1      -1.184   2.887   0.039  0.00  0.00    +0.107 A 
ATOM      2  C   UNL     1      -1.016   1.515  -0.002  0.00  0.00    +0.032 A 
ATOM      3  C   UNL     1       0.254   0.969   0.016  0.00  0.00    +0.049 A 
ATOM      4  C   UNL     1       1.363   1.797   0.064  0.00  0.00    +0.142 A 
ATOM      5  C   UNL     1       1.196   3.179   0.100  0.00  0.00    +0.077 A 
ATOM      6  C   UNL     1      -0.082   3.720   0.087  0.00  0.00    +0.055 A 
ENDROOT
BRANCH   5   7
ATOM      7  N   UNL     1       2.314   4.022   0.149  0.00  0.00    -0.283 N 
ATOM      8  C   UNL     1       2.259   5.176   0.842  0.00  0.00    +0.218 C 
ATOM      9  O   UNL     1       1.218   5.524   1.359  0.00  0.00    -0.275 OA
ATOM     10  H   UNL     1       3.129   3.774  -0.317  0.00  0.00    +0.155 HD
BRANCH   8  11
ATOM     11  C   UNL     1       3.490   6.035   0.975  0.00  0.00    +0.114 C 
BRANCH  11  12
ATOM     12  C   UNL     1       3.192   7.213   1.905  0.00  0.00    +0.080 C 
ATOM     13  C   UNL     1       4.406   8.143   1.955  0.00  0.00    +0.019 C 
ATOM     14  C   UNL     1       5.619   7.372   2.480  0.00  0.00    +0.001 C 
ATOM     15  C   UNL     1       5.319   6.849   3.887  0.00  0.00    +0.000 C 
ATOM     16  C   UNL     1       4.106   5.918   3.837  0.00  0.00    +0.001 C 
ATOM     17  C   UNL     1       2.893   6.689   3.311  0.00  0.00    +0.019 C 
BRANCH  12  18
ATOM     18  C   UNL     1       1.998   7.972   1.387  0.00  0.00    +0.362 C 
ATOM     19  O   UNL     1       1.046   8.164   2.106  0.00  0.00    -0.246 OA
ATOM     20  O   UNL     1       1.992   8.435   0.127  0.00  0.00    -0.246 OA
ENDBRANCH  12  18
ENDBRANCH  11  12
ENDBRANCH   8  11
ENDBRANCH   5   7
BRANCH   1  21
ATOM     21  S   UNL     1      -2.806   3.575   0.022  0.00  0.00    +0.061 S 
ATOM     22  O   UNL     1      -3.678   2.573   0.525  0.00  0.00    -0.153 OA
ATOM     23  O   UNL     1      -2.706   4.864   0.612  0.00  0.00    -0.153 OA
BRANCH  21  24
ATOM     24  N   UNL     1      -3.221   3.811  -1.564  0.00  0.00    -0.177 NA
BRANCH  24  26
ATOM     25  C   UNL     1      -5.411   2.976  -2.260  0.00  0.00    +0.022 C 
ATOM     26  C   UNL     1      -3.899   2.748  -2.310  0.00  0.00    +0.106 C 
ENDBRANCH  24  26
BRANCH  24  27
ATOM     27  C   UNL     1      -2.909   5.083  -2.221  0.00  0.00    +0.106 C 
ATOM     28  C   UNL     1      -1.579   4.959  -2.968  0.00  0.00    +0.022 C 
ENDBRANCH  24  27
ENDBRANCH  21  24
ENDBRANCH   1  21
BRANCH   4  29
ATOM     29  O   UNL     1       2.613   1.262   0.076  0.00  0.00    -0.488 OA
BRANCH  29  30
ATOM     30  C   UNL     1       2.709  -0.161   0.176  0.00  0.00    +0.167 C 
ATOM     31  C   UNL     1       2.806  -0.765  -1.227  0.00  0.00    +0.051 C 
ATOM     32  C   UNL     1       3.956  -0.533   0.979  0.00  0.00    +0.051 C 
ENDBRANCH  29  30
ENDBRANCH   4  29
TORSDOF 10
