REMARK  Name = ZINC19810459
REMARK  8 active torsions:
REMARK  status: ('A' for Active; 'I' for Inactive)
REMARK    1  A    between atoms: C_1  and  C_2
REMARK    2  A    between atoms: C_2  and  C_3
REMARK    3  A    between atoms: C_3  and  N_4
REMARK    4  A    between atoms: C_7  and  C_9
REMARK    5  A    between atoms: C_18  and  N_22
REMARK    6  A    between atoms: N_22  and  C_23
REMARK    7  A    between atoms: C_23  and  C_24
REMARK    8  A    between atoms: C_24  and  N_29
REMARK                            x       y       z     vdW  Elec       q    Type
REMARK                         _______ _______ _______ _____ _____    ______ ____
ROOT
ATOM      1  N   UNL     1      -3.031   2.376   1.069  0.00  0.00    -0.267 N 
ATOM      2  C   UNL     1      -2.498   3.572   0.767  0.00  0.00    +0.043 A 
ATOM      3  C   UNL     1      -1.151   3.423   0.769  0.00  0.00    +0.004 A 
ATOM      4  C   UNL     1      -0.912   2.073   1.075  0.00  0.00    +0.151 A 
ATOM      5  N   UNL     1      -2.095   1.508   1.246  0.00  0.00    -0.166 NA
ATOM      6  C   UNL     1      -0.169   4.527   0.488  0.00  0.00    +0.023 C 
ATOM      7  C   UNL     1      -0.903   5.869   0.618  0.00  0.00    -0.067 C 
ATOM      8  C   UNL     1      -2.200   5.822  -0.195  0.00  0.00    -0.009 C 
ATOM      9  C   UNL     1      -3.199   4.874   0.475  0.00  0.00    +0.054 C 
ENDROOT
BRANCH   4  10
ATOM     10  C   UNL     1       0.405   1.414   1.190  0.00  0.00    +0.267 C 
ATOM     11  O   UNL     1       1.424   2.073   1.110  0.00  0.00    -0.268 OA
ATOM     12  N   UNL     1       0.478   0.081   1.379  0.00  0.00    -0.292 N 
ATOM     13  C   UNL     1      -0.738  -0.721   1.592  0.00  0.00    +0.136 C 
ATOM     14  C   UNL     1      -0.703  -1.910   0.619  0.00  0.00    +0.179 C 
ATOM     15  O   UNL     1       0.543  -2.597   0.761  0.00  0.00    -0.377 OA
ATOM     16  C   UNL     1       1.687  -1.808   0.426  0.00  0.00    +0.179 C 
ATOM     17  C   UNL     1       1.775  -0.614   1.384  0.00  0.00    +0.136 C 
ENDBRANCH   4  10
BRANCH   7  18
ATOM     18  N   UNL     1      -0.045   6.947   0.109  0.00  0.00    +0.382 N 
ATOM     19  H   UNL     1       1.006   6.723   0.345  0.00  0.00    -0.085 HD
ATOM     20  H   UNL     1      -0.166   7.028  -0.982  0.00  0.00    -0.085 HD
BRANCH  18  21
ATOM     21  C   UNL     1      -0.401   8.235   0.719  0.00  0.00    -0.060 C 
BRANCH  21  22
ATOM     22  C   UNL     1       0.473   9.340   0.123  0.00  0.00    +0.007 C 
ATOM     23  C   UNL     1       0.225   9.449  -1.396  0.00  0.00    +0.020 C 
ATOM     24  C   UNL     1       1.623   9.763  -1.987  0.00  0.00    +0.002 C 
ATOM     25  C   UNL     1       2.566   8.898  -1.114  0.00  0.00    +0.002 C 
ATOM     26  C   UNL     1       1.961   8.991   0.302  0.00  0.00    +0.020 C 
BRANCH  22  27
ATOM     27  N   UNL     1       0.176  10.623   0.775  0.00  0.00    -0.294 NA
ATOM     28  C   UNL     1       0.532  10.584   2.201  0.00  0.00    +0.113 C 
ATOM     29  C   UNL     1       0.262  11.956   2.826  0.00  0.00    +0.175 C 
ATOM     30  O   UNL     1      -1.109  12.307   2.619  0.00  0.00    -0.377 OA
ATOM     31  C   UNL     1      -1.490  12.354   1.242  0.00  0.00    +0.175 C 
ATOM     32  C   UNL     1      -1.238  10.987   0.601  0.00  0.00    +0.113 C 
ENDBRANCH  22  27
ENDBRANCH  21  22
ENDBRANCH  18  21
ENDBRANCH   7  18
BRANCH   1  33
ATOM     33  C   UNL     1      -4.465   2.100   1.181  0.00  0.00    +0.143 C 
BRANCH  33  35
ATOM     34  C   UNL     1      -6.418   2.048   2.739  0.00  0.00    +0.005 C 
ATOM     35  C   UNL     1      -4.920   2.337   2.622  0.00  0.00    +0.020 C 
ENDBRANCH  33  35
ENDBRANCH   1  33
TORSDOF 7
