REMARK  Name = ZINC39352988
REMARK  6 active torsions:
REMARK  status: ('A' for Active; 'I' for Inactive)
REMARK    1  A    between atoms: C_1  and  O_2
REMARK    2  A    between atoms: O_2  and  C_3
REMARK    3  A    between atoms: C_3  and  C_5
REMARK    4  A    between atoms: C_6  and  N_21
REMARK    5  A    between atoms: C_9  and  C_10
REMARK    6  A    between atoms: N_21  and  C_22
REMARK                            x       y       z     vdW  Elec       q    Type
REMARK                         _______ _______ _______ _____ _____    ______ ____
ROOT
ATOM      1  C   UNL     1      -1.255  -2.069   0.226  0.00  0.00    +0.134 C 
ATOM      2  C   UNL     1      -2.478  -2.719   0.021  0.00  0.00    +0.088 C 
ATOM      3  S   UNL     1      -2.023  -4.423  -0.232  0.00  0.00    -0.069 S 
ATOM      4  C   UNL     1      -0.254  -4.274  -0.069  0.00  0.00    +0.062 C 
ATOM      5  C   UNL     1       0.709  -5.256  -0.160  0.00  0.00    +0.025 C 
ATOM      6  C   UNL     1      -0.081  -2.824   0.184  0.00  0.00    +0.209 C 
ATOM      7  O   UNL     1       1.017  -2.323   0.349  0.00  0.00    -0.286 OA
ENDROOT
BRANCH   5   8
ATOM      8  C   UNL     1       0.336  -6.580  -0.413  0.00  0.00    -0.018 C 
ATOM      9  C   UNL     1       1.175  -7.685  -0.529  0.00  0.00    +0.003 A 
ATOM     10  C   UNL     1       2.577  -7.833  -0.439  0.00  0.00    +0.010 A 
ATOM     11  C   UNL     1       3.136  -9.059  -0.599  0.00  0.00    +0.001 A 
ATOM     12  C   UNL     1       2.357 -10.194  -0.854  0.00  0.00    +0.002 A 
ATOM     13  C   UNL     1       1.009 -10.129  -0.954  0.00  0.00    +0.026 A 
ATOM     14  C   UNL     1       0.349  -8.878  -0.797  0.00  0.00    +0.043 A 
ATOM     15  N   UNL     1      -0.922  -8.554  -0.848  0.00  0.00    -0.380 N 
ATOM     16  C   UNL     1      -1.066  -7.114  -0.612  0.00  0.00    +0.149 C 
ATOM     17  H   UNL     1      -1.652  -9.171  -1.012  0.00  0.00    +0.160 HD
ENDBRANCH   5   8
BRANCH   1  18
ATOM     18  C   UNL     1      -1.208  -0.672   0.465  0.00  0.00    +0.345 C 
ATOM     19  O   UNL     1      -2.238  -0.026   0.498  0.00  0.00    -0.245 OA
BRANCH  18  21
ATOM     20  C   UNL     1      -0.049   1.349   0.892  0.00  0.00    +0.280 C 
ATOM     21  O   UNL     1      -0.021  -0.060   0.656  0.00  0.00    -0.464 OA
ENDBRANCH  18  21
ENDBRANCH   1  18
BRANCH   2  22
ATOM     22  N   UNL     1      -3.729  -2.173   0.016  0.00  0.00    -0.308 N 
ATOM     23  H   UNL     1      -3.839  -1.212   0.085  0.00  0.00    +0.153 HD
BRANCH  22  24
ATOM     24  C   UNL     1      -4.852  -2.999  -0.088  0.00  0.00    +0.032 A 
ATOM     25  C   UNL     1      -4.847  -4.257   0.501  0.00  0.00    +0.026 A 
ATOM     26  C   UNL     1      -5.957  -5.072   0.396  0.00  0.00    +0.040 A 
ATOM     27  C   UNL     1      -7.075  -4.636  -0.295  0.00  0.00    +0.124 A 
ATOM     28  C   UNL     1      -7.082  -3.382  -0.884  0.00  0.00    +0.040 A 
ATOM     29  C   UNL     1      -5.976  -2.561  -0.776  0.00  0.00    +0.026 A 
ATOM     30  F   UNL     1      -8.160  -5.434  -0.397  0.00  0.00    -0.205 F 
ENDBRANCH  22  24
ENDBRANCH   2  22
TORSDOF 5
