REMARK  Name = ZINC20519131
REMARK  5 active torsions:
REMARK  status: ('A' for Active; 'I' for Inactive)
REMARK    1  A    between atoms: C_1  and  C_2
REMARK    2  A    between atoms: C_5  and  C_8
REMARK    3  A    between atoms: C_8  and  C_10
REMARK    4  A    between atoms: C_12  and  C_30
REMARK    5  A    between atoms: C_33  and  N_36
REMARK                            x       y       z     vdW  Elec       q    Type
REMARK                         _______ _______ _______ _____ _____    ______ ____
ROOT
ATOM      1  C   UNL     1      -0.070   2.487  -0.904  0.00  0.00    +0.103 C 
ATOM      2  C   UNL     1      -1.069   1.337  -0.590  0.00  0.00    +0.050 C 
ATOM      3  C   UNL     1      -1.331   1.514   0.922  0.00  0.00    +0.077 C 
ATOM      4  C   UNL     1      -2.705   2.198   1.101  0.00  0.00    +0.090 C 
ATOM      5  S   UNL     1      -2.329   3.308   2.529  0.00  0.00    -0.144 S 
ATOM      6  C   UNL     1      -0.543   3.547   2.151  0.00  0.00    +0.155 C 
ATOM      7  N   UNL     1      -0.202   2.268   1.480  0.00  0.00    -0.271 NA
ATOM      8  C   UNL     1       0.759   2.518   0.395  0.00  0.00    +0.137 C 
ATOM      9  C   UNL     1       1.468   3.830   0.560  0.00  0.00    +0.004 A 
ATOM     10  C   UNL     1       1.040   5.136   0.653  0.00  0.00    +0.008 A 
ATOM     11  C   UNL     1       1.960   6.158   0.806  0.00  0.00    +0.000 A 
ATOM     12  C   UNL     1       3.311   5.865   0.865  0.00  0.00    +0.002 A 
ATOM     13  C   UNL     1       3.744   4.559   0.772  0.00  0.00    +0.023 A 
ATOM     14  C   UNL     1       2.825   3.524   0.618  0.00  0.00    +0.039 A 
ATOM     15  N   UNL     1       3.014   2.145   0.503  0.00  0.00    -0.283 N 
ATOM     16  C   UNL     1       1.849   1.482   0.367  0.00  0.00    +0.243 C 
ATOM     17  O   UNL     1       1.707   0.284   0.247  0.00  0.00    -0.273 OA
ATOM     18  H   UNL     1       4.031   1.726   0.529  0.00  0.00    +0.155 HD
ENDROOT
BRANCH   2  19
ATOM     19  C   UNL     1      -2.344   1.508  -1.376  0.00  0.00    -0.042 A 
ATOM     20  C   UNL     1      -3.218   0.447  -1.514  0.00  0.00    +0.006 A 
ATOM     21  C   UNL     1      -4.390   0.606  -2.231  0.00  0.00    +0.033 A 
ATOM     22  C   UNL     1      -4.681   1.823  -2.818  0.00  0.00    +0.126 A 
ATOM     23  C   UNL     1      -3.804   2.883  -2.684  0.00  0.00    +0.033 A 
ATOM     24  C   UNL     1      -2.635   2.725  -1.963  0.00  0.00    +0.006 A 
BRANCH  22  25
ATOM     25  N   UNL     1      -5.934   1.992  -3.589  0.00  0.00    +0.056 N 
ATOM     26  O   UNL     1      -6.191   3.064  -4.105  0.00  0.00    -0.126 OA
ATOM     27  O   UNL     1      -6.707   1.058  -3.707  0.00  0.00    -0.126 OA
ENDBRANCH  22  25
ENDBRANCH   2  19
BRANCH   1  28
ATOM     28  C   UNL     1       0.794   2.146  -2.091  0.00  0.00    +0.169 C 
ATOM     29  O   UNL     1       1.021   0.987  -2.363  0.00  0.00    -0.292 OA
BRANCH  28  34
ATOM     30  C   UNL     1       3.012   6.346  -5.331  0.00  0.00    +0.044 C 
ATOM     31  C   UNL     1       2.430   5.245  -4.482  0.00  0.00    -0.050 A 
ATOM     32  C   UNL     1       2.794   3.930  -4.715  0.00  0.00    +0.004 A 
ATOM     33  C   UNL     1       2.267   2.917  -3.943  0.00  0.00    +0.011 A 
ATOM     34  C   UNL     1       1.362   3.221  -2.921  0.00  0.00    +0.018 A 
ATOM     35  C   UNL     1       0.994   4.551  -2.695  0.00  0.00    +0.011 A 
ATOM     36  C   UNL     1       1.535   5.554  -3.472  0.00  0.00    +0.004 A 
ENDBRANCH  28  34
ENDBRANCH   1  28
TORSDOF 4
