REMARK  Name = ZINC12901717
REMARK  6 active torsions:
REMARK  status: ('A' for Active; 'I' for Inactive)
REMARK    1  A    between atoms: C_1  and  C_2
REMARK    2  A    between atoms: C_5  and  N_8
REMARK    3  A    between atoms: C_13  and  C_37
REMARK    4  A    between atoms: C_37  and  C_38
REMARK    5  A    between atoms: C_38  and  C_39
REMARK    6  A    between atoms: C_38  and  C_40
REMARK                            x       y       z     vdW  Elec       q    Type
REMARK                         _______ _______ _______ _____ _____    ______ ____
ROOT
ATOM      1  N   UNL     1       0.407  -1.194   2.980  0.00  0.00    -0.210 N 
ATOM      2  C   UNL     1       0.879  -0.128   2.323  0.00  0.00    +0.228 C 
ATOM      3  O   UNL     1       1.842  -0.128   1.588  0.00  0.00    -0.275 OA
ATOM      4  C   UNL     1       0.023   1.077   2.641  0.00  0.00    +0.073 C 
ATOM      5  C   UNL     1      -0.755   1.498   1.376  0.00  0.00    -0.057 C 
ATOM      6  C   UNL     1      -2.373   0.642   2.829  0.00  0.00    +0.032 C 
ATOM      7  C   UNL     1      -1.056   0.508   3.604  0.00  0.00    +0.087 C 
ATOM      8  C   UNL     1      -0.673  -0.950   3.731  0.00  0.00    +0.229 C 
ATOM      9  O   UNL     1      -1.255  -1.770   4.409  0.00  0.00    -0.275 OA
ATOM     10  C   UNL     1      -3.137   1.865   3.245  0.00  0.00    -0.026 A 
ATOM     11  C   UNL     1      -2.845   3.212   3.236  0.00  0.00    +0.005 A 
ATOM     12  C   UNL     1      -3.776   4.125   3.696  0.00  0.00    +0.000 A 
ATOM     13  C   UNL     1      -5.000   3.684   4.165  0.00  0.00    +0.002 A 
ATOM     14  C   UNL     1      -5.297   2.337   4.176  0.00  0.00    +0.026 A 
ATOM     15  C   UNL     1      -4.364   1.411   3.714  0.00  0.00    +0.053 A 
ATOM     16  N   UNL     1      -4.439   0.012   3.627  0.00  0.00    -0.265 N 
ATOM     17  C   UNL     1      -3.294  -0.518   3.110  0.00  0.00    +0.112 A 
ATOM     18  N   UNL     1      -3.121  -1.797   2.931  0.00  0.00    -0.234 NA
ATOM     19  C   UNL     1      -4.073  -2.705   3.249  0.00  0.00    +0.078 A 
ATOM     20  C   UNL     1      -3.879  -4.074   3.055  0.00  0.00    +0.028 A 
ATOM     21  C   UNL     1      -4.876  -4.960   3.396  0.00  0.00    +0.002 A 
ATOM     22  C   UNL     1      -6.076  -4.509   3.932  0.00  0.00    +0.001 A 
ATOM     23  C   UNL     1      -6.291  -3.163   4.132  0.00  0.00    +0.015 A 
ATOM     24  C   UNL     1      -5.294  -2.249   3.793  0.00  0.00    +0.065 A 
ATOM     25  C   UNL     1      -5.465  -0.804   3.984  0.00  0.00    +0.266 A 
ATOM     26  O   UNL     1      -6.496  -0.350   4.446  0.00  0.00    -0.267 OA
ATOM     27  N   UNL     1      -1.975   0.691   1.427  0.00  0.00    +0.393 N 
ATOM     28  H   UNL     1      -1.790  -0.256   1.076  0.00  0.00    -0.084 HD
ATOM     29  H   UNL     1      -2.713   1.127   0.862  0.00  0.00    -0.084 HD
ENDROOT
BRANCH   1  34
ATOM     30  C   UNL     1       2.795  -6.329   2.612  0.00  0.00    +0.044 C 
ATOM     31  C   UNL     1       2.161  -4.965   2.710  0.00  0.00    -0.050 A 
ATOM     32  C   UNL     1       1.538  -4.414   1.606  0.00  0.00    +0.005 A 
ATOM     33  C   UNL     1       0.955  -3.164   1.693  0.00  0.00    +0.024 A 
ATOM     34  C   UNL     1       0.997  -2.462   2.889  0.00  0.00    +0.044 A 
ATOM     35  C   UNL     1       1.628  -3.016   3.994  0.00  0.00    +0.024 A 
ATOM     36  C   UNL     1       2.204  -4.268   3.904  0.00  0.00    +0.005 A 
ENDBRANCH   1  34
BRANCH   5  37
ATOM     37  C   UNL     1       0.065   1.195   0.121  0.00  0.00    -0.012 C 
BRANCH  37  38
ATOM     38  C   UNL     1      -0.682   1.705  -1.112  0.00  0.00    -0.019 C 
ATOM     39  C   UNL     1      -0.761   3.232  -1.065  0.00  0.00    +0.007 C 
ATOM     40  C   UNL     1       0.063   1.272  -2.376  0.00  0.00    +0.007 C 
ENDBRANCH  37  38
ENDBRANCH   5  37
TORSDOF 3
