REMARK  Name = ZINC02104576
REMARK  8 active torsions:
REMARK  status: ('A' for Active; 'I' for Inactive)
REMARK    1  A    between atoms: C_1  and  O_2
REMARK    2  A    between atoms: O_2  and  C_3
REMARK    3  A    between atoms: C_6  and  O_40
REMARK    4  A    between atoms: C_7  and  C_9
REMARK    5  A    between atoms: N_28  and  C_31
REMARK    6  A    between atoms: C_31  and  C_32
REMARK    7  A    between atoms: C_32  and  C_33
REMARK    8  A    between atoms: O_40  and  C_41
REMARK                            x       y       z     vdW  Elec       q    Type
REMARK                         _______ _______ _______ _____ _____    ______ ____
ROOT
ATOM      1  C   UNL     1      -2.224   5.335   3.846  0.00  0.00    +0.158 C 
ATOM      2  C   UNL     1      -1.205   5.654   4.916  0.00  0.00    +0.046 A 
ATOM      3  C   UNL     1      -1.063   4.933   6.049  0.00  0.00    -0.015 A 
ATOM      4  C   UNL     1       0.009   5.544   6.809  0.00  0.00    +0.003 A 
ATOM      5  C   UNL     1       0.591   5.237   8.043  0.00  0.00    +0.010 A 
ATOM      6  C   UNL     1       1.613   6.050   8.467  0.00  0.00    +0.001 A 
ATOM      7  C   UNL     1       2.055   7.127   7.716  0.00  0.00    +0.002 A 
ATOM      8  C   UNL     1       1.497   7.454   6.493  0.00  0.00    +0.026 A 
ATOM      9  C   UNL     1       0.457   6.646   6.037  0.00  0.00    +0.047 A 
ATOM     10  N   UNL     1      -0.300   6.682   4.902  0.00  0.00    -0.356 N 
ATOM     11  H   UNL     1      -0.211   7.337   4.192  0.00  0.00    +0.166 HD
ATOM     12  C   UNL     1      -1.894   3.728   6.409  0.00  0.00    +0.069 C 
ATOM     13  C   UNL     1      -2.579   3.203   5.139  0.00  0.00    +0.167 C 
ATOM     14  N   UNL     1      -3.153   4.329   4.403  0.00  0.00    -0.276 N 
ATOM     15  C   UNL     1      -4.465   4.486   4.217  0.00  0.00    +0.234 C 
ATOM     16  O   UNL     1      -4.840   5.492   3.653  0.00  0.00    -0.274 OA
ATOM     17  C   UNL     1      -5.503   3.505   4.657  0.00  0.00    +0.203 C 
ATOM     18  N   UNL     1      -4.917   2.336   5.289  0.00  0.00    -0.291 N 
ATOM     19  C   UNL     1      -3.612   2.188   5.508  0.00  0.00    +0.237 C 
ATOM     20  O   UNL     1      -3.238   1.165   6.042  0.00  0.00    -0.274 OA
ENDROOT
BRANCH   1  25
ATOM     21  C   UNL     1       0.400   3.791   1.609  0.00  0.00    +0.121 A 
ATOM     22  C   UNL     1      -0.263   3.747   0.391  0.00  0.00    +0.049 A 
ATOM     23  C   UNL     1      -1.558   4.217   0.294  0.00  0.00    +0.049 A 
ATOM     24  C   UNL     1      -2.196   4.732   1.413  0.00  0.00    +0.126 A 
ATOM     25  C   UNL     1      -1.532   4.775   2.630  0.00  0.00    +0.024 A 
ATOM     26  C   UNL     1      -0.239   4.300   2.729  0.00  0.00    +0.055 A 
BRANCH  21  28
ATOM     27  C   UNL     1       2.270   2.812   0.512  0.00  0.00    +0.277 C 
ATOM     28  O   UNL     1       1.675   3.328   1.705  0.00  0.00    -0.495 OA
ENDBRANCH  21  28
BRANCH  24  29
ATOM     29  O   UNL     1      -3.471   5.195   1.317  0.00  0.00    -0.495 OA
ATOM     30  C   UNL     1      -4.093   5.120   0.033  0.00  0.00    +0.277 C 
ENDBRANCH  24  29
ENDBRANCH   1  25
BRANCH  18  31
ATOM     31  C   UNL     1      -5.814   1.256   5.710  0.00  0.00    +0.113 C 
BRANCH  31  32
ATOM     32  C   UNL     1      -5.979   0.255   4.564  0.00  0.00    +0.054 C 
BRANCH  32  33
ATOM     33  C   UNL     1      -6.902  -0.855   4.997  0.00  0.00    -0.046 A 
ATOM     34  C   UNL     1      -6.385  -1.988   5.597  0.00  0.00    +0.006 A 
ATOM     35  C   UNL     1      -7.230  -3.005   5.999  0.00  0.00    +0.038 A 
ATOM     36  C   UNL     1      -8.594  -2.894   5.790  0.00  0.00    +0.123 A 
ATOM     37  C   UNL     1      -9.111  -1.761   5.184  0.00  0.00    +0.038 A 
ATOM     38  C   UNL     1      -8.264  -0.743   4.788  0.00  0.00    +0.006 A 
ATOM     39  F   UNL     1      -9.421  -3.889   6.177  0.00  0.00    -0.205 F 
ENDBRANCH  32  33
ENDBRANCH  31  32
ENDBRANCH  18  31
TORSDOF 6
