REMARK  Name = ZINC02362828
REMARK  6 active torsions:
REMARK  status: ('A' for Active; 'I' for Inactive)
REMARK    1  A    between atoms: C_1  and  C_2
REMARK    2  A    between atoms: C_8  and  C_27
REMARK    3  A    between atoms: C_8  and  C_28
REMARK    4  A    between atoms: C_9  and  C_16
REMARK    5  A    between atoms: C_17  and  C_18
REMARK    6  A    between atoms: C_23  and  N_24
REMARK                            x       y       z     vdW  Elec       q    Type
REMARK                         _______ _______ _______ _____ _____    ______ ____
ROOT
ATOM      1  C   UNL     1      -4.280   3.276   0.376  0.00  0.00    +0.044 C 
ATOM      2  C   UNL     1      -2.785   3.457   0.324  0.00  0.00    -0.050 A 
ATOM      3  C   UNL     1      -1.952   2.353   0.331  0.00  0.00    +0.005 A 
ATOM      4  C   UNL     1      -0.584   2.514   0.268  0.00  0.00    +0.024 A 
ATOM      5  C   UNL     1      -0.026   3.788   0.208  0.00  0.00    +0.035 A 
ATOM      6  C   UNL     1      -0.877   4.898   0.226  0.00  0.00    -0.016 A 
ATOM      7  C   UNL     1      -2.242   4.729   0.276  0.00  0.00    +0.009 A 
ATOM      8  C   UNL     1      -0.011   6.149   0.198  0.00  0.00    +0.034 C 
ATOM      9  C   UNL     1       1.347   5.594   0.670  0.00  0.00    +0.130 C 
ATOM     10  N   UNL     1       1.286   4.217   0.104  0.00  0.00    -0.304 N 
ATOM     11  C   UNL     1       2.332   3.399   0.686  0.00  0.00    +0.117 C 
ATOM     12  C   UNL     1       3.681   4.107   0.566  0.00  0.00    +0.115 C 
ATOM     13  C   UNL     1       3.590   5.439  -0.117  0.00  0.00    +0.216 C 
ATOM     14  O   UNL     1       4.532   5.830  -0.774  0.00  0.00    -0.276 OA
ATOM     15  N   UNL     1       2.482   6.220  -0.021  0.00  0.00    -0.290 N 
ATOM     16  C   UNL     1       0.091   6.714  -1.220  0.00  0.00    +0.020 C 
ATOM     17  C   UNL     1      -0.540   7.205   1.170  0.00  0.00    +0.020 C 
ATOM     18  H   UNL     1       2.443   7.120  -0.380  0.00  0.00    +0.151 HD
ENDROOT
BRANCH   9  19
ATOM     19  C   UNL     1       1.488   5.608   2.170  0.00  0.00    +0.020 C 
ATOM     20  C   UNL     1       2.493   6.261   2.736  0.00  0.00    +0.009 C 
BRANCH  20  21
ATOM     21  C   UNL     1       2.722   6.149   4.191  0.00  0.00    +0.005 A 
ATOM     22  C   UNL     1       2.138   5.108   4.915  0.00  0.00    +0.010 A 
ATOM     23  C   UNL     1       2.360   5.006   6.272  0.00  0.00    +0.001 A 
ATOM     24  C   UNL     1       3.151   5.939   6.919  0.00  0.00    +0.002 A 
ATOM     25  C   UNL     1       3.728   6.977   6.209  0.00  0.00    +0.033 A 
ATOM     26  C   UNL     1       3.518   7.087   4.850  0.00  0.00    +0.133 A 
BRANCH  26  27
ATOM     27  N   UNL     1       4.137   8.197   4.091  0.00  0.00    +0.057 N 
ATOM     28  O   UNL     1       4.716   9.091   4.683  0.00  0.00    -0.126 OA
ATOM     29  O   UNL     1       4.066   8.219   2.876  0.00  0.00    -0.126 OA
ENDBRANCH  26  27
ENDBRANCH  20  21
ENDBRANCH   9  19
TORSDOF 3
