REMARK  Name = ZINC16601836
REMARK  14 active torsions:
REMARK  status: ('A' for Active; 'I' for Inactive)
REMARK    1  A    between atoms: C_1  and  C_2
REMARK    2  A    between atoms: C_2  and  N_64
REMARK    3  A    between atoms: C_3  and  C_4
REMARK    4  A    between atoms: C_3  and  N_64
REMARK    5  A    between atoms: C_5  and  C_6
REMARK    6  A    between atoms: C_5  and  N_64
REMARK    7  A    between atoms: C_6  and  C_7
REMARK    8  A    between atoms: C_7  and  C_8
REMARK    9  A    between atoms: C_8  and  C_10
REMARK   10  A    between atoms: C_8  and  N_11
REMARK   11  A    between atoms: C_12  and  C_14
REMARK   12  A    between atoms: C_16  and  C_28
REMARK   13  A    between atoms: N_18  and  C_19
REMARK   14  A    between atoms: C_22  and  N_25
REMARK                            x       y       z     vdW  Elec       q    Type
REMARK                         _______ _______ _______ _____ _____    ______ ____
ROOT
ATOM      1  C   UNL     1      -1.646   1.950  -1.723  0.00  0.00    +0.130 A 
ATOM      2  C   UNL     1      -0.793   0.868  -1.620  0.00  0.00    +0.063 A 
ATOM      3  C   UNL     1       0.481   1.419  -1.392  0.00  0.00    +0.094 A 
ATOM      4  N   UNL     1       0.349   2.729  -1.363  0.00  0.00    -0.166 NA
ATOM      5  N   UNL     1      -0.875   3.068  -1.549  0.00  0.00    -0.227 N 
ENDROOT
BRANCH   3   6
ATOM      6  C   UNL     1       1.745   0.661  -1.215  0.00  0.00    +0.002 A 
ATOM      7  C   UNL     1       1.737  -0.731  -1.263  0.00  0.00    +0.013 A 
ATOM      8  C   UNL     1       2.916  -1.431  -1.102  0.00  0.00    +0.039 A 
ATOM      9  C   UNL     1       4.103  -0.752  -0.883  0.00  0.00    +0.123 A 
ATOM     10  C   UNL     1       4.114   0.632  -0.830  0.00  0.00    +0.039 A 
ATOM     11  C   UNL     1       2.942   1.340  -0.995  0.00  0.00    +0.013 A 
ATOM     12  F   UNL     1       5.253  -1.442  -0.721  0.00  0.00    -0.205 F 
ENDBRANCH   3   6
BRANCH   5  13
ATOM     13  C   UNL     1      -1.350   4.385  -1.577  0.00  0.00    +0.066 A 
ATOM     14  C   UNL     1      -0.776   5.314  -2.435  0.00  0.00    +0.030 A 
ATOM     15  C   UNL     1      -1.251   6.610  -2.465  0.00  0.00    +0.035 A 
ATOM     16  C   UNL     1      -2.288   6.987  -1.632  0.00  0.00    +0.126 A 
ATOM     17  C   UNL     1      -2.858   6.067  -0.771  0.00  0.00    +0.035 A 
ATOM     18  C   UNL     1      -2.392   4.767  -0.742  0.00  0.00    +0.030 A 
BRANCH  16  19
ATOM     19  N   UNL     1      -2.790   8.380  -1.661  0.00  0.00    +0.056 N 
ATOM     20  O   UNL     1      -3.704   8.713  -0.927  0.00  0.00    -0.126 OA
ATOM     21  O   UNL     1      -2.289   9.192  -2.418  0.00  0.00    -0.126 OA
ENDBRANCH  16  19
ENDBRANCH   5  13
BRANCH   1  23
ATOM     22  N   UNL     1      -3.774   3.052  -2.194  0.00  0.00    -0.308 N 
ATOM     23  C   UNL     1      -3.096   1.909  -1.969  0.00  0.00    +0.263 C 
ATOM     24  O   UNL     1      -3.683   0.844  -1.968  0.00  0.00    -0.269 OA
ATOM     25  H   UNL     1      -3.297   3.894  -2.259  0.00  0.00    +0.149 HD
BRANCH  22  26
ATOM     26  C   UNL     1      -5.231   3.022  -2.342  0.00  0.00    +0.070 C 
ATOM     27  C   UNL     1      -5.595   3.072  -3.827  0.00  0.00    +0.028 C 
BRANCH  26  28
ATOM     28  C   UNL     1      -5.841   4.230  -1.627  0.00  0.00    +0.020 C 
BRANCH  28  29
ATOM     29  C   UNL     1      -5.606   4.102  -0.120  0.00  0.00    -0.017 C 
BRANCH  29  30
ATOM     30  C   UNL     1      -6.268   5.279   0.601  0.00  0.00    -0.079 C 
BRANCH  30  31
ATOM     31  N   UNL     1      -6.032   5.138   2.053  0.00  0.00    +0.379 N 
ATOM     32  H   UNL     1      -6.153   4.153   2.316  0.00  0.00    -0.082 HD
BRANCH  31  34
ATOM     33  C   UNL     1      -4.466   7.050   2.105  0.00  0.00    -0.017 C 
ATOM     34  C   UNL     1      -4.654   5.557   2.383  0.00  0.00    -0.082 C 
ENDBRANCH  31  34
BRANCH  31  35
ATOM     35  C   UNL     1      -7.004   5.959   2.805  0.00  0.00    -0.082 C 
ATOM     36  C   UNL     1      -6.830   5.685   4.300  0.00  0.00    -0.017 C 
ENDBRANCH  31  35
ENDBRANCH  30  31
ENDBRANCH  29  30
ENDBRANCH  28  29
ENDBRANCH  26  28
ENDBRANCH  22  26
ENDBRANCH   1  23
TORSDOF 11
