REMARK  Name = ZINC01132841
REMARK  8 active torsions:
REMARK  status: ('A' for Active; 'I' for Inactive)
REMARK    1  A    between atoms: C_1  and  C_2
REMARK    2  A    between atoms: C_2  and  O_3
REMARK    3  A    between atoms: O_3  and  C_4
REMARK    4  A    between atoms: C_4  and  C_6
REMARK    5  A    between atoms: C_7  and  C_34
REMARK    6  A    between atoms: C_11  and  C_13
REMARK    7  A    between atoms: C_17  and  C_19
REMARK    8  A    between atoms: C_26  and  C_29
REMARK                            x       y       z     vdW  Elec       q    Type
REMARK                         _______ _______ _______ _____ _____    ______ ____
ROOT
ATOM      1  C   UNL     1      -0.741   5.825   1.284  0.00  0.00    +0.065 C 
ATOM      2  C   UNL     1      -2.008   6.274   1.270  0.00  0.00    +0.016 C 
ATOM      3  N   UNL     1      -2.716   6.313   0.102  0.00  0.00    -0.321 N 
ATOM      4  C   UNL     1      -2.072   6.285  -1.106  0.00  0.00    +0.016 C 
ATOM      5  C   UNL     1      -0.801   5.838  -1.195  0.00  0.00    +0.024 C 
ATOM      6  C   UNL     1      -0.070   5.347   0.030  0.00  0.00    +0.092 C 
ATOM      7  C   UNL     1      -0.123   5.819  -2.426  0.00  0.00    +0.162 C 
ATOM      8  O   UNL     1       1.017   5.401  -2.473  0.00  0.00    -0.292 OA
ATOM      9  C   UNL     1      -0.783   6.307  -3.687  0.00  0.00    +0.091 C 
ATOM     10  C   UNL     1      -1.823   7.373  -3.325  0.00  0.00    +0.068 C 
ATOM     11  C   UNL     1      -2.813   6.766  -2.329  0.00  0.00    +0.062 C 
ATOM     12  C   UNL     1      -2.651   6.738   2.551  0.00  0.00    +0.061 C 
ATOM     13  H   UNL     1      -3.814   6.367   0.126  0.00  0.00    +0.152 HD
ENDROOT
BRANCH   6  14
ATOM     14  C   UNL     1      -0.050   3.840   0.022  0.00  0.00    -0.035 A 
ATOM     15  C   UNL     1      -1.238   3.133   0.030  0.00  0.00    +0.004 A 
ATOM     16  C   UNL     1      -1.219   1.751   0.017  0.00  0.00    +0.001 A 
ATOM     17  C   UNL     1      -0.013   1.076   0.008  0.00  0.00    +0.012 A 
ATOM     18  C   UNL     1       1.175   1.783   0.000  0.00  0.00    +0.055 A 
ATOM     19  C   UNL     1       1.156   3.166   0.008  0.00  0.00    +0.017 A 
BRANCH  18  20
ATOM     20  C   UNL     1       2.490   1.047  -0.016  0.00  0.00    +0.417 C 
ATOM     21  F   UNL     1       2.253  -0.331  -0.021  0.00  0.00    -0.166 F 
ATOM     22  F   UNL     1       3.208   1.401  -1.163  0.00  0.00    -0.166 F 
ATOM     23  F   UNL     1       3.230   1.389   1.121  0.00  0.00    -0.166 F 
ENDBRANCH  18  20
ENDBRANCH   6  14
BRANCH  10  24
ATOM     24  C   UNL     1      -2.553   7.810  -4.569  0.00  0.00    +0.109 A 
ATOM     25  C   UNL     1      -2.592   9.063  -5.058  0.00  0.00    +0.045 A 
ATOM     26  C   UNL     1      -3.382   9.020  -6.230  0.00  0.00    +0.041 A 
ATOM     27  C   UNL     1      -3.784   7.745  -6.382  0.00  0.00    +0.195 A 
ATOM     28  O   UNL     1      -3.279   7.017  -5.373  0.00  0.00    -0.468 OA
ENDBRANCH  10  24
BRANCH   1  29
ATOM     29  C   UNL     1      -0.027   5.801   2.505  0.00  0.00    +0.338 C 
ATOM     30  O   UNL     1      -0.559   6.186   3.529  0.00  0.00    -0.245 OA
BRANCH  29  31
ATOM     31  O   UNL     1       1.246   5.352   2.534  0.00  0.00    -0.462 OA
BRANCH  31  33
ATOM     32  C   UNL     1       3.329   4.817   3.635  0.00  0.00    +0.048 C 
ATOM     33  C   UNL     1       1.907   5.357   3.800  0.00  0.00    +0.229 C 
ENDBRANCH  31  33
ENDBRANCH  29  31
ENDBRANCH   1  29
TORSDOF 6
