REMARK  Name = ZINC01093280
REMARK  9 active torsions:
REMARK  status: ('A' for Active; 'I' for Inactive)
REMARK    1  A    between atoms: C_1  and  S_2
REMARK    2  A    between atoms: S_2  and  N_5
REMARK    3  A    between atoms: N_5  and  C_6
REMARK    4  A    between atoms: N_5  and  C_14
REMARK    5  A    between atoms: C_6  and  C_7
REMARK    6  A    between atoms: C_17  and  C_20
REMARK    7  A    between atoms: N_22  and  N_23
REMARK    8  A    between atoms: C_24  and  C_25
REMARK    9  A    between atoms: C_34  and  O_35
REMARK                            x       y       z     vdW  Elec       q    Type
REMARK                         _______ _______ _______ _____ _____    ______ ____
ROOT
ATOM      1  C   UNL     1      -6.242  11.829   0.150  0.00  0.00    +0.051 A 
ATOM      2  C   UNL     1      -5.170  12.487  -0.445  0.00  0.00    +0.025 A 
ATOM      3  C   UNL     1      -3.916  11.919  -0.427  0.00  0.00    +0.015 A 
ATOM      4  C   UNL     1      -3.721  10.680   0.190  0.00  0.00    +0.038 A 
ATOM      5  C   UNL     1      -4.801  10.019   0.782  0.00  0.00    +0.015 A 
ATOM      6  C   UNL     1      -6.051  10.594   0.765  0.00  0.00    +0.025 A 
ENDROOT
BRANCH   4   7
ATOM      7  C   UNL     1      -2.379  10.069   0.210  0.00  0.00    +0.263 C 
ATOM      8  O   UNL     1      -1.441  10.643  -0.309  0.00  0.00    -0.268 OA
ATOM      9  N   UNL     1      -2.192   8.874   0.805  0.00  0.00    -0.203 N 
ATOM     10  H   UNL     1      -2.940   8.416   1.220  0.00  0.00    +0.178 HD
BRANCH   9  11
ATOM     11  N   UNL     1      -0.917   8.293   0.825  0.00  0.00    -0.187 NA
ATOM     12  C   UNL     1      -0.737   7.140   1.398  0.00  0.00    +0.142 C 
BRANCH  12  13
ATOM     13  C   UNL     1       0.601   6.531   1.419  0.00  0.00    +0.044 A 
ATOM     14  C   UNL     1       0.821   5.236   2.059  0.00  0.00    -0.006 A 
ATOM     15  C   UNL     1      -0.226   4.535   2.671  0.00  0.00    +0.009 A 
ATOM     16  C   UNL     1       0.021   3.327   3.252  0.00  0.00    +0.001 A 
ATOM     17  C   UNL     1       1.304   2.784   3.257  0.00  0.00    +0.001 A 
ATOM     18  C   UNL     1       2.344   3.439   2.671  0.00  0.00    +0.008 A 
ATOM     19  C   UNL     1       2.126   4.684   2.057  0.00  0.00    -0.017 A 
ATOM     20  C   UNL     1       3.175   5.389   1.443  0.00  0.00    +0.012 A 
ATOM     21  C   UNL     1       2.953   6.592   0.851  0.00  0.00    +0.046 A 
ATOM     22  C   UNL     1       1.687   7.176   0.828  0.00  0.00    +0.126 A 
BRANCH  22  23
ATOM     23  O   UNL     1       1.510   8.380   0.226  0.00  0.00    -0.506 OA
ATOM     24  H   UNL     1       1.633   9.136   0.816  0.00  0.00    +0.292 HD
ENDBRANCH  22  23
ENDBRANCH  12  13
ENDBRANCH   9  11
ENDBRANCH   4   7
BRANCH   1  25
ATOM     25  N   UNL     1      -7.508  12.405   0.131  0.00  0.00    -0.203 N 
BRANCH  25  27
ATOM     26  C   UNL     1      -7.640  15.026  -0.701  0.00  0.00    +0.218 C 
ATOM     27  S   UNL     1      -7.733  13.928   0.741  0.00  0.00    +0.043 S 
ATOM     28  O   UNL     1      -9.054  13.918   1.263  0.00  0.00    -0.155 OA
ATOM     29  O   UNL     1      -6.618  14.146   1.594  0.00  0.00    -0.155 OA
ENDBRANCH  25  27
BRANCH  25  30
ATOM     30  C   UNL     1      -8.641  11.665  -0.429  0.00  0.00    +0.167 C 
BRANCH  30  31
ATOM     31  C   UNL     1      -8.657  11.827  -1.927  0.00  0.00    -0.010 A 
ATOM     32  C   UNL     1      -9.490  12.762  -2.513  0.00  0.00    +0.006 A 
ATOM     33  C   UNL     1      -9.501  12.914  -3.887  0.00  0.00    +0.000 A 
ATOM     34  C   UNL     1      -8.685  12.124  -4.676  0.00  0.00    +0.001 A 
ATOM     35  C   UNL     1      -7.856  11.186  -4.092  0.00  0.00    +0.020 A 
ATOM     36  C   UNL     1      -7.841  11.037  -2.717  0.00  0.00    +0.046 A 
ATOM     37 CL   UNL     1      -6.799   9.858  -1.982  0.00  0.00    -0.083 Cl
ENDBRANCH  30  31
ENDBRANCH  25  30
ENDBRANCH   1  25
TORSDOF 8
