REMARK  Name = ZINC33267028
REMARK  5 active torsions:
REMARK  status: ('A' for Active; 'I' for Inactive)
REMARK    1  A    between atoms: C_1  and  C_2
REMARK    2  A    between atoms: C_7  and  N_8
REMARK    3  A    between atoms: C_14  and  C_38
REMARK    4  A    between atoms: N_16  and  C_32
REMARK    5  A    between atoms: C_23  and  C_25
REMARK                            x       y       z     vdW  Elec       q    Type
REMARK                         _______ _______ _______ _____ _____    ______ ____
ROOT
ATOM      1  N   UNL     1       5.046   0.515  -2.596  0.00  0.00    -0.269 N 
ATOM      2  C   UNL     1       4.121   0.479  -1.617  0.00  0.00    +0.308 C 
ATOM      3  O   UNL     1       3.986  -0.525  -0.945  0.00  0.00    -0.252 OA
ATOM      4  N   UNL     1       3.347   1.557  -1.382  0.00  0.00    -0.268 N 
ATOM      5  C   UNL     1       3.475   2.802  -2.175  0.00  0.00    +0.151 C 
ATOM      6  C   UNL     1       3.333   4.021  -1.312  0.00  0.00    +0.035 A 
ATOM      7  C   UNL     1       4.304   4.935  -0.914  0.00  0.00    +0.067 A 
ATOM      8  N   UNL     1       3.726   5.866  -0.192  0.00  0.00    -0.169 NA
ATOM      9  N   UNL     1       2.354   5.574  -0.107  0.00  0.00    -0.215 N 
ATOM     10  C   UNL     1       2.144   4.424  -0.773  0.00  0.00    +0.146 A 
ATOM     11  N   UNL     1       0.997   3.636  -0.914  0.00  0.00    -0.303 N 
ATOM     12  C   UNL     1      -0.271   3.978  -1.240  0.00  0.00    +0.093 A 
ATOM     13  C   UNL     1      -0.993   2.840  -1.352  0.00  0.00    +0.020 A 
ATOM     14  C   UNL     1      -0.135   1.761  -1.047  0.00  0.00    +0.025 A 
ATOM     15  C   UNL     1       1.071   2.274  -0.758  0.00  0.00    +0.050 A 
ATOM     16  C   UNL     1       2.317   1.564  -0.317  0.00  0.00    +0.155 C 
ATOM     17  C   UNL     1       5.771   4.865  -1.252  0.00  0.00    +0.068 C 
ATOM     18  H   UNL     1       5.214   1.444  -3.161  0.00  0.00    +0.156 HD
ENDROOT
BRANCH   1  25
ATOM     19  C   UNL     1       6.033   0.209  -5.248  0.00  0.00    +0.045 C 
ATOM     20  C   UNL     1       6.294  -0.819  -4.177  0.00  0.00    -0.029 A 
ATOM     21  C   UNL     1       7.031  -1.950  -4.469  0.00  0.00    +0.005 A 
ATOM     22  C   UNL     1       7.271  -2.893  -3.487  0.00  0.00    +0.000 A 
ATOM     23  C   UNL     1       6.774  -2.708  -2.209  0.00  0.00    +0.002 A 
ATOM     24  C   UNL     1       6.041  -1.577  -1.910  0.00  0.00    +0.023 A 
ATOM     25  C   UNL     1       5.793  -0.630  -2.896  0.00  0.00    +0.038 A 
ENDBRANCH   1  25
BRANCH  16  26
ATOM     26  C   UNL     1       2.874   2.258   0.899  0.00  0.00    -0.018 A 
ATOM     27  C   UNL     1       2.017   2.806   1.836  0.00  0.00    +0.006 A 
ATOM     28  C   UNL     1       2.527   3.443   2.952  0.00  0.00    +0.003 A 
ATOM     29  C   UNL     1       3.894   3.533   3.133  0.00  0.00    +0.038 A 
ATOM     30  C   UNL     1       4.754   2.985   2.196  0.00  0.00    +0.124 A 
ATOM     31  C   UNL     1       4.242   2.342   1.081  0.00  0.00    +0.044 A 
ATOM     32  F   UNL     1       6.090   3.071   2.372  0.00  0.00    -0.205 F 
ENDBRANCH  16  26
BRANCH   9  33
ATOM     33  C   UNL     1       1.382   6.341   0.550  0.00  0.00    +0.068 A 
ATOM     34  C   UNL     1       1.412   7.726   0.463  0.00  0.00    +0.028 A 
ATOM     35  C   UNL     1       0.450   8.479   1.108  0.00  0.00    +0.002 A 
ATOM     36  C   UNL     1      -0.536   7.854   1.849  0.00  0.00    +0.000 A 
ATOM     37  C   UNL     1      -0.566   6.475   1.942  0.00  0.00    +0.002 A 
ATOM     38  C   UNL     1       0.390   5.717   1.295  0.00  0.00    +0.028 A 
ENDBRANCH   9  33
TORSDOF 3
