REMARK  Name = ZINC05390658
REMARK  1 active torsions:
REMARK  status: ('A' for Active; 'I' for Inactive)
REMARK    1  A    between atoms: C_17  and  C_24
REMARK                            x       y       z     vdW  Elec       q    Type
REMARK                         _______ _______ _______ _____ _____    ______ ____
ROOT
ATOM      1  C   UNL     1      -1.236   3.134   0.024  0.00  0.00    +0.028 A 
ATOM      2  C   UNL     1      -1.220   1.752   0.017  0.00  0.00    +0.043 A 
ATOM      3  C   UNL     1      -0.013   1.076   0.008  0.00  0.00    +0.043 A 
ATOM      4  C   UNL     1       1.173   1.783   0.000  0.00  0.00    +0.085 A 
ATOM      5  C   UNL     1       1.163   3.175   0.007  0.00  0.00    +0.154 A 
ATOM      6  C   UNL     1      -0.051   3.848   0.010  0.00  0.00    +0.007 A 
ATOM      7  C   UNL     1      -0.089   5.346  -0.021  0.00  0.00    +0.077 C 
ATOM      8  C   UNL     1      -1.272   5.946   0.636  0.00  0.00    +0.033 A 
ATOM      9  C   UNL     1      -1.358   7.142   1.264  0.00  0.00    +0.088 A 
ATOM     10  N   UNL     1      -2.594   7.462   1.776  0.00  0.00    -0.311 N 
ATOM     11  H   UNL     1      -2.723   8.311   2.228  0.00  0.00    +0.170 HD
ATOM     12  C   UNL     1      -3.627   6.605   1.656  0.00  0.00    +0.289 A 
ATOM     13  O   UNL     1      -4.772   6.727   2.054  0.00  0.00    -0.260 OA
ATOM     14  S   UNL     1      -2.910   5.282   0.791  0.00  0.00    -0.030 S 
ATOM     15  S   UNL     1       0.062   8.209   1.399  0.00  0.00    -0.091 S 
ATOM     16  C   UNL     1       1.268   7.409   0.293  0.00  0.00    +0.180 C 
ATOM     17  C   UNL     1       1.212   5.905   0.555  0.00  0.00    +0.135 C 
ATOM     18  C   UNL     1       2.350   5.171  -0.109  0.00  0.00    +0.318 C 
ATOM     19  O   UNL     1       3.207   5.752  -0.731  0.00  0.00    -0.250 OA
ATOM     20  O   UNL     1       2.357   3.827   0.029  0.00  0.00    -0.424 OA
ATOM     21 CL   UNL     1       2.686   0.931  -0.017  0.00  0.00    -0.080 Cl
ATOM     22 CL   UNL     1      -2.712   0.865   0.027  0.00  0.00    -0.083 Cl
ENDROOT
BRANCH  16  23
ATOM     23  C   UNL     1       2.652   7.927   0.587  0.00  0.00    +0.370 C 
ATOM     24  O   UNL     1       3.332   7.390   1.429  0.00  0.00    -0.245 OA
ATOM     25  O   UNL     1       3.130   8.985  -0.087  0.00  0.00    -0.245 OA
ENDBRANCH  16  23
TORSDOF 1
