REMARK  Name = ZINC33960393
REMARK  10 active torsions:
REMARK  status: ('A' for Active; 'I' for Inactive)
REMARK    1  A    between atoms: C_1  and  C_2
REMARK    2  A    between atoms: C_5  and  C_8
REMARK    3  A    between atoms: C_8  and  O_10
REMARK    4  A    between atoms: O_10  and  N_11
REMARK    5  A    between atoms: C_14  and  C_22
REMARK    6  A    between atoms: C_17  and  C_21
REMARK    7  A    between atoms: C_18  and  C_19
REMARK    8  A    between atoms: C_18  and  C_20
REMARK    9  A    between atoms: N_24  and  C_25
REMARK   10  A    between atoms: C_30  and  C_31
REMARK                            x       y       z     vdW  Elec       q    Type
REMARK                         _______ _______ _______ _____ _____    ______ ____
ROOT
ATOM      1  N   UNL     1       0.126  -6.323   1.011  0.00  0.00    -0.083 NA
ATOM      2  C   UNL     1       0.134  -7.087   2.038  0.00  0.00    +0.066 C 
ATOM      3  C   UNL     1       0.155  -8.608   2.057  0.00  0.00    +0.071 C 
ATOM      4  C   UNL     1       0.149  -8.989   3.570  0.00  0.00    +0.058 C 
ATOM      5  C   UNL     1       1.563  -8.572   4.078  0.00  0.00    +0.018 C 
ATOM      6  C   UNL     1       1.548  -7.026   4.035  0.00  0.00    +0.014 C 
ATOM      7  C   UNL     1       0.130  -6.662   3.514  0.00  0.00    +0.015 C 
ATOM      8  C   UNL     1      -0.724  -7.820   4.149  0.00  0.00    -0.010 C 
ATOM      9  C   UNL     1      -0.694  -7.782   5.678  0.00  0.00    +0.013 C 
ATOM     10  C   UNL     1      -2.155  -7.847   3.608  0.00  0.00    +0.013 C 
ATOM     11  C   UNL     1      -0.331  -5.230   3.795  0.00  0.00    +0.018 C 
ENDROOT
BRANCH   4  12
ATOM     12  C   UNL     1      -0.303 -10.389   3.898  0.00  0.00    +0.224 C 
ATOM     13  O   UNL     1      -1.279 -10.563   4.598  0.00  0.00    -0.275 OA
ATOM     14  N   UNL     1       0.377 -11.448   3.416  0.00  0.00    -0.285 N 
ATOM     15  H   UNL     1       1.108 -11.312   2.793  0.00  0.00    +0.155 HD
BRANCH  14  16
ATOM     16  C   UNL     1       0.029 -12.744   3.814  0.00  0.00    +0.036 A 
ATOM     17  C   UNL     1      -0.613 -12.950   5.028  0.00  0.00    +0.025 A 
ATOM     18  C   UNL     1      -0.956 -14.229   5.418  0.00  0.00    +0.022 A 
ATOM     19  C   UNL     1      -0.659 -15.306   4.601  0.00  0.00    +0.041 A 
ATOM     20  C   UNL     1      -0.020 -15.104   3.391  0.00  0.00    +0.025 A 
ATOM     21  C   UNL     1       0.320 -13.825   2.993  0.00  0.00    -0.028 A 
ATOM     22  C   UNL     1       1.011 -13.604   1.672  0.00  0.00    +0.046 C 
ATOM     23 CL   UNL     1      -1.090 -16.914   5.095  0.00  0.00    -0.084 Cl
ENDBRANCH  14  16
ENDBRANCH   4  12
BRANCH   1  24
ATOM     24  O   UNL     1       0.112  -4.917   1.175  0.00  0.00    -0.312 OA
BRANCH  24  25
ATOM     25  C   UNL     1       0.105  -4.231   0.015  0.00  0.00    +0.366 C 
ATOM     26  O   UNL     1       0.111  -4.827  -1.043  0.00  0.00    -0.243 OA
BRANCH  25  31
ATOM     27  C   UNL     1       0.049   1.522   0.077  0.00  0.00    +0.044 C 
ATOM     28  C   UNL     1       0.064   0.015   0.061  0.00  0.00    -0.050 A 
ATOM     29  C   UNL     1       0.070  -0.660  -1.146  0.00  0.00    +0.004 A 
ATOM     30  C   UNL     1       0.084  -2.040  -1.169  0.00  0.00    +0.015 A 
ATOM     31  C   UNL     1       0.091  -2.754   0.031  0.00  0.00    +0.061 A 
ATOM     32  C   UNL     1       0.085  -2.066   1.246  0.00  0.00    +0.015 A 
ATOM     33  C   UNL     1       0.076  -0.686   1.254  0.00  0.00    +0.004 A 
ENDBRANCH  25  31
ENDBRANCH  24  25
ENDBRANCH   1  24
TORSDOF 5
