REMARK  Name = ZINC14043275
REMARK  6 active torsions:
REMARK  status: ('A' for Active; 'I' for Inactive)
REMARK    1  A    between atoms: C_1  and  C_2
REMARK    2  A    between atoms: C_4  and  C_16
REMARK    3  A    between atoms: C_6  and  C_11
REMARK    4  A    between atoms: N_18  and  C_19
REMARK    5  A    between atoms: N_23  and  C_25
REMARK    6  A    between atoms: C_25  and  C_26
REMARK                            x       y       z     vdW  Elec       q    Type
REMARK                         _______ _______ _______ _____ _____    ______ ____
ROOT
ATOM      1  C   UNL     1      -0.264   0.716  -3.212  0.00  0.00    +0.245 C 
ATOM      2  O   UNL     1      -0.114   1.671  -2.475  0.00  0.00    -0.270 OA
ATOM      3  N   UNL     1      -0.487   0.908  -4.527  0.00  0.00    -0.310 N 
ATOM      4  H   UNL     1      -0.607   0.146  -5.115  0.00  0.00    +0.149 HD
ENDROOT
BRANCH   1   8
ATOM      5  C   UNL     1      -1.640   1.321  -0.395  0.00  0.00    +0.070 C 
ATOM      6  C   UNL     1      -1.341  -0.155  -0.334  0.00  0.00    +0.091 A 
ATOM      7  C   UNL     1      -0.702  -0.952  -1.379  0.00  0.00    +0.076 A 
ATOM      8  C   UNL     1      -0.200  -0.657  -2.665  0.00  0.00    +0.053 A 
ATOM      9  C   UNL     1       0.355  -1.697  -3.401  0.00  0.00    +0.042 A 
ATOM     10  C   UNL     1       0.394  -2.982  -2.845  0.00  0.00    +0.082 A 
ATOM     11  N   UNL     1      -0.087  -3.223  -1.633  0.00  0.00    -0.209 NA
ATOM     12  C   UNL     1      -0.626  -2.268  -0.891  0.00  0.00    +0.260 A 
ATOM     13  O   UNL     1      -1.172  -2.261   0.342  0.00  0.00    -0.334 OA
ATOM     14  N   UNL     1      -1.597  -0.951   0.660  0.00  0.00    -0.080 NA
BRANCH  10  15
ATOM     15  C   UNL     1       0.982  -4.089  -3.622  0.00  0.00    +0.038 A 
ATOM     16  C   UNL     1       1.117  -5.410  -3.279  0.00  0.00    +0.017 A 
ATOM     17  C   UNL     1       1.705  -6.269  -4.178  0.00  0.00    +0.008 A 
ATOM     18  C   UNL     1       2.133  -5.786  -5.374  0.00  0.00    +0.046 A 
ATOM     19  S   UNL     1       1.696  -4.059  -5.258  0.00  0.00    -0.095 S 
ENDBRANCH  10  15
ENDBRANCH   1   8
BRANCH   3  20
ATOM     20  C   UNL     1      -0.550   2.268  -5.069  0.00  0.00    +0.055 C 
ATOM     21  C   UNL     1       0.863   2.754  -5.463  0.00  0.00    +0.002 C 
ATOM     22  C   UNL     1       0.917   2.465  -6.984  0.00  0.00    -0.077 C 
ATOM     23  N   UNL     1      -0.461   2.783  -7.439  0.00  0.00    +0.384 N 
ATOM     24  C   UNL     1      -1.364   2.285  -6.376  0.00  0.00    -0.056 C 
ATOM     25  H   UNL     1      -0.570   3.780  -7.549  0.00  0.00    -0.081 HD
BRANCH  23  26
ATOM     26  C   UNL     1      -0.746   2.099  -8.708  0.00  0.00    -0.043 C 
BRANCH  26  27
ATOM     27  C   UNL     1       0.132   2.666  -9.793  0.00  0.00    -0.064 A 
ATOM     28  C   UNL     1      -0.302   3.746 -10.539  0.00  0.00    +0.002 A 
ATOM     29  C   UNL     1       0.503   4.266 -11.535  0.00  0.00    +0.000 A 
ATOM     30  C   UNL     1       1.743   3.707 -11.784  0.00  0.00    +0.000 A 
ATOM     31  C   UNL     1       2.177   2.628 -11.038  0.00  0.00    +0.000 A 
ATOM     32  C   UNL     1       1.373   2.110 -10.039  0.00  0.00    +0.002 A 
ENDBRANCH  26  27
ENDBRANCH  23  26
ENDBRANCH   3  20
TORSDOF 5
