REMARK  Name = ZINC64074291
REMARK  9 active torsions:
REMARK  status: ('A' for Active; 'I' for Inactive)
REMARK    1  A    between atoms: C_1  and  C_2
REMARK    2  A    between atoms: C_7  and  C_8
REMARK    3  A    between atoms: C_8  and  C_9
REMARK    4  A    between atoms: C_9  and  C_30
REMARK    5  A    between atoms: C_15  and  C_17
REMARK    6  A    between atoms: C_19  and  C_29
REMARK    7  A    between atoms: C_21  and  C_28
REMARK    8  A    between atoms: C_24  and  C_27
REMARK    9  A    between atoms: C_30  and  O_31
REMARK                            x       y       z     vdW  Elec       q    Type
REMARK                         _______ _______ _______ _____ _____    ______ ____
ROOT
ATOM      1  C   UNL     1      -1.665   1.745   4.430  0.00  0.00    +0.014 C 
ATOM      2  C   UNL     1      -1.885   0.232   4.381  0.00  0.00    +0.012 C 
ATOM      3  C   UNL     1      -3.386  -0.067   4.355  0.00  0.00    +0.020 C 
ATOM      4  C   UNL     1      -4.032   0.474   5.634  0.00  0.00    +0.108 C 
ATOM      5  N   UNL     1      -3.703   1.900   5.764  0.00  0.00    -0.299 N 
ATOM      6  C   UNL     1      -2.292   2.307   5.710  0.00  0.00    +0.117 C 
ATOM      7  C   UNL     1      -4.676   2.818   5.929  0.00  0.00    +0.242 C 
ATOM      8  O   UNL     1      -4.391   3.992   6.035  0.00  0.00    -0.273 OA
ENDROOT
BRANCH   7   9
ATOM      9  C   UNL     1      -6.118   2.385   5.981  0.00  0.00    +0.193 C 
ATOM     10  C   UNL     1      -6.460   1.875   7.364  0.00  0.00    -0.032 C 
ATOM     11  C   UNL     1      -7.440   2.683   7.829  0.00  0.00    +0.003 A 
ATOM     12  C   UNL     1      -8.189   2.712   9.091  0.00  0.00    -0.041 A 
ATOM     13  C   UNL     1      -9.134   3.662   9.272  0.00  0.00    +0.004 A 
ATOM     14  C   UNL     1      -9.415   4.619   8.286  0.00  0.00    +0.005 A 
ATOM     15  C   UNL     1      -8.769   4.656   7.101  0.00  0.00    -0.027 A 
ATOM     16  C   UNL     1      -7.756   3.704   6.804  0.00  0.00    +0.047 A 
ATOM     17  N   UNL     1      -7.000   3.534   5.745  0.00  0.00    -0.370 N 
ATOM     18  C   UNL     1      -9.123   5.714   6.088  0.00  0.00    +0.046 C 
ATOM     19  C   UNL     1      -7.910   1.696  10.169  0.00  0.00    +0.044 C 
ATOM     20  C   UNL     1      -5.834   0.705   8.078  0.00  0.00    +0.042 C 
ATOM     21  H   UNL     1      -7.020   4.076   4.941  0.00  0.00    +0.161 HD
ENDBRANCH   7   9
BRANCH   1  22
ATOM     22  C   UNL     1      -0.164   2.043   4.423  0.00  0.00    +0.046 C 
BRANCH  22  29
ATOM     23  C   UNL     1       0.689  -0.717   4.426  0.00  0.00    +0.044 C 
ATOM     24  C   UNL     1       0.869   0.126   3.190  0.00  0.00    -0.047 A 
ATOM     25  C   UNL     1       1.437  -0.423   2.055  0.00  0.00    +0.003 A 
ATOM     26  C   UNL     1       1.601   0.350   0.921  0.00  0.00    +0.000 A 
ATOM     27  C   UNL     1       1.198   1.672   0.922  0.00  0.00    +0.000 A 
ATOM     28  C   UNL     1       0.629   2.221   2.056  0.00  0.00    +0.004 A 
ATOM     29  C   UNL     1       0.461   1.447   3.188  0.00  0.00    -0.044 A 
ENDBRANCH  22  29
ENDBRANCH   1  22
BRANCH   1  30
ATOM     30  C   UNL     1      -2.321   2.398   3.212  0.00  0.00    +0.164 C 
BRANCH  30  31
ATOM     31  O   UNL     1      -1.862   1.754   2.022  0.00  0.00    -0.394 OA
ATOM     32  H   UNL     1      -2.238   2.117   1.208  0.00  0.00    +0.209 HD
ENDBRANCH  30  31
ENDBRANCH   1  30
TORSDOF 5
