REMARK  Name = ZINC63375802
REMARK  10 active torsions:
REMARK  status: ('A' for Active; 'I' for Inactive)
REMARK    1  A    between atoms: C_1  and  C_2
REMARK    2  A    between atoms: C_2  and  C_3
REMARK    3  A    between atoms: C_2  and  C_4
REMARK    4  A    between atoms: C_4  and  N_5
REMARK    5  A    between atoms: C_6  and  O_34
REMARK    6  A    between atoms: C_8  and  C_19
REMARK    7  A    between atoms: N_12  and  C_15
REMARK    8  A    between atoms: C_15  and  C_16
REMARK    9  A    between atoms: C_16  and  C_17
REMARK   10  A    between atoms: C_16  and  C_18
REMARK                            x       y       z     vdW  Elec       q    Type
REMARK                         _______ _______ _______ _____ _____    ______ ____
ROOT
ATOM      1  N   UNL     1      -1.665  -1.151  -1.009  0.00  0.00    -0.258 N 
ATOM      2  C   UNL     1      -1.707  -1.336  -2.461  0.00  0.00    +0.219 C 
ATOM      3  C   UNL     1      -0.778  -2.486  -2.857  0.00  0.00    +0.142 C 
ATOM      4  C   UNL     1      -1.020  -3.658  -1.939  0.00  0.00    +0.232 C 
ATOM      5  O   UNL     1      -0.922  -4.790  -2.362  0.00  0.00    -0.275 OA
ATOM      6  N   UNL     1      -1.344  -3.446  -0.651  0.00  0.00    -0.225 N 
ATOM      7  C   UNL     1      -1.539  -2.202  -0.183  0.00  0.00    +0.313 C 
ATOM      8  O   UNL     1      -1.607  -2.024   1.017  0.00  0.00    -0.252 OA
ENDROOT
BRANCH   3   9
ATOM      9  C   UNL     1       0.678  -2.031  -2.735  0.00  0.00    +0.096 C 
ATOM     10  C   UNL     1       1.608  -3.139  -3.236  0.00  0.00    +0.124 C 
ATOM     11  C   UNL     1       3.027  -2.679  -2.923  0.00  0.00    -0.036 C 
ATOM     12  C   UNL     1       3.700  -2.734  -4.064  0.00  0.00    -0.001 A 
ATOM     13  C   UNL     1       5.117  -2.496  -4.380  0.00  0.00    +0.010 A 
ATOM     14  C   UNL     1       5.471  -2.630  -5.686  0.00  0.00    +0.001 A 
ATOM     15  C   UNL     1       4.567  -2.971  -6.697  0.00  0.00    +0.002 A 
ATOM     16  C   UNL     1       3.247  -3.213  -6.496  0.00  0.00    +0.026 A 
ATOM     17  C   UNL     1       2.757  -3.110  -5.162  0.00  0.00    +0.043 A 
ATOM     18  N   UNL     1       1.543  -3.315  -4.686  0.00  0.00    -0.376 N 
ATOM     19  C   UNL     1       3.414  -2.186  -1.550  0.00  0.00    +0.048 C 
ATOM     20  C   UNL     1       2.328  -1.178  -1.133  0.00  0.00    +0.085 C 
ATOM     21  N   UNL     1       0.997  -1.762  -1.324  0.00  0.00    -0.310 NA
ATOM     22  H   UNL     1       0.285  -1.189  -0.896  0.00  0.00    +0.122 HD
ATOM     23  H   UNL     1       0.749  -3.537  -5.197  0.00  0.00    +0.160 HD
ENDBRANCH   3   9
BRANCH   2  24
ATOM     24  O   UNL     1      -3.043  -1.644  -2.863  0.00  0.00    -0.373 OA
ATOM     25  H   UNL     1      -3.688  -0.958  -2.644  0.00  0.00    +0.212 HD
ENDBRANCH   2  24
BRANCH   1  26
ATOM     26  C   UNL     1      -1.756   0.200  -0.451  0.00  0.00    +0.115 C 
BRANCH  26  28
ATOM     27  C   UNL     1      -3.224   1.803   0.782  0.00  0.00    +0.009 C 
ATOM     28  C   UNL     1      -3.147   0.412   0.148  0.00  0.00    +0.000 C 
ATOM     29  C   UNL     1      -4.201   0.295  -0.955  0.00  0.00    +0.009 C 
ENDBRANCH  26  28
ENDBRANCH   1  26
BRANCH   6  30
ATOM     30  C   UNL     1      -1.481  -4.589   0.256  0.00  0.00    +0.121 C 
BRANCH  30  31
ATOM     31  C   UNL     1      -0.130  -4.888   0.907  0.00  0.00    +0.001 C 
ATOM     32  C   UNL     1       0.279  -3.712   1.797  0.00  0.00    +0.009 C 
ATOM     33  C   UNL     1      -0.242  -6.155   1.757  0.00  0.00    +0.009 C 
ENDBRANCH  30  31
ENDBRANCH   6  30
TORSDOF 6
