REMARK  Name = ZINC13562187
REMARK  11 active torsions:
REMARK  status: ('A' for Active; 'I' for Inactive)
REMARK    1  A    between atoms: C_1  and  C_2
REMARK    2  A    between atoms: C_11  and  C_12
REMARK    3  A    between atoms: N_15  and  C_16
REMARK    4  A    between atoms: C_16  and  C_17
REMARK    5  A    between atoms: N_23  and  C_25
REMARK    6  A    between atoms: C_25  and  C_26
REMARK    7  A    between atoms: C_26  and  C_27
REMARK    8  A    between atoms: C_30  and  O_35
REMARK    9  A    between atoms: C_31  and  O_33
REMARK   10  A    between atoms: O_33  and  C_34
REMARK   11  A    between atoms: O_35  and  C_36
REMARK                            x       y       z     vdW  Elec       q    Type
REMARK                         _______ _______ _______ _____ _____    ______ ____
ROOT
ATOM      1  C   UNL     1      -3.995  -2.519  -7.990  0.00  0.00    +0.044 C 
ATOM      2  C   UNL     1      -3.162  -1.477  -7.288  0.00  0.00    -0.047 A 
ATOM      3  C   UNL     1      -3.190  -1.398  -5.928  0.00  0.00    +0.013 A 
ATOM      4  C   UNL     1      -2.417  -0.428  -5.273  0.00  0.00    +0.001 A 
ATOM      5  C   UNL     1      -2.430  -0.293  -3.875  0.00  0.00    +0.017 A 
ATOM      6  C   UNL     1      -1.658   0.677  -3.283  0.00  0.00    +0.003 A 
ATOM      7  C   UNL     1      -0.849   1.483  -4.085  0.00  0.00    +0.109 A 
ATOM      8  N   UNL     1      -0.855   1.354  -5.406  0.00  0.00    -0.240 NA
ATOM      9  C   UNL     1      -1.605   0.449  -6.034  0.00  0.00    +0.073 A 
ATOM     10  C   UNL     1      -1.607   0.341  -7.434  0.00  0.00    +0.032 A 
ATOM     11  C   UNL     1      -2.374  -0.608  -8.038  0.00  0.00    -0.045 A 
ATOM     12  C   UNL     1      -2.372  -0.718  -9.541  0.00  0.00    +0.044 C 
ATOM     13  S   UNL     1       0.229   2.712  -3.413  0.00  0.00    -0.036 S 
ATOM     14  C   UNL     1      -0.399   2.788  -1.765  0.00  0.00    +0.137 C 
ATOM     15  N   UNL     1      -0.550   3.920  -1.135  0.00  0.00    -0.365 N 
ATOM     16  N   UNL     1      -0.721   1.571  -1.179  0.00  0.00    -0.307 N 
ATOM     17  C   UNL     1      -1.789   0.793  -1.795  0.00  0.00    +0.144 C 
ATOM     18  H   UNL     1      -0.944   3.929  -0.108  0.00  0.00    +0.161 HD
ENDROOT
BRANCH  15  19
ATOM     19  C   UNL     1      -0.195   5.178  -1.795  0.00  0.00    +0.146 C 
BRANCH  19  20
ATOM     20  C   UNL     1      -1.455   6.023  -1.994  0.00  0.00    +0.137 C 
ATOM     21  C   UNL     1      -1.110   7.299  -2.792  0.00  0.00    +0.035 C 
ATOM     22  C   UNL     1      -1.982   8.374  -2.086  0.00  0.00    +0.031 C 
ATOM     23  C   UNL     1      -1.948   7.866  -0.623  0.00  0.00    +0.160 C 
ATOM     24  O   UNL     1      -1.971   6.433  -0.723  0.00  0.00    -0.375 OA
ENDBRANCH  19  20
ENDBRANCH  15  19
BRANCH  16  25
ATOM     25  C   UNL     1      -0.013   1.086   0.008  0.00  0.00    +0.112 C 
BRANCH  25  26
ATOM     26  C   UNL     1      -0.729   1.579   1.267  0.00  0.00    +0.054 C 
BRANCH  26  27
ATOM     27  C   UNL     1       0.000   1.080   2.488  0.00  0.00    -0.042 A 
ATOM     28  C   UNL     1      -0.349  -0.134   3.051  0.00  0.00    +0.007 A 
ATOM     29  C   UNL     1       0.321  -0.598   4.168  0.00  0.00    +0.049 A 
ATOM     30  C   UNL     1       1.336   0.158   4.731  0.00  0.00    +0.161 A 
ATOM     31  C   UNL     1       1.683   1.381   4.168  0.00  0.00    +0.162 A 
ATOM     32  C   UNL     1       1.012   1.839   3.045  0.00  0.00    +0.053 A 
BRANCH  31  33
ATOM     33  O   UNL     1       2.679   2.127   4.717  0.00  0.00    -0.491 OA
ATOM     34  C   UNL     1       2.982   3.372   4.085  0.00  0.00    +0.277 C 
ENDBRANCH  31  33
BRANCH  30  35
ATOM     35  O   UNL     1       1.992  -0.296   5.833  0.00  0.00    -0.491 OA
ATOM     36  C   UNL     1       1.583  -1.561   6.357  0.00  0.00    +0.277 C 
ENDBRANCH  30  35
ENDBRANCH  26  27
ENDBRANCH  25  26
ENDBRANCH  16  25
TORSDOF 7
