REMARK  Name = ZINC21808692
REMARK  12 active torsions:
REMARK  status: ('A' for Active; 'I' for Inactive)
REMARK    1  A    between atoms: C_1  and  C_2
REMARK    2  A    between atoms: C_2  and  N_3
REMARK    3  A    between atoms: N_3  and  C_4
REMARK    4  A    between atoms: N_3  and  C_6
REMARK    5  A    between atoms: C_4  and  C_5
REMARK    6  A    between atoms: C_6  and  C_7
REMARK    7  A    between atoms: C_7  and  C_8
REMARK    8  A    between atoms: C_8  and  N_9
REMARK    9  A    between atoms: C_18  and  C_19
REMARK   10  A    between atoms: C_18  and  C_20
REMARK   11  A    between atoms: N_22  and  C_23
REMARK   12  A    between atoms: C_26  and  C_29
REMARK                            x       y       z     vdW  Elec       q    Type
REMARK                         _______ _______ _______ _____ _____    ______ ____
ROOT
ATOM      1  N   UNL     1       0.868   0.147   2.347  0.00  0.00    -0.281 N 
ATOM      2  C   UNL     1       1.926   0.842   2.826  0.00  0.00    +0.264 C 
ATOM      3  O   UNL     1       2.029   2.045   2.672  0.00  0.00    -0.268 OA
ATOM      4  C   UNL     1       2.944   0.063   3.543  0.00  0.00    +0.106 A 
ATOM      5  C   UNL     1       4.016   0.470   4.281  0.00  0.00    +0.048 A 
ATOM      6  C   UNL     1       4.646  -0.674   4.753  0.00  0.00    +0.038 A 
ATOM      7  C   UNL     1       3.959  -1.810   4.299  0.00  0.00    +0.057 A 
ATOM      8  N   UNL     1       2.908  -1.327   3.541  0.00  0.00    -0.333 N 
ATOM      9  C   UNL     1       1.884  -2.074   2.807  0.00  0.00    +0.157 C 
ATOM     10  C   UNL     1       0.606  -1.233   2.738  0.00  0.00    +0.128 C 
ATOM     11  C   UNL     1      -0.346  -1.863   1.719  0.00  0.00    +0.043 C 
ATOM     12  C   UNL     1       4.489  -3.043   4.708  0.00  0.00    +0.034 A 
ATOM     13  C   UNL     1       5.591  -3.084   5.485  0.00  0.00    +0.048 A 
ATOM     14  S   UNL     1       5.977  -1.356   5.708  0.00  0.00    -0.095 S 
ENDROOT
BRANCH  10  15
ATOM     15  C   UNL     1      -0.060  -1.238   4.090  0.00  0.00    +0.238 C 
ATOM     16  O   UNL     1      -0.901  -2.072   4.348  0.00  0.00    -0.273 OA
ATOM     17  N   UNL     1       0.280  -0.315   5.011  0.00  0.00    -0.311 N 
ATOM     18  H   UNL     1       1.043   0.442   4.777  0.00  0.00    +0.149 HD
BRANCH  17  19
ATOM     19  C   UNL     1      -0.367  -0.320   6.326  0.00  0.00    +0.073 C 
ATOM     20  C   UNL     1      -1.684   0.455   6.249  0.00  0.00    +0.022 C 
ATOM     21  C   UNL     1      -1.403   1.897   5.825  0.00  0.00    +0.005 C 
ATOM     22  C   UNL     1      -0.480   2.560   6.850  0.00  0.00    -0.014 C 
ATOM     23  C   UNL     1       0.837   1.785   6.927  0.00  0.00    +0.005 C 
ATOM     24  C   UNL     1       0.555   0.342   7.351  0.00  0.00    +0.022 C 
ATOM     25  C   UNL     1      -0.199   4.003   6.426  0.00  0.00    +0.007 C 
ENDBRANCH  17  19
ENDBRANCH  10  15
BRANCH   1  26
ATOM     26  C   UNL     1      -0.047   0.806   1.411  0.00  0.00    +0.107 C 
BRANCH  26  27
ATOM     27  C   UNL     1       0.437   0.575  -0.022  0.00  0.00    +0.000 C 
BRANCH  27  28
ATOM     28  C   UNL     1      -0.518   1.263  -1.000  0.00  0.00    -0.077 C 
BRANCH  28  29
ATOM     29  N   UNL     1      -0.054   1.042  -2.376  0.00  0.00    +0.379 N 
ATOM     30  H   UNL     1       0.101  -0.039  -2.511  0.00  0.00    -0.082 HD
BRANCH  29  32
ATOM     31  C   UNL     1      -2.195   0.451  -3.408  0.00  0.00    -0.017 C 
ATOM     32  C   UNL     1      -1.063   1.479  -3.349  0.00  0.00    -0.082 C 
ENDBRANCH  29  32
BRANCH  29  33
ATOM     33  C   UNL     1       1.231   1.714  -2.612  0.00  0.00    -0.082 C 
ATOM     34  C   UNL     1       1.874   1.153  -3.882  0.00  0.00    -0.017 C 
ENDBRANCH  29  33
ENDBRANCH  28  29
ENDBRANCH  27  28
ENDBRANCH  26  27
ENDBRANCH   1  26
TORSDOF 8
