REMARK  Name = ZINC25679488
REMARK  7 active torsions:
REMARK  status: ('A' for Active; 'I' for Inactive)
REMARK    1  A    between atoms: C_1  and  N_2
REMARK    2  A    between atoms: N_2  and  C_3
REMARK    3  A    between atoms: N_2  and  C_20
REMARK    4  A    between atoms: C_3  and  C_4
REMARK    5  A    between atoms: C_4  and  C_5
REMARK    6  A    between atoms: N_7  and  N_8
REMARK    7  A    between atoms: C_20  and  C_21
REMARK                            x       y       z     vdW  Elec       q    Type
REMARK                         _______ _______ _______ _____ _____    ______ ____
ROOT
ATOM      1  C   UNL     1      -1.576   2.734   1.152  0.00  0.00    +0.228 C 
ATOM      2  O   UNL     1      -0.915   2.621   2.163  0.00  0.00    -0.274 OA
ATOM      3  N   UNL     1      -1.186   2.116   0.019  0.00  0.00    -0.224 N 
ATOM      4  H   UNL     1      -1.785   2.219  -0.897  0.00  0.00    +0.174 HD
ENDROOT
BRANCH   3   5
ATOM      5  N   UNL     1      -0.016   1.345   0.009  0.00  0.00    -0.137 N 
ATOM      6  C   UNL     1       0.002  -0.004   0.002  0.00  0.00    +0.263 C 
ATOM      7  O   UNL     1      -0.953  -0.751   0.007  0.00  0.00    -0.271 OA
ATOM      8  C   UNL     1       1.464  -0.388  -0.014  0.00  0.00    +0.114 C 
ATOM      9  C   UNL     1       1.792  -1.178  -1.276  0.00  0.00    +0.035 C 
ATOM     10  C   UNL     1       3.281  -1.532  -1.287  0.00  0.00    +0.003 C 
ATOM     11  C   UNL     1       3.616  -2.361  -0.045  0.00  0.00    +0.000 C 
ATOM     12  C   UNL     1       3.305  -1.546   1.212  0.00  0.00    +0.003 C 
ATOM     13  C   UNL     1       1.816  -1.192   1.233  0.00  0.00    +0.035 C 
ATOM     14  N   UNL     1       2.171   0.899  -0.014  0.00  0.00    -0.284 N 
ATOM     15  C   UNL     1       1.222   1.855   0.000  0.00  0.00    +0.326 C 
ATOM     16  O   UNL     1       1.462   3.046   0.004  0.00  0.00    -0.251 OA
ATOM     17  H   UNL     1       3.270   0.923  -0.024  0.00  0.00    +0.151 HD
ENDBRANCH   3   5
BRANCH   1  18
ATOM     18  C   UNL     1      -2.834   3.564   1.163  0.00  0.00    +0.079 C 
BRANCH  18  19
ATOM     19  C   UNL     1      -3.047   4.149   2.560  0.00  0.00    -0.069 C 
BRANCH  19  21
ATOM     20  C   UNL     1      -5.460   4.118   2.359  0.00  0.00    -0.096 C 
ATOM     21  N   UNL     1      -4.273   4.957   2.571  0.00  0.00    +0.381 N 
ATOM     22  H   UNL     1      -4.213   5.674   1.738  0.00  0.00    -0.082 HD
BRANCH  21  23
ATOM     23  C   UNL     1      -4.387   5.724   3.818  0.00  0.00    -0.043 C 
BRANCH  23  24
ATOM     24  C   UNL     1      -5.513   6.719   3.696  0.00  0.00    -0.063 A 
ATOM     25  C   UNL     1      -5.249   7.998   3.209  0.00  0.00    +0.002 A 
ATOM     26  C   UNL     1      -6.243   8.918   3.081  0.00  0.00    +0.009 A 
ATOM     27  C   UNL     1      -7.556   8.580   3.454  0.00  0.00    -0.018 A 
ATOM     28  C   UNL     1      -8.607   9.506   3.342  0.00  0.00    +0.008 A 
ATOM     29  C   UNL     1      -9.865   9.143   3.713  0.00  0.00    +0.001 A 
ATOM     30  C   UNL     1     -10.129   7.866   4.205  0.00  0.00    +0.001 A 
ATOM     31  C   UNL     1      -9.135   6.944   4.327  0.00  0.00    +0.008 A 
ATOM     32  C   UNL     1      -7.823   7.281   3.954  0.00  0.00    -0.018 A 
ATOM     33  C   UNL     1      -6.771   6.356   4.067  0.00  0.00    +0.010 A 
ENDBRANCH  23  24
ENDBRANCH  21  23
ENDBRANCH  19  21
ENDBRANCH  18  19
ENDBRANCH   1  18
TORSDOF 6
