REMARK  Name = ZINC50919292
REMARK  8 active torsions:
REMARK  status: ('A' for Active; 'I' for Inactive)
REMARK    1  A    between atoms: CD1_1  and  CG_2
REMARK    2  A    between atoms: CG_2  and  CD2_3
REMARK    3  A    between atoms: CG_2  and  CB_4
REMARK    4  A    between atoms: CB_4  and  CA_5
REMARK    5  A    between atoms: CA_5  and  C_7
REMARK    6  A    between atoms: CA_5  and  N_10
REMARK    7  A    between atoms: C_11  and  C_13
REMARK    8  A    between atoms: C_13  and  C_14
REMARK                            x       y       z     vdW  Elec       q    Type
REMARK                         _______ _______ _______ _____ _____    ______ ____
ROOT
ATOM      1  CA  LEU A   1       2.187  -0.073  -1.207  0.00  0.00    +0.186 C 
ENDROOT
BRANCH   1   2
ATOM      2  N   LEU A   1       2.854  -0.750  -0.092  0.00  0.00    -0.302 N 
ATOM      3  C   UNK A   0       3.949  -0.202   0.471  0.00  0.00    +0.225 C 
ATOM      4  O   UNK A   0       4.383   0.851   0.054  0.00  0.00    -0.275 OA
ATOM      5  H   LEU A   1       2.507  -1.592   0.242  0.00  0.00    +0.150 HD
BRANCH   3   6
ATOM      6  C   UNK A   0       4.635  -0.898   1.618  0.00  0.00    +0.220 C 
BRANCH   6   7
ATOM      7  C   UNK A   0       5.824  -0.085   2.061  0.00  0.00    +0.365 C 
ATOM      8  O   UNK A   0       6.090   0.963   1.497  0.00  0.00    -0.246 OA
ATOM      9  O   UNK A   0       6.519  -0.474   2.983  0.00  0.00    -0.246 OA
ENDBRANCH   6   7
ENDBRANCH   3   6
ENDBRANCH   1   2
BRANCH   1  10
ATOM     10  C   LEU A   1       2.863  -0.451  -2.500  0.00  0.00    +0.376 C 
ATOM     11  O   LEU A   1       2.879   0.335  -3.432  0.00  0.00    -0.244 OA
ATOM     12  OXT LEU A   1       3.394  -1.542  -2.614  0.00  0.00    -0.244 OA
ENDBRANCH   1  10
BRANCH   1  13
ATOM     13  CB  LEU A   1       0.718  -0.497  -1.257  0.00  0.00    +0.037 C 
BRANCH  13  15
ATOM     14  CD1 LEU A   1      -0.019   1.526   0.010  0.00  0.00    +0.007 C 
ATOM     15  CG  LEU A   1       0.002  -0.004   0.002  0.00  0.00    -0.015 C 
ATOM     16  CD2 LEU A   1      -1.433  -0.534   0.013  0.00  0.00    +0.007 C 
ENDBRANCH  13  15
ENDBRANCH   1  13
TORSDOF 6
