REMARK  Name = ZINC35702309
REMARK  15 active torsions:
REMARK  status: ('A' for Active; 'I' for Inactive)
REMARK    1  A    between atoms: C_1  and  C_2
REMARK    2  A    between atoms: C_5  and  C_8
REMARK    3  A    between atoms: C_8  and  N_9
REMARK    4  A    between atoms: C_13  and  C_35
REMARK    5  A    between atoms: C_19  and  S_22
REMARK    6  A    between atoms: S_22  and  C_23
REMARK    7  A    between atoms: C_23  and  C_24
REMARK    8  A    between atoms: C_24  and  C_25
REMARK    9  A    between atoms: C_25  and  C_26
REMARK   10  A    between atoms: C_26  and  C_27
REMARK   11  A    between atoms: N_29  and  C_30
REMARK   12  A    between atoms: C_30  and  C_31
REMARK   13  A    between atoms: C_31  and  N_32
REMARK   14  A    between atoms: N_32  and  C_33
REMARK   15  A    between atoms: N_32  and  C_34
REMARK                            x       y       z     vdW  Elec       q    Type
REMARK                         _______ _______ _______ _____ _____    ______ ____
ROOT
ATOM      1  N   UNL     1       1.447  -4.746  -0.032  0.00  0.00    -0.319 N 
ATOM      2  C   UNL     1       2.191  -4.988  -1.175  0.00  0.00    +0.053 A 
ATOM      3  C   UNL     1       1.892  -4.875  -2.529  0.00  0.00    +0.027 A 
ATOM      4  C   UNL     1       2.843  -5.189  -3.475  0.00  0.00    +0.005 A 
ATOM      5  C   UNL     1       4.104  -5.620  -3.092  0.00  0.00    -0.050 A 
ATOM      6  C   UNL     1       4.420  -5.739  -1.756  0.00  0.00    +0.015 A 
ATOM      7  C   UNL     1       3.468  -5.425  -0.789  0.00  0.00    +0.029 A 
ATOM      8  C   UNL     1       3.474  -5.439   0.684  0.00  0.00    +0.138 A 
ATOM      9  C   UNL     1       2.195  -5.003   1.090  0.00  0.00    +0.165 A 
ATOM     10  N   UNL     1       1.941  -4.920   2.392  0.00  0.00    -0.201 NA
ATOM     11  C   UNL     1       2.890  -5.244   3.261  0.00  0.00    +0.211 A 
ATOM     12  N   UNL     1       4.089  -5.649   2.854  0.00  0.00    -0.122 NA
ATOM     13  N   UNL     1       4.376  -5.753   1.601  0.00  0.00    -0.143 NA
ATOM     14  C   UNL     1       5.132  -5.959  -4.140  0.00  0.00    +0.044 C 
ENDROOT
BRANCH   1  15
ATOM     15  C   UNL     1       0.059  -4.275  -0.021  0.00  0.00    +0.159 C 
BRANCH  15  20
ATOM     16  C   UNL     1      -0.018   1.503   0.010  0.00  0.00    +0.044 C 
ATOM     17  C   UNL     1       0.002  -0.004   0.002  0.00  0.00    -0.050 A 
ATOM     18  C   UNL     1       0.006  -0.689  -1.199  0.00  0.00    +0.004 A 
ATOM     19  C   UNL     1       0.025  -2.071  -1.206  0.00  0.00    +0.005 A 
ATOM     20  C   UNL     1       0.040  -2.768  -0.013  0.00  0.00    -0.028 A 
ATOM     21  C   UNL     1       0.037  -2.084   1.188  0.00  0.00    +0.005 A 
ATOM     22  C   UNL     1       0.023  -0.702   1.195  0.00  0.00    +0.004 A 
ENDBRANCH  15  20
ENDBRANCH   1  15
BRANCH  11  23
ATOM     23  S   UNL     1       2.555  -5.136   4.987  0.00  0.00    -0.084 S 
BRANCH  23  24
ATOM     24  C   UNL     1       4.105  -5.663   5.769  0.00  0.00    +0.077 C 
BRANCH  24  25
ATOM     25  C   UNL     1       3.951  -5.615   7.290  0.00  0.00    +0.012 C 
BRANCH  25  26
ATOM     26  C   UNL     1       5.258  -6.060   7.950  0.00  0.00    +0.010 C 
BRANCH  26  27
ATOM     27  C   UNL     1       5.104  -6.012   9.471  0.00  0.00    +0.096 C 
BRANCH  27  28
ATOM     28  C   UNL     1       6.391  -6.450  10.120  0.00  0.00    +0.213 C 
ATOM     29  O   UNL     1       7.339  -6.769   9.434  0.00  0.00    -0.276 OA
ATOM     30  N   UNL     1       6.490  -6.487  11.464  0.00  0.00    -0.317 N 
ATOM     31  H   UNL     1       5.732  -6.231  12.013  0.00  0.00    +0.149 HD
BRANCH  30  32
ATOM     32  C   UNL     1       7.741  -6.913  12.095  0.00  0.00    +0.085 C 
BRANCH  32  33
ATOM     33  C   UNL     1       7.587  -6.865  13.617  0.00  0.00    -0.061 C 
BRANCH  33  34
ATOM     34  N   UNL     1       8.842  -7.292  14.250  0.00  0.00    +0.377 N 
ATOM     35  C   UNL     1       8.735  -7.132  15.706  0.00  0.00    -0.097 C 
ATOM     36  C   UNL     1       9.097  -8.703  13.930  0.00  0.00    -0.097 C 
ATOM     37  H   UNL     1       9.602  -6.726  13.905  0.00  0.00    -0.083 HD
ENDBRANCH  33  34
ENDBRANCH  32  33
ENDBRANCH  30  32
ENDBRANCH  27  28
ENDBRANCH  26  27
ENDBRANCH  25  26
ENDBRANCH  24  25
ENDBRANCH  23  24
ENDBRANCH  11  23
TORSDOF 11
