REMARK  Name = ZINC12904852
REMARK  8 active torsions:
REMARK  status: ('A' for Active; 'I' for Inactive)
REMARK    1  A    between atoms: C_4  and  N_7
REMARK    2  A    between atoms: C_8  and  C_10
REMARK    3  A    between atoms: C_10  and  N_11
REMARK    4  A    between atoms: N_11  and  C_12
REMARK    5  A    between atoms: N_11  and  S_18
REMARK    6  A    between atoms: C_12  and  C_13
REMARK    7  A    between atoms: S_18  and  C_21
REMARK    8  A    between atoms: C_26  and  N_27
REMARK                            x       y       z     vdW  Elec       q    Type
REMARK                         _______ _______ _______ _____ _____    ______ ____
ROOT
ATOM      1  N   UNL     1       3.513   0.377  -1.635  0.00  0.00    -0.160 NA
ENDROOT
BRANCH   1   2
ATOM      2  S   UNL     1       2.656   0.052  -0.255  0.00  0.00    +0.064 S 
ATOM      3  O   UNL     1       3.505   0.380   0.836  0.00  0.00    -0.153 OA
ATOM      4  O   UNL     1       2.095  -1.243  -0.422  0.00  0.00    -0.153 OA
BRANCH   2   5
ATOM      5  C   UNL     1       1.306   1.183  -0.202  0.00  0.00    +0.136 A 
ATOM      6  C   UNL     1       1.282   2.271  -1.055  0.00  0.00    +0.032 A 
ATOM      7  C   UNL     1       0.226   3.161  -1.009  0.00  0.00    +0.022 A 
ATOM      8  C   UNL     1      -0.812   2.957  -0.118  0.00  0.00    +0.043 A 
ATOM      9  C   UNL     1      -0.787   1.869   0.736  0.00  0.00    +0.054 A 
ATOM     10  C   UNL     1       0.273   0.982   0.694  0.00  0.00    +0.154 A 
ATOM     11 CL   UNL     1      -2.143   4.071  -0.065  0.00  0.00    -0.083 Cl
BRANCH  10  12
ATOM     12  N   UNL     1       0.300  -0.182   1.607  0.00  0.00    +0.058 N 
ATOM     13  O   UNL     1      -0.667  -0.431   2.305  0.00  0.00    -0.126 OA
ATOM     14  O   UNL     1       1.289  -0.891   1.660  0.00  0.00    -0.126 OA
ENDBRANCH  10  12
ENDBRANCH   2   5
ENDBRANCH   1   2
BRANCH   1  15
ATOM     15  C   UNL     1       4.580   1.380  -1.615  0.00  0.00    +0.205 C 
BRANCH  15  17
ATOM     16  N   UNL     1       7.038   1.428  -1.336  0.00  0.00    -0.284 N 
ATOM     17  C   UNL     1       5.906   0.698  -1.392  0.00  0.00    +0.233 C 
ATOM     18  O   UNL     1       5.954  -0.507  -1.262  0.00  0.00    -0.274 OA
ATOM     19  H   UNL     1       7.010   2.381  -1.513  0.00  0.00    +0.155 HD
BRANCH  16  23
ATOM     20  C   UNL     1      10.658  -0.412  -0.403  0.00  0.00    +0.000 A 
ATOM     21  C   UNL     1      10.630   0.644  -1.296  0.00  0.00    +0.002 A 
ATOM     22  C   UNL     1       9.432   1.256  -1.607  0.00  0.00    +0.023 A 
ATOM     23  C   UNL     1       8.254   0.810  -1.022  0.00  0.00    +0.033 A 
ATOM     24  C   UNL     1       8.286  -0.247  -0.122  0.00  0.00    +0.023 A 
ATOM     25  C   UNL     1       9.486  -0.858   0.181  0.00  0.00    +0.002 A 
ENDBRANCH  16  23
ENDBRANCH  15  17
ENDBRANCH   1  15
BRANCH   1  26
ATOM     26  C   UNL     1       3.203  -0.339  -2.875  0.00  0.00    +0.184 C 
BRANCH  26  27
ATOM     27  C   UNL     1       2.249   0.483  -3.704  0.00  0.00    +0.120 A 
ATOM     28  C   UNL     1       2.597   1.397  -4.628  0.00  0.00    +0.046 A 
ATOM     29  C   UNL     1       1.395   1.922  -5.157  0.00  0.00    +0.041 A 
ATOM     30  C   UNL     1       0.385   1.297  -4.524  0.00  0.00    +0.195 A 
ATOM     31  O   UNL     1       0.909   0.422  -3.650  0.00  0.00    -0.466 OA
ENDBRANCH  26  27
ENDBRANCH   1  26
TORSDOF 8
