REMARK  Name = ZINC57165235
REMARK  7 active torsions:
REMARK  status: ('A' for Active; 'I' for Inactive)
REMARK    1  A    between atoms: C_1  and  C_2
REMARK    2  A    between atoms: C_2  and  C_3
REMARK    3  A    between atoms: C_3  and  N_4
REMARK    4  A    between atoms: C_13  and  C_25
REMARK    5  A    between atoms: C_14  and  C_17
REMARK    6  A    between atoms: C_20  and  O_23
REMARK    7  A    between atoms: O_23  and  C_24
REMARK                            x       y       z     vdW  Elec       q    Type
REMARK                         _______ _______ _______ _____ _____    ______ ____
ROOT
ATOM      1  N   UNL     1       1.038  -2.702   0.233  0.00  0.00    -0.266 NA
ATOM      2  C   UNL     1       1.834  -2.944   1.445  0.00  0.00    +0.130 C 
ATOM      3  C   UNL     1       1.634  -4.365   1.906  0.00  0.00    +0.051 A 
ATOM      4  C   UNL     1       0.562  -5.114   1.455  0.00  0.00    +0.130 A 
ATOM      5  C   UNL     1       0.384  -6.428   1.891  0.00  0.00    +0.047 A 
ATOM      6  C   UNL     1       1.267  -6.993   2.765  0.00  0.00    +0.019 A 
ATOM      7  C   UNL     1       2.354  -6.250   3.225  0.00  0.00    +0.065 A 
ATOM      8  C   UNL     1       2.541  -4.923   2.799  0.00  0.00    +0.147 A 
ATOM      9  O   UNL     1       3.582  -4.202   3.259  0.00  0.00    -0.449 OA
ATOM     10  C   UNL     1       4.619  -4.776   3.872  0.00  0.00    +0.219 A 
ATOM     11  C   UNL     1       4.579  -6.048   4.350  0.00  0.00    +0.076 A 
ATOM     12  C   UNL     1       3.337  -6.823   4.163  0.00  0.00    +0.201 A 
ATOM     13  O   UNL     1       3.137  -7.874   4.748  0.00  0.00    -0.286 OA
ATOM     14  O   UNL     1      -0.333  -4.586   0.579  0.00  0.00    -0.476 OA
ATOM     15  C   UNL     1      -0.345  -3.164   0.435  0.00  0.00    +0.318 C 
ENDROOT
BRANCH  11  16
ATOM     16  C   UNL     1       5.751  -6.640   5.040  0.00  0.00    -0.010 A 
ATOM     17  C   UNL     1       6.059  -6.258   6.344  0.00  0.00    +0.012 A 
ATOM     18  C   UNL     1       7.150  -6.811   6.983  0.00  0.00    +0.046 A 
ATOM     19  C   UNL     1       7.940  -7.745   6.328  0.00  0.00    +0.120 A 
ATOM     20  C   UNL     1       7.635  -8.127   5.029  0.00  0.00    +0.046 A 
ATOM     21  C   UNL     1       6.542  -7.583   4.387  0.00  0.00    +0.012 A 
BRANCH  19  22
ATOM     22  O   UNL     1       9.014  -8.287   6.960  0.00  0.00    -0.495 OA
ATOM     23  C   UNL     1       9.784  -9.243   6.227  0.00  0.00    +0.277 C 
ENDBRANCH  19  22
ENDBRANCH  11  16
BRANCH  10  24
ATOM     24  C   UNL     1       5.887  -3.981   4.042  0.00  0.00    +0.451 C 
ATOM     25  F   UNL     1       6.896  -4.813   4.540  0.00  0.00    -0.163 F 
ATOM     26  F   UNL     1       6.281  -3.461   2.805  0.00  0.00    -0.163 F 
ATOM     27  F   UNL     1       5.663  -2.932   4.939  0.00  0.00    -0.163 F 
ENDBRANCH  10  24
BRANCH   1  28
ATOM     28  C   UNL     1       1.069  -1.282  -0.142  0.00  0.00    +0.087 C 
BRANCH  28  30
ATOM     29  C   UNL     1       0.454   0.376  -1.907  0.00  0.00    +0.005 C 
ATOM     30  C   UNL     1       0.422  -1.103  -1.517  0.00  0.00    +0.012 C 
ENDBRANCH  28  30
ENDBRANCH   1  28
TORSDOF 5
