REMARK  Name = ZINC39775391
REMARK  9 active torsions:
REMARK  status: ('A' for Active; 'I' for Inactive)
REMARK    1  A    between atoms: C_1  and  C_2
REMARK    2  A    between atoms: C_3  and  C_7
REMARK    3  A    between atoms: N_9  and  N_10
REMARK    4  A    between atoms: C_11  and  C_12
REMARK    5  A    between atoms: C_15  and  O_42
REMARK    6  A    between atoms: C_18  and  O_41
REMARK    7  A    between atoms: C_27  and  C_40
REMARK    8  A    between atoms: C_28  and  O_39
REMARK    9  A    between atoms: C_31  and  C_33
REMARK                            x       y       z     vdW  Elec       q    Type
REMARK                         _______ _______ _______ _____ _____    ______ ____
ROOT
ATOM      1  C   UNL     1      -6.721  -1.411   0.207  0.00  0.00    +0.039 C 
ATOM      2  C   UNL     1      -7.282  -2.031  -1.075  0.00  0.00    +0.018 C 
ATOM      3  C   UNL     1      -8.733  -1.605  -1.287  0.00  0.00    +0.032 C 
ATOM      4  C   UNL     1      -8.796  -0.081  -1.404  0.00  0.00    +0.117 C 
ATOM      5  C   UNL     1      -8.266   0.548  -0.118  0.00  0.00    +0.067 C 
ATOM      6  C   UNL     1      -6.820   0.114   0.135  0.00  0.00    +0.079 C 
ATOM      7  C   UNL     1      -6.341   0.760   1.436  0.00  0.00    +0.036 C 
ATOM      8  C   UNL     1      -7.132   0.229   2.636  0.00  0.00    +0.009 C 
ATOM      9  C   UNL     1      -6.962  -1.288   2.688  0.00  0.00    +0.025 C 
ATOM     10  C   UNL     1      -7.531  -1.896   1.413  0.00  0.00    +0.009 C 
ATOM     11  C   UNL     1      -7.646  -3.404   1.477  0.00  0.00    +0.005 C 
ATOM     12  C   UNL     1      -8.409  -3.911   2.711  0.00  0.00    +0.010 C 
ATOM     13  C   UNL     1      -8.761  -2.792   3.650  0.00  0.00    +0.004 C 
ATOM     14  C   UNL     1      -7.516  -1.925   3.928  0.00  0.00    +0.075 C 
ATOM     15  C   UNL     1      -8.029  -0.988   5.032  0.00  0.00    +0.036 C 
ATOM     16  C   UNL     1      -8.841  -1.951   5.941  0.00  0.00    +0.011 C 
ATOM     17  C   UNL     1      -9.207  -3.180   5.070  0.00  0.00    +0.027 C 
ATOM     18  C   UNL     1      -9.932  -1.967   3.090  0.00  0.00    +0.014 C 
ENDROOT
BRANCH  17  19
ATOM     19  C   UNL     1      -8.541  -4.431   5.583  0.00  0.00    -0.022 C 
ATOM     20  C   UNL     1      -7.543  -4.495   6.462  0.00  0.00    +0.094 C 
ATOM     21  C   UNL     1      -7.194  -5.901   6.686  0.00  0.00    +0.332 C 
ATOM     22  O   UNL     1      -6.321  -6.294   7.435  0.00  0.00    -0.246 OA
ATOM     23  O   UNL     1      -7.987  -6.692   5.939  0.00  0.00    -0.457 OA
ATOM     24  C   UNL     1      -8.883  -5.852   5.205  0.00  0.00    +0.264 C 
ENDBRANCH  17  19
BRANCH   1  26
ATOM     25  N   UNL     1      -4.357  -0.933   0.353  0.00  0.00    -0.192 NA
ATOM     26  C   UNL     1      -5.276  -1.823   0.326  0.00  0.00    +0.113 C 
BRANCH  25  29
ATOM     27  C   UNL     1      -2.046  -0.378   0.491  0.00  0.00    +0.267 C 
ATOM     28  O   UNL     1      -2.338   0.800   0.420  0.00  0.00    -0.268 OA
ATOM     29  N   UNL     1      -3.014  -1.316   0.463  0.00  0.00    -0.203 N 
ATOM     30  H   UNL     1      -2.780  -2.255   0.520  0.00  0.00    +0.178 HD
BRANCH  27  33
ATOM     31  C   UNL     1       0.432   1.544   0.583  0.00  0.00    +0.087 C 
ATOM     32  C   UNL     1       0.457   0.038   0.649  0.00  0.00    +0.114 A 
ATOM     33  C   UNL     1      -0.633  -0.781   0.607  0.00  0.00    +0.079 A 
ATOM     34  C   UNL     1      -0.104  -2.149   0.703  0.00  0.00    +0.054 A 
ATOM     35  C   UNL     1       1.229  -2.024   0.791  0.00  0.00    +0.196 A 
ATOM     36  O   UNL     1       1.552  -0.722   0.752  0.00  0.00    -0.467 OA
ENDBRANCH  27  33
ENDBRANCH  25  29
ENDBRANCH   1  26
BRANCH  14  37
ATOM     37  O   UNL     1      -6.469  -2.745   4.497  0.00  0.00    -0.388 OA
ATOM     38  H   UNL     1      -5.668  -2.255   4.728  0.00  0.00    +0.210 HD
ENDBRANCH  14  37
BRANCH   6  39
ATOM     39  O   UNL     1      -5.999   0.584  -0.941  0.00  0.00    -0.388 OA
ATOM     40  H   UNL     1      -6.008   1.544  -1.053  0.00  0.00    +0.210 HD
ENDBRANCH   6  39
BRANCH   4  41
ATOM     41  O   UNL     1     -10.153   0.322  -1.607  0.00  0.00    -0.392 OA
ATOM     42  H   UNL     1     -10.557  -0.044  -2.405  0.00  0.00    +0.210 HD
ENDBRANCH   4  41
TORSDOF 7
