REMARK  Name = ZINC09242736
REMARK  9 active torsions:
REMARK  status: ('A' for Active; 'I' for Inactive)
REMARK    1  A    between atoms: C_1  and  C_2
REMARK    2  A    between atoms: C_4  and  C_40
REMARK    3  A    between atoms: C_5  and  O_39
REMARK    4  A    between atoms: C_6  and  C_8
REMARK    5  A    between atoms: N_16  and  C_32
REMARK    6  A    between atoms: C_17  and  C_19
REMARK    7  A    between atoms: C_23  and  O_25
REMARK    8  A    between atoms: O_25  and  C_26
REMARK    9  A    between atoms: C_32  and  C_33
REMARK                            x       y       z     vdW  Elec       q    Type
REMARK                         _______ _______ _______ _____ _____    ______ ____
ROOT
ATOM      1  C   UNL     1       0.269  -3.034   2.469  0.00  0.00    +0.102 A 
ATOM      2  C   UNL     1       0.231  -2.397   3.714  0.00  0.00    +0.035 A 
ATOM      3  C   UNL     1       0.167  -3.408   4.653  0.00  0.00    +0.126 A 
ATOM      4  N   UNL     1       0.169  -4.580   3.950  0.00  0.00    -0.272 N 
ATOM      5  H   UNL     1       0.131  -5.465   4.344  0.00  0.00    +0.189 HD
ATOM      6  N   UNL     1       0.224  -4.333   2.690  0.00  0.00    -0.173 NA
ATOM      7  C   UNL     1       0.124  -2.803   5.989  0.00  0.00    +0.266 C 
ATOM      8  O   UNL     1       0.065  -3.425   7.032  0.00  0.00    -0.268 OA
ATOM      9  N   UNL     1       0.160  -1.461   5.896  0.00  0.00    -0.281 N 
ATOM     10  C   UNL     1       0.229  -1.099   4.475  0.00  0.00    +0.142 C 
ENDROOT
BRANCH   1  16
ATOM     11  C   UNL     1      -1.325   0.487  -0.690  0.00  0.00    +0.044 C 
ATOM     12  C   UNL     1      -0.422  -0.679  -0.379  0.00  0.00    -0.049 A 
ATOM     13  C   UNL     1       0.474  -1.130  -1.331  0.00  0.00    +0.010 A 
ATOM     14  C   UNL     1       1.306  -2.198  -1.055  0.00  0.00    -0.008 A 
ATOM     15  C   UNL     1       1.245  -2.824   0.180  0.00  0.00    +0.129 A 
ATOM     16  C   UNL     1       0.341  -2.370   1.144  0.00  0.00    +0.044 A 
ATOM     17  C   UNL     1      -0.488  -1.289   0.858  0.00  0.00    +0.017 A 
ATOM     18  C   UNL     1       2.279  -2.684  -2.098  0.00  0.00    +0.047 C 
BRANCH  15  19
ATOM     19  O   UNL     1       2.062  -3.875   0.452  0.00  0.00    -0.506 OA
ATOM     20  H   UNL     1       2.910  -3.623   0.843  0.00  0.00    +0.292 HD
ENDBRANCH  15  19
ENDBRANCH   1  16
BRANCH  10  21
ATOM     21  C   UNL     1       1.496  -0.333   4.196  0.00  0.00    -0.019 A 
ATOM     22  C   UNL     1       2.704  -0.794   4.688  0.00  0.00    +0.006 A 
ATOM     23  C   UNL     1       3.869  -0.093   4.434  0.00  0.00    +0.004 A 
ATOM     24  C   UNL     1       3.829   1.069   3.688  0.00  0.00    +0.046 A 
ATOM     25  C   UNL     1       2.618   1.534   3.194  0.00  0.00    +0.129 A 
ATOM     26  C   UNL     1       1.452   0.826   3.446  0.00  0.00    +0.052 A 
BRANCH  25  27
ATOM     27  O   UNL     1       2.576   2.677   2.461  0.00  0.00    -0.456 OA
BRANCH  27  28
ATOM     28  C   UNL     1       2.135   3.809   3.070  0.00  0.00    +0.128 A 
ATOM     29  C   UNL     1       1.663   3.759   4.374  0.00  0.00    +0.046 A 
ATOM     30  C   UNL     1       1.215   4.911   4.990  0.00  0.00    +0.004 A 
ATOM     31  C   UNL     1       1.235   6.114   4.308  0.00  0.00    +0.000 A 
ATOM     32  C   UNL     1       1.704   6.167   3.008  0.00  0.00    +0.004 A 
ATOM     33  C   UNL     1       2.160   5.018   2.390  0.00  0.00    +0.046 A 
ENDBRANCH  27  28
ENDBRANCH  25  27
ENDBRANCH  10  21
BRANCH   9  34
ATOM     34  C   UNL     1       0.135  -0.522   7.021  0.00  0.00    +0.145 C 
BRANCH  34  35
ATOM     35  C   UNL     1       1.545  -0.234   7.466  0.00  0.00    -0.012 A 
ATOM     36  C   UNL     1       2.150  -1.021   8.435  0.00  0.00    +0.008 A 
ATOM     37  C   UNL     1       3.449  -0.719   8.814  0.00  0.00    +0.020 A 
ATOM     38  C   UNL     1       4.093   0.349   8.218  0.00  0.00    +0.111 A 
ATOM     39  N   UNL     1       3.486   1.076   7.300  0.00  0.00    -0.263 NA
ATOM     40  C   UNL     1       2.254   0.814   6.911  0.00  0.00    +0.115 A 
ENDBRANCH  34  35
ENDBRANCH   9  34
TORSDOF 7
