REMARK  Name = ZINC06821917
REMARK  9 active torsions:
REMARK  status: ('A' for Active; 'I' for Inactive)
REMARK    1  A    between atoms: C_1  and  C_2
REMARK    2  A    between atoms: C_2  and  C_3
REMARK    3  A    between atoms: C_6  and  N_9
REMARK    4  A    between atoms: N_9  and  C_10
REMARK    5  A    between atoms: C_10  and  C_11
REMARK    6  A    between atoms: N_13  and  C_14
REMARK    7  A    between atoms: C_19  and  C_21
REMARK    8  A    between atoms: C_21  and  N_22
REMARK    9  A    between atoms: C_24  and  C_27
REMARK                            x       y       z     vdW  Elec       q    Type
REMARK                         _______ _______ _______ _____ _____    ______ ____
ROOT
ATOM      1  N   UNL     1       0.585  -0.664  -1.018  0.00  0.00    -0.261 N 
ATOM      2  C   UNL     1      -0.211  -0.025  -0.138  0.00  0.00    +0.243 C 
ATOM      3  O   UNL     1      -0.895  -0.663   0.634  0.00  0.00    -0.273 OA
ENDROOT
BRANCH   1   7
ATOM      4  C   UNL     1       0.918  -4.815  -0.892  0.00  0.00    -0.048 A 
ATOM      5  C   UNL     1       0.303  -4.205  -1.970  0.00  0.00    +0.005 A 
ATOM      6  C   UNL     1       0.191  -2.829  -2.014  0.00  0.00    +0.024 A 
ATOM      7  C   UNL     1       0.697  -2.059  -0.976  0.00  0.00    +0.037 A 
ATOM      8  C   UNL     1       1.319  -2.674   0.102  0.00  0.00    +0.024 A 
ATOM      9  C   UNL     1       1.423  -4.051   0.144  0.00  0.00    +0.005 A 
BRANCH   4  11
ATOM     10  C   UNL     1       2.350  -6.744  -1.510  0.00  0.00    +0.009 C 
ATOM     11  C   UNL     1       1.039  -6.317  -0.847  0.00  0.00    +0.032 C 
ENDBRANCH   4  11
ENDBRANCH   1   7
BRANCH   1  12
ATOM     12  C   UNL     1       1.333   0.100  -2.019  0.00  0.00    +0.209 C 
BRANCH  12  13
ATOM     13  C   UNL     1       2.680   0.478  -1.459  0.00  0.00    +0.231 C 
ATOM     14  O   UNL     1       2.986   0.141  -0.335  0.00  0.00    -0.274 OA
ATOM     15  N   UNL     1       3.546   1.190  -2.208  0.00  0.00    -0.311 N 
ATOM     16  H   UNL     1       3.301   1.459  -3.107  0.00  0.00    +0.149 HD
BRANCH  15  17
ATOM     17  C   UNL     1       4.856   1.556  -1.664  0.00  0.00    +0.073 C 
ATOM     18  C   UNL     1       4.755   2.893  -0.900  0.00  0.00    +0.022 C 
ATOM     19  C   UNL     1       6.089   3.613  -1.217  0.00  0.00    +0.002 C 
ATOM     20  C   UNL     1       6.332   3.243  -2.701  0.00  0.00    +0.002 C 
ATOM     21  C   UNL     1       5.859   1.779  -2.809  0.00  0.00    +0.022 C 
ENDBRANCH  15  17
ENDBRANCH  12  13
ENDBRANCH   1  12
BRANCH   2  22
ATOM     22  C   UNL     1      -0.250   1.481  -0.113  0.00  0.00    +0.264 C 
BRANCH  22  23
ATOM     23  N   UNL     1      -1.184   1.928   0.923  0.00  0.00    -0.154 N 
ATOM     24  N   UNL     1      -2.441   2.152   0.748  0.00  0.00    -0.130 NA
ATOM     25  C   UNL     1      -2.947   2.535   1.903  0.00  0.00    +0.205 A 
ATOM     26  N   UNL     1      -1.936   2.540   2.783  0.00  0.00    -0.108 NA
ATOM     27  N   UNL     1      -0.876   2.165   2.151  0.00  0.00    -0.045 NA
BRANCH  25  28
ATOM     28  C   UNL     1      -4.361   2.896   2.175  0.00  0.00    +0.023 A 
ATOM     29  C   UNL     1      -5.304   2.847   1.151  0.00  0.00    +0.014 A 
ATOM     30  C   UNL     1      -6.618   3.178   1.409  0.00  0.00    +0.039 A 
ATOM     31  C   UNL     1      -6.999   3.570   2.683  0.00  0.00    +0.123 A 
ATOM     32  C   UNL     1      -6.063   3.624   3.703  0.00  0.00    +0.039 A 
ATOM     33  C   UNL     1      -4.748   3.289   3.455  0.00  0.00    +0.014 A 
ATOM     34  F   UNL     1      -8.286   3.898   2.931  0.00  0.00    -0.205 F 
ENDBRANCH  25  28
ENDBRANCH  22  23
ENDBRANCH   2  22
TORSDOF 8
