REMARK  Name = ZINC39630662
REMARK  10 active torsions:
REMARK  status: ('A' for Active; 'I' for Inactive)
REMARK    1  A    between atoms: C_1  and  C_2
REMARK    2  A    between atoms: C_2  and  C_3
REMARK    3  A    between atoms: C_2  and  C_4
REMARK    4  A    between atoms: C_2  and  C_29
REMARK    5  A    between atoms: C_4  and  N_5
REMARK    6  A    between atoms: C_6  and  C_8
REMARK    7  A    between atoms: C_19  and  C_21
REMARK    8  A    between atoms: C_29  and  N_30
REMARK    9  A    between atoms: N_30  and  C_31
REMARK   10  A    between atoms: N_30  and  C_32
REMARK                            x       y       z     vdW  Elec       q    Type
REMARK                         _______ _______ _______ _____ _____    ______ ____
ROOT
ATOM      1  C   UNL     1      -5.478  -0.278   2.116  0.00  0.00    +0.100 C 
ATOM      2  C   UNL     1      -5.305  -0.405   3.646  0.00  0.00    +0.121 C 
ATOM      3  N   UNL     1      -6.682  -0.582   4.165  0.00  0.00    -0.296 N 
ATOM      4  C   UNL     1      -7.339  -1.466   3.174  0.00  0.00    +0.115 C 
ATOM      5  C   UNL     1      -6.814  -0.976   1.810  0.00  0.00    -0.004 C 
ATOM      6  C   UNL     1      -6.589  -2.160   0.875  0.00  0.00    -0.010 C 
ATOM      7  C   UNL     1      -7.937  -2.803   0.539  0.00  0.00    -0.082 C 
ATOM      8  N   UNL     1      -8.809  -1.809  -0.099  0.00  0.00    +0.379 N 
ATOM      9  C   UNL     1      -9.097  -0.719   0.841  0.00  0.00    -0.082 C 
ATOM     10  C   UNL     1      -7.797   0.012   1.190  0.00  0.00    -0.010 C 
ATOM     11  C   UNL     1      -7.216  -0.056   5.285  0.00  0.00    +0.247 C 
ATOM     12  O   UNL     1      -6.581   0.744   5.944  0.00  0.00    -0.270 OA
ATOM     13  H   UNL     1      -8.350  -1.436  -0.916  0.00  0.00    -0.086 HD
ATOM     14  H   UNL     1      -9.674  -2.250  -0.375  0.00  0.00    -0.086 HD
ENDROOT
BRANCH  11  15
ATOM     15  C   UNL     1      -8.575  -0.452   5.713  0.00  0.00    +0.042 A 
ATOM     16  C   UNL     1      -9.133  -1.646   5.255  0.00  0.00    +0.051 A 
ATOM     17  C   UNL     1     -10.403  -2.012   5.657  0.00  0.00    +0.127 A 
ATOM     18  C   UNL     1     -11.123  -1.195   6.515  0.00  0.00    +0.076 A 
ATOM     19  C   UNL     1     -10.574  -0.009   6.973  0.00  0.00    +0.127 A 
ATOM     20  C   UNL     1      -9.302   0.364   6.581  0.00  0.00    +0.051 A 
ATOM     21  F   UNL     1     -11.281   0.783   7.809  0.00  0.00    -0.205 F 
ATOM     22  F   UNL     1     -10.945  -3.167   5.214  0.00  0.00    -0.205 F 
ENDBRANCH  11  15
BRANCH   1  24
ATOM     23  N   UNL     1      -3.981  -0.566   0.168  0.00  0.00    -0.315 N 
ATOM     24  C   UNL     1      -4.348  -0.971   1.400  0.00  0.00    +0.218 C 
ATOM     25  O   UNL     1      -3.767  -1.893   1.933  0.00  0.00    -0.275 OA
ATOM     26  H   UNL     1      -4.445   0.172  -0.258  0.00  0.00    +0.149 HD
BRANCH  23  27
ATOM     27  C   UNL     1      -2.882  -1.240  -0.527  0.00  0.00    +0.108 C 
BRANCH  27  29
ATOM     28  C   UNL     1      -3.952  -0.717  -2.724  0.00  0.00    +0.010 C 
ATOM     29  C   UNL     1      -2.671  -0.591  -1.897  0.00  0.00    -0.034 C 
ATOM     30  C   UNL     1      -2.327   0.889  -1.713  0.00  0.00    +0.010 C 
BRANCH  29  31
ATOM     31  C   UNL     1      -1.523  -1.294  -2.624  0.00  0.00    -0.072 C 
BRANCH  31  32
ATOM     32  N   UNL     1      -1.328  -0.678  -3.943  0.00  0.00    +0.376 N 
ATOM     33  C   UNL     1      -0.438   0.484  -3.813  0.00  0.00    -0.097 C 
ATOM     34  C   UNL     1      -0.724  -1.657  -4.856  0.00  0.00    -0.097 C 
ATOM     35  H   UNL     1      -2.219  -0.380  -4.310  0.00  0.00    -0.083 HD
ENDBRANCH  31  32
ENDBRANCH  29  31
ENDBRANCH  27  29
ENDBRANCH  23  27
ENDBRANCH   1  24
TORSDOF 6
