REMARK  Name = ZINC33534498
REMARK  10 active torsions:
REMARK  status: ('A' for Active; 'I' for Inactive)
REMARK    1  A    between atoms: C_1  and  C_2
REMARK    2  A    between atoms: C_5  and  C_8
REMARK    3  A    between atoms: C_8  and  C_9
REMARK    4  A    between atoms: C_10  and  C_26
REMARK    5  A    between atoms: C_19  and  C_25
REMARK    6  A    between atoms: C_20  and  C_22
REMARK    7  A    between atoms: C_22  and  C_24
REMARK    8  A    between atoms: C_30  and  O_32
REMARK    9  A    between atoms: O_32  and  C_33
REMARK   10  A    between atoms: C_33  and  C_34
REMARK                            x       y       z     vdW  Elec       q    Type
REMARK                         _______ _______ _______ _____ _____    ______ ____
ROOT
ATOM      1  C   UNL     1      -3.703   3.174  -0.050  0.00  0.00    +0.077 C 
ATOM      2  C   UNL     1      -5.093   3.759  -0.155  0.00  0.00    +0.152 C 
ATOM      3  N   UNL     1      -6.020   2.626  -0.233  0.00  0.00    -0.232 N 
ATOM      4  C   UNL     1      -5.317   1.482  -0.185  0.00  0.00    +0.293 C 
ATOM      5  O   UNL     1      -5.798   0.368  -0.228  0.00  0.00    -0.266 OA
ATOM      6  C   UNL     1      -3.864   1.779  -0.076  0.00  0.00    +0.250 C 
ATOM      7  O   UNL     1      -2.969   0.956  -0.017  0.00  0.00    -0.282 OA
ATOM      8  C   UNL     1      -7.394   2.720  -0.340  0.00  0.00    +0.169 A 
ATOM      9  N   UNL     1      -8.148   3.808  -0.394  0.00  0.00    -0.229 NA
ATOM     10  C   UNL     1      -9.447   3.736  -0.496  0.00  0.00    +0.058 A 
ATOM     11  C   UNL     1     -10.023   2.468  -0.547  0.00  0.00    +0.078 A 
ATOM     12  S   UNL     1      -8.564   1.442  -0.445  0.00  0.00    -0.049 S 
ATOM     13  C   UNL     1     -10.294   4.981  -0.556  0.00  0.00    +0.067 C 
ENDROOT
BRANCH   2  14
ATOM     14  C   UNL     1      -5.205   4.604  -1.398  0.00  0.00    -0.019 A 
ATOM     15  C   UNL     1      -5.410   4.003  -2.626  0.00  0.00    +0.006 A 
ATOM     16  C   UNL     1      -5.513   4.775  -3.768  0.00  0.00    +0.004 A 
ATOM     17  C   UNL     1      -5.412   6.150  -3.684  0.00  0.00    +0.045 A 
ATOM     18  C   UNL     1      -5.207   6.756  -2.454  0.00  0.00    +0.121 A 
ATOM     19  C   UNL     1      -5.108   5.979  -1.308  0.00  0.00    +0.051 A 
BRANCH  18  20
ATOM     20  O   UNL     1      -5.107   8.109  -2.369  0.00  0.00    -0.488 OA
BRANCH  20  21
ATOM     21  C   UNL     1      -5.223   8.845  -3.588  0.00  0.00    +0.256 C 
BRANCH  21  22
ATOM     22  C   UNL     1      -5.088  10.319  -3.299  0.00  0.00    +0.006 C 
ATOM     23  C   UNL     1      -4.330  11.068  -4.061  0.00  0.00    +0.007 C 
ENDBRANCH  21  22
ENDBRANCH  20  21
ENDBRANCH  18  20
ENDBRANCH   2  14
BRANCH  11  24
ATOM     24  C   UNL     1     -11.379   2.099  -0.655  0.00  0.00    +0.168 C 
ATOM     25  O   UNL     1     -12.239   2.955  -0.719  0.00  0.00    -0.292 OA
ATOM     26  C   UNL     1     -11.762   0.642  -0.693  0.00  0.00    +0.092 C 
ENDBRANCH  11  24
BRANCH   1  27
ATOM     27  C   UNL     1      -2.516   3.870   0.046  0.00  0.00    +0.195 C 
ATOM     28  O   UNL     1      -2.524   5.221   0.048  0.00  0.00    -0.287 OA
BRANCH  27  33
ATOM     29  C   UNL     1       2.464   1.023   0.438  0.00  0.00    +0.044 C 
ATOM     30  C   UNL     1       1.159   1.769   0.335  0.00  0.00    -0.050 A 
ATOM     31  C   UNL     1       0.981   2.711  -0.663  0.00  0.00    +0.004 A 
ATOM     32  C   UNL     1      -0.208   3.401  -0.761  0.00  0.00    +0.012 A 
ATOM     33  C   UNL     1      -1.240   3.141   0.146  0.00  0.00    +0.022 A 
ATOM     34  C   UNL     1      -1.053   2.188   1.153  0.00  0.00    +0.012 A 
ATOM     35  C   UNL     1       0.144   1.509   1.240  0.00  0.00    +0.004 A 
ENDBRANCH  27  33
ENDBRANCH   1  27
TORSDOF 7
