REMARK  Name = ZINC02413333
REMARK  12 active torsions:
REMARK  status: ('A' for Active; 'I' for Inactive)
REMARK    1  A    between atoms: C_1  and  C_2
REMARK    2  A    between atoms: C_2  and  C_3
REMARK    3  A    between atoms: C_2  and  C_4
REMARK    4  A    between atoms: C_4  and  C_5
REMARK    5  A    between atoms: C_11  and  S_17
REMARK    6  A    between atoms: C_13  and  S_15
REMARK    7  A    between atoms: S_15  and  C_16
REMARK    8  A    between atoms: S_17  and  C_18
REMARK    9  A    between atoms: C_18  and  C_19
REMARK   10  A    between atoms: C_19  and  N_56
REMARK   11  A    between atoms: C_20  and  N_56
REMARK   12  A    between atoms: C_21  and  N_56
REMARK                            x       y       z     vdW  Elec       q    Type
REMARK                         _______ _______ _______ _____ _____    ______ ____
ROOT
ATOM      1  C   UNL     1       0.002  -0.004   0.002  0.00  0.00    +0.046 A 
ATOM      2  C   UNL     1       1.064  -0.682   0.586  0.00  0.00    -0.022 A 
ATOM      3  C   UNL     1       1.082  -2.058   0.584  0.00  0.00    -0.031 A 
ATOM      4  C   UNL     1       0.021  -2.764  -0.024  0.00  0.00    +0.037 A 
ATOM      5  C   UNL     1      -0.144  -4.225  -0.137  0.00  0.00    +0.093 A 
ATOM      6  C   UNL     1      -1.299  -4.662  -0.792  0.00  0.00    +0.072 A 
ATOM      7  C   UNL     1      -1.561  -6.017  -0.957  0.00  0.00    +0.116 A 
ATOM      8  N   UNL     1      -0.683  -6.896  -0.474  0.00  0.00    -0.214 NA
ATOM      9  C   UNL     1       0.410  -6.468   0.146  0.00  0.00    +0.190 A 
ATOM     10  N   UNL     1       0.686  -5.193   0.317  0.00  0.00    -0.221 NA
ATOM     11  S   UNL     1      -2.146  -3.174  -1.250  0.00  0.00    -0.064 S 
ATOM     12  C   UNL     1      -1.004  -1.984  -0.592  0.00  0.00    +0.111 A 
ATOM     13  N   UNL     1      -0.986  -0.668  -0.565  0.00  0.00    -0.244 NA
ATOM     14  C   UNL     1       2.324  -2.564   1.279  0.00  0.00    +0.036 C 
ATOM     15  C   UNL     1       2.846  -1.360   2.092  0.00  0.00    +0.009 C 
ATOM     16  C   UNL     1       2.295  -0.158   1.295  0.00  0.00    +0.037 C 
ENDROOT
BRANCH   9  17
ATOM     17  S   UNL     1       1.544  -7.664   0.769  0.00  0.00    -0.089 S 
ATOM     18  C   UNL     1       0.698  -9.187   0.274  0.00  0.00    +0.093 C 
ENDBRANCH   9  17
BRANCH   1  19
ATOM     19  C   UNL     1      -0.018   1.503   0.010  0.00  0.00    +0.058 C 
BRANCH  19  21
ATOM     20  C   UNL     1      -0.647   3.522   1.341  0.00  0.00    +0.007 C 
ATOM     21  C   UNL     1      -0.735   1.996   1.269  0.00  0.00    -0.011 C 
ATOM     22  C   UNL     1      -2.204   1.572   1.220  0.00  0.00    +0.007 C 
ENDBRANCH  19  21
ENDBRANCH   1  19
BRANCH   7  23
ATOM     23  S   UNL     1      -3.019  -6.560  -1.783  0.00  0.00    -0.107 S 
BRANCH  23  24
ATOM     24  C   UNL     1      -2.792  -8.352  -1.677  0.00  0.00    +0.057 C 
BRANCH  24  25
ATOM     25  C   UNL     1      -3.972  -9.057  -2.349  0.00  0.00    -0.068 C 
BRANCH  25  28
ATOM     26  C   UNL     1      -5.003 -11.222  -2.681  0.00  0.00    -0.097 C 
ATOM     27  C   UNL     1      -2.627 -10.943  -3.053  0.00  0.00    -0.097 C 
ATOM     28  N   UNL     1      -3.782 -10.518  -2.235  0.00  0.00    +0.376 N 
ATOM     29  H   UNL     1      -3.601 -10.756  -1.253  0.00  0.00    -0.083 HD
ENDBRANCH  25  28
ENDBRANCH  24  25
ENDBRANCH  23  24
ENDBRANCH   7  23
TORSDOF 7
