REMARK  Name = ZINC06660528
REMARK  7 active torsions:
REMARK  status: ('A' for Active; 'I' for Inactive)
REMARK    1  A    between atoms: C_1  and  C_2
REMARK    2  A    between atoms: C_6  and  C_22
REMARK    3  A    between atoms: C_7  and  C_11
REMARK    4  A    between atoms: C_11  and  C_12
REMARK    5  A    between atoms: N_14  and  C_15
REMARK    6  A    between atoms: C_23  and  O_25
REMARK    7  A    between atoms: O_25  and  C_26
REMARK                            x       y       z     vdW  Elec       q    Type
REMARK                         _______ _______ _______ _____ _____    ______ ____
ROOT
ATOM      1  C   UNL     1      -8.448   6.082   1.010  0.00  0.00    +0.044 C 
ATOM      2  C   UNL     1      -7.304   5.104   1.085  0.00  0.00    -0.043 A 
ATOM      3  C   UNL     1      -6.837   4.510  -0.071  0.00  0.00    +0.050 A 
ATOM      4  C   UNL     1      -5.784   3.608  -0.013  0.00  0.00    +0.143 A 
ATOM      5  C   UNL     1      -5.199   3.306   1.229  0.00  0.00    +0.062 A 
ATOM      6  C   UNL     1      -4.093   2.349   1.279  0.00  0.00    -0.026 A 
ATOM      7  C   UNL     1      -3.668   1.796   0.113  0.00  0.00    +0.049 A 
ATOM      8  C   UNL     1      -4.301   2.144  -1.098  0.00  0.00    +0.341 A 
ATOM      9  O   UNL     1      -3.915   1.638  -2.136  0.00  0.00    -0.245 OA
ATOM     10  O   UNL     1      -5.319   3.019  -1.136  0.00  0.00    -0.422 OA
ATOM     11  C   UNL     1      -3.438   1.990   2.589  0.00  0.00    +0.045 C 
ATOM     12  C   UNL     1      -5.681   3.917   2.397  0.00  0.00    +0.131 A 
ATOM     13  C   UNL     1      -6.732   4.812   2.312  0.00  0.00    +0.049 A 
ENDROOT
BRANCH  12  14
ATOM     14  O   UNL     1      -5.122   3.630   3.600  0.00  0.00    -0.494 OA
ATOM     15  C   UNL     1      -5.667   4.291   4.743  0.00  0.00    +0.277 C 
ENDBRANCH  12  14
BRANCH   7  16
ATOM     16  C   UNL     1      -2.529   0.810   0.114  0.00  0.00    +0.138 C 
BRANCH  16  17
ATOM     17  C   UNL     1      -1.226   1.548  -0.062  0.00  0.00    +0.222 C 
ATOM     18  O   UNL     1      -1.224   2.755  -0.177  0.00  0.00    -0.275 OA
ATOM     19  N   UNL     1      -0.064   0.865  -0.092  0.00  0.00    -0.285 N 
ATOM     20  H   UNL     1      -0.071  -0.104  -0.067  0.00  0.00    +0.155 HD
BRANCH  19  21
ATOM     21  C   UNL     1       1.151   1.555  -0.164  0.00  0.00    +0.035 A 
ATOM     22  C   UNL     1       1.241   2.730  -0.900  0.00  0.00    +0.023 A 
ATOM     23  C   UNL     1       2.440   3.412  -0.966  0.00  0.00    +0.003 A 
ATOM     24  C   UNL     1       3.554   2.921  -0.309  0.00  0.00    +0.020 A 
ATOM     25  C   UNL     1       3.469   1.748   0.421  0.00  0.00    +0.043 A 
ATOM     26  C   UNL     1       2.270   1.064   0.495  0.00  0.00    +0.043 A 
ATOM     27 CL   UNL     1       4.869   1.136   1.244  0.00  0.00    -0.083 Cl
ENDBRANCH  19  21
ENDBRANCH  16  17
ENDBRANCH   7  16
TORSDOF 4
