REMARK  Name = ZINC62531495
REMARK  6 active torsions:
REMARK  status: ('A' for Active; 'I' for Inactive)
REMARK    1  A    between atoms: C_1  and  C_2
REMARK    2  A    between atoms: C_9  and  C_15
REMARK    3  A    between atoms: C_11  and  N_14
REMARK    4  A    between atoms: C_15  and  C_16
REMARK    5  A    between atoms: C_15  and  C_17
REMARK    6  A    between atoms: C_15  and  C_18
REMARK                            x       y       z     vdW  Elec       q    Type
REMARK                         _______ _______ _______ _____ _____    ______ ____
ROOT
ATOM      1  C   UNL     1      -0.019   1.526   0.010  0.00  0.00    +0.062 C 
ATOM      2  C   UNL     1       0.002  -0.004   0.002  0.00  0.00    +0.256 C 
ATOM      3  C   UNL     1       0.707  -0.490  -1.239  0.00  0.00    +0.258 C 
ATOM      4  O   UNL     1       0.074  -0.718  -2.249  0.00  0.00    -0.271 OA
ATOM      5  N   UNL     1       2.045  -0.670  -1.222  0.00  0.00    -0.279 N 
ATOM      6  C   UNL     1       2.748  -0.434  -0.032  0.00  0.00    +0.078 A 
ATOM      7  C   UNL     1       4.128  -0.293  -0.041  0.00  0.00    +0.031 A 
ATOM      8  C   UNL     1       4.805  -0.061   1.142  0.00  0.00    -0.038 A 
ATOM      9  C   UNL     1       4.113   0.030   2.335  0.00  0.00    +0.030 A 
ATOM     10  C   UNL     1       2.732  -0.110   2.353  0.00  0.00    +0.069 A 
ATOM     11  C   UNL     1       2.046  -0.341   1.166  0.00  0.00    +0.163 A 
ATOM     12  O   UNL     1       0.693  -0.477   1.161  0.00  0.00    -0.476 OA
ATOM     13  H   UNL     1       2.513  -0.959  -2.021  0.00  0.00    +0.155 HD
ENDROOT
BRANCH   8  14
ATOM     14  C   UNL     1       6.305   0.091   1.130  0.00  0.00    -0.013 C 
ATOM     15  C   UNL     1       6.689   1.277   0.243  0.00  0.00    +0.015 C 
ATOM     16  C   UNL     1       6.803   0.338   2.556  0.00  0.00    +0.015 C 
ATOM     17  C   UNL     1       6.943  -1.185   0.580  0.00  0.00    +0.015 C 
ENDBRANCH   8  14
BRANCH  10  18
ATOM     18  N   UNL     1       2.032  -0.017   3.562  0.00  0.00    -0.355 N 
ATOM     19  H   UNL     1       2.512   0.144   4.389  0.00  0.00    +0.142 HD
ATOM     20  H   UNL     1       1.067  -0.115   3.572  0.00  0.00    +0.142 HD
ENDBRANCH  10  18
TORSDOF 2
