REMARK  Name = ZINC22937345
REMARK  7 active torsions:
REMARK  status: ('A' for Active; 'I' for Inactive)
REMARK    1  A    between atoms: N_9  and  C_10
REMARK    2  A    between atoms: C_13  and  C_15
REMARK    3  A    between atoms: N_17  and  C_18
REMARK    4  A    between atoms: C_18  and  C_19
REMARK    5  A    between atoms: C_19  and  C_20
REMARK    6  A    between atoms: C_20  and  N_21
REMARK    7  A    between atoms: N_24  and  C_27
REMARK                            x       y       z     vdW  Elec       q    Type
REMARK                         _______ _______ _______ _____ _____    ______ ____
ROOT
ATOM      1  C   UNL     1       1.378   0.048   5.936  0.00  0.00    +0.251 C 
ATOM      2  O   UNL     1       1.067   0.340   7.077  0.00  0.00    -0.270 OA
ATOM      3  N   UNL     1       2.409  -0.790   5.713  0.00  0.00    -0.311 N 
ATOM      4  H   UNL     1       2.690  -1.054   4.682  0.00  0.00    +0.149 HD
ENDROOT
BRANCH   1   8
ATOM      5  C   UNL     1      -0.377   1.335   2.498  0.00  0.00    +0.073 A 
ATOM      6  C   UNL     1      -0.947   1.836   3.651  0.00  0.00    +0.032 A 
ATOM      7  C   UNL     1      -0.426   1.461   4.859  0.00  0.00    +0.022 A 
ATOM      8  C   UNL     1       0.655   0.590   4.844  0.00  0.00    +0.076 A 
ATOM      9  S   UNL     1       0.897   0.323   3.097  0.00  0.00    -0.069 S 
BRANCH   5  18
ATOM     10  C   UNL     1       1.037   0.398  -2.397  0.00  0.00    +0.000 A 
ATOM     11  C   UNL     1       1.649  -0.011  -1.226  0.00  0.00    +0.002 A 
ATOM     12  C   UNL     1       1.118   0.343  -0.005  0.00  0.00    +0.024 A 
ATOM     13  C   UNL     1      -0.043   1.117   0.060  0.00  0.00    +0.038 A 
ATOM     14  C   UNL     1      -0.649   1.521  -1.119  0.00  0.00    -0.025 A 
ATOM     15  C   UNL     1      -0.113   1.163  -2.341  0.00  0.00    +0.005 A 
ATOM     16  C   UNL     1      -1.874   2.338  -0.775  0.00  0.00    +0.056 C 
ATOM     17  C   UNL     1      -1.905   2.358   0.762  0.00  0.00    +0.116 C 
ATOM     18  N   UNL     1      -0.738   1.578   1.182  0.00  0.00    -0.294 N 
ENDBRANCH   5  18
ENDBRANCH   1   8
BRANCH   3  19
ATOM     19  C   UNL     1       3.156  -1.350   6.842  0.00  0.00    +0.106 C 
BRANCH  19  20
ATOM     20  C   UNL     1       4.266  -2.263   6.316  0.00  0.00    +0.034 C 
BRANCH  20  21
ATOM     21  C   UNL     1       5.046  -2.848   7.495  0.00  0.00    +0.086 C 
BRANCH  21  22
ATOM     22  N   UNL     1       6.112  -3.724   6.991  0.00  0.00    -0.306 NA
ATOM     23  C   UNL     1       5.550  -4.908   6.326  0.00  0.00    +0.066 C 
ATOM     24  C   UNL     1       6.687  -5.752   5.747  0.00  0.00    -0.063 C 
ATOM     25  N   UNL     1       7.603  -6.144   6.828  0.00  0.00    +0.383 N 
ATOM     26  C   UNL     1       8.165  -4.960   7.493  0.00  0.00    -0.063 C 
ATOM     27  C   UNL     1       7.027  -4.115   8.072  0.00  0.00    +0.066 C 
ATOM     28  H   UNL     1       7.026  -6.710   7.574  0.00  0.00    -0.081 HD
BRANCH  25  29
ATOM     29  C   UNL     1       8.668  -7.020   6.324  0.00  0.00    -0.068 C 
ATOM     30  C   UNL     1       9.448  -6.294   5.226  0.00  0.00    -0.015 C 
ATOM     31  C   UNL     1      10.559  -7.207   4.700  0.00  0.00    -0.002 C 
ATOM     32  C   UNL     1       9.941  -8.484   4.128  0.00  0.00    -0.000 C 
ATOM     33  C   UNL     1       9.160  -9.210   5.226  0.00  0.00    -0.002 C 
ATOM     34  C   UNL     1       8.050  -8.297   5.751  0.00  0.00    -0.015 C 
ENDBRANCH  25  29
ENDBRANCH  21  22
ENDBRANCH  20  21
ENDBRANCH  19  20
ENDBRANCH   3  19
TORSDOF 7
