REMARK  Name = ZINC40149327
REMARK  9 active torsions:
REMARK  status: ('A' for Active; 'I' for Inactive)
REMARK    1  A    between atoms: C_1  and  C_2
REMARK    2  A    between atoms: N_5  and  C_8
REMARK    3  A    between atoms: C_8  and  C_9
REMARK    4  A    between atoms: N_21  and  C_22
REMARK    5  A    between atoms: C_22  and  C_24
REMARK    6  A    between atoms: C_22  and  C_25
REMARK    7  A    between atoms: C_28  and  N_31
REMARK    8  A    between atoms: N_31  and  S_32
REMARK    9  A    between atoms: S_32  and  C_35
REMARK                            x       y       z     vdW  Elec       q    Type
REMARK                         _______ _______ _______ _____ _____    ______ ____
ROOT
ATOM      1  C   UNL     1       0.001  -3.995   1.938  0.00  0.00    +0.116 A 
ATOM      2  N   UNL     1       1.276  -4.294   2.112  0.00  0.00    -0.219 NA
ATOM      3  C   UNL     1       1.756  -4.680   3.284  0.00  0.00    +0.131 A 
ATOM      4  C   UNL     1       0.870  -4.777   4.393  0.00  0.00    +0.051 A 
ATOM      5  C   UNL     1       1.175  -5.180   5.775  0.00  0.00    -0.025 A 
ATOM      6  C   UNL     1       0.152  -5.191   6.644  0.00  0.00    -0.004 A 
ATOM      7  S   UNL     1      -1.263  -4.671   5.699  0.00  0.00    -0.073 S 
ATOM      8  C   UNL     1      -0.471  -4.443   4.131  0.00  0.00    +0.114 A 
ATOM      9  N   UNL     1      -0.865  -4.061   2.931  0.00  0.00    -0.227 NA
ATOM     10  C   UNL     1       0.579  -5.623   8.021  0.00  0.00    +0.043 C 
ATOM     11  C   UNL     1       1.949  -6.303   7.806  0.00  0.00    +0.010 C 
ATOM     12  C   UNL     1       2.442  -5.614   6.519  0.00  0.00    +0.037 C 
ATOM     13  N   UNL     1       3.097  -4.986   3.428  0.00  0.00    -0.322 N 
ATOM     14  H   UNL     1       3.440  -5.268   4.290  0.00  0.00    +0.148 HD
ENDROOT
BRANCH  13  15
ATOM     15  C   UNL     1       3.999  -4.883   2.278  0.00  0.00    +0.099 C 
ATOM     16  C   UNL     1       3.942  -6.179   1.468  0.00  0.00    +0.033 C 
BRANCH  15  17
ATOM     17  C   UNL     1       5.408  -4.655   2.764  0.00  0.00    -0.027 A 
ATOM     18  C   UNL     1       5.873  -5.337   3.874  0.00  0.00    +0.007 A 
ATOM     19  C   UNL     1       7.163  -5.131   4.321  0.00  0.00    +0.025 A 
ATOM     20  C   UNL     1       7.994  -4.239   3.655  0.00  0.00    +0.048 A 
ATOM     21  C   UNL     1       7.523  -3.556   2.541  0.00  0.00    +0.025 A 
ATOM     22  C   UNL     1       6.234  -3.771   2.095  0.00  0.00    +0.007 A 
BRANCH  20  23
ATOM     23  N   UNL     1       9.299  -4.028   4.106  0.00  0.00    -0.221 N 
ATOM     24  H   UNL     1       9.522  -3.213   4.582  0.00  0.00    +0.173 HD
BRANCH  23  25
ATOM     25  S   UNL     1      10.466  -5.169   3.826  0.00  0.00    +0.040 S 
ATOM     26  O   UNL     1      11.643  -4.636   4.416  0.00  0.00    -0.155 OA
ATOM     27  O   UNL     1       9.905  -6.385   4.301  0.00  0.00    -0.155 OA
ATOM     28  C   UNL     1      10.641  -5.225   2.022  0.00  0.00    +0.218 C 
ENDBRANCH  23  25
ENDBRANCH  20  23
ENDBRANCH  15  17
ENDBRANCH  13  15
BRANCH   1  29
ATOM     29  C   UNL     1      -0.474  -3.563   0.574  0.00  0.00    -0.001 C 
BRANCH  29  34
ATOM     30  C   UNL     1       0.616   1.854  -0.838  0.00  0.00    +0.007 C 
ATOM     31  C   UNL     1       0.570   0.325  -0.824  0.00  0.00    -0.018 C 
ATOM     32  C   UNL     1      -0.885  -0.144  -0.919  0.00  0.00    -0.016 C 
ATOM     33  C   UNL     1      -0.930  -1.671  -0.825  0.00  0.00    -0.078 C 
ATOM     34  N   UNL     1      -0.357  -2.103   0.456  0.00  0.00    +0.384 N 
ATOM     35  C   UNL     1       1.058  -1.720   0.523  0.00  0.00    -0.078 C 
ATOM     36  C   UNL     1       1.180  -0.195   0.481  0.00  0.00    -0.016 C 
ATOM     37  H   UNL     1      -0.860  -1.665   1.213  0.00  0.00    -0.081 HD
ENDBRANCH  29  34
ENDBRANCH   1  29
TORSDOF 6
