REMARK  Name = ZINC03345288
REMARK  9 active torsions:
REMARK  status: ('A' for Active; 'I' for Inactive)
REMARK    1  A    between atoms: C_1  and  N_2
REMARK    2  A    between atoms: N_2  and  C_3
REMARK    3  A    between atoms: C_3  and  C_4
REMARK    4  A    between atoms: N_6  and  C_7
REMARK    5  A    between atoms: C_12  and  S_13
REMARK    6  A    between atoms: S_13  and  C_14
REMARK    7  A    between atoms: C_22  and  C_24
REMARK    8  A    between atoms: C_24  and  S_25
REMARK    9  A    between atoms: S_25  and  C_26
REMARK                            x       y       z     vdW  Elec       q    Type
REMARK                         _______ _______ _______ _____ _____    ______ ____
ROOT
ATOM      1  C   UNL     1       8.225  -2.170  -3.276  0.00  0.00    +0.131 C 
ATOM      2  N   UNL     1       8.968  -1.119  -2.568  0.00  0.00    -0.309 N 
ATOM      3  C   UNL     1       8.401  -0.856  -1.335  0.00  0.00    +0.134 A 
ATOM      4  C   UNL     1       9.117  -1.131  -0.137  0.00  0.00    +0.051 A 
ATOM      5  C   UNL     1      10.470  -1.693   0.011  0.00  0.00    -0.025 A 
ATOM      6  C   UNL     1      10.924  -1.860   1.263  0.00  0.00    -0.004 A 
ATOM      7  S   UNL     1       9.607  -1.287   2.313  0.00  0.00    -0.073 S 
ATOM      8  C   UNL     1       8.444  -0.825   1.059  0.00  0.00    +0.114 A 
ATOM      9  N   UNL     1       7.229  -0.311   1.054  0.00  0.00    -0.224 NA
ATOM     10  C   UNL     1       6.610  -0.081  -0.089  0.00  0.00    +0.142 A 
ATOM     11  N   UNL     1       7.183  -0.345  -1.250  0.00  0.00    -0.216 NA
ATOM     12  C   UNL     1      12.312  -2.443   1.292  0.00  0.00    +0.043 C 
ATOM     13  C   UNL     1      12.515  -3.029  -0.122  0.00  0.00    +0.010 C 
ATOM     14  C   UNL     1      11.557  -2.161  -0.961  0.00  0.00    +0.037 C 
ENDROOT
BRANCH   2  15
ATOM     15  C   UNL     1       9.053   0.103  -3.380  0.00  0.00    +0.202 C 
BRANCH  15  16
ATOM     16  C   UNL     1       9.889  -0.165  -4.604  0.00  0.00    +0.235 C 
ATOM     17  O   UNL     1      10.367  -1.265  -4.784  0.00  0.00    -0.274 OA
ATOM     18  N   UNL     1      10.106   0.818  -5.500  0.00  0.00    -0.283 N 
ATOM     19  H   UNL     1       9.779   1.714  -5.326  0.00  0.00    +0.155 HD
BRANCH  18  20
ATOM     20  C   UNL     1      10.804   0.546  -6.685  0.00  0.00    +0.047 A 
ATOM     21  C   UNL     1      11.839  -0.378  -6.685  0.00  0.00    +0.024 A 
ATOM     22  C   UNL     1      12.523  -0.649  -7.856  0.00  0.00    +0.002 A 
ATOM     23  C   UNL     1      12.186   0.006  -9.026  0.00  0.00    +0.001 A 
ATOM     24  C   UNL     1      11.160   0.932  -9.034  0.00  0.00    +0.016 A 
ATOM     25  C   UNL     1      10.464   1.207  -7.865  0.00  0.00    +0.029 A 
BRANCH  25  26
ATOM     26  S   UNL     1       9.156   2.388  -7.872  0.00  0.00    -0.127 S 
ATOM     27  C   UNL     1       9.092   2.962  -9.591  0.00  0.00    +0.090 C 
ENDBRANCH  25  26
ENDBRANCH  18  20
ENDBRANCH  15  16
ENDBRANCH   2  15
BRANCH  10  28
ATOM     28  C   UNL     1       5.221   0.501  -0.069  0.00  0.00    +0.150 C 
BRANCH  28  29
ATOM     29  S   UNL     1       4.002  -0.842  -0.029  0.00  0.00    -0.117 S 
BRANCH  29  30
ATOM     30  C   UNL     1       2.450  -0.009  -0.009  0.00  0.00    +0.008 A 
ATOM     31  C   UNL     1       1.268  -0.740   0.022  0.00  0.00    +0.015 A 
ATOM     32  C   UNL     1       0.053  -0.083   0.037  0.00  0.00    +0.001 A 
ATOM     33  C   UNL     1       0.011   1.299   0.021  0.00  0.00    +0.000 A 
ATOM     34  C   UNL     1       1.185   2.029  -0.011  0.00  0.00    +0.001 A 
ATOM     35  C   UNL     1       2.404   1.380  -0.026  0.00  0.00    +0.015 A 
ENDBRANCH  29  30
ENDBRANCH  28  29
ENDBRANCH  10  28
TORSDOF 7
