REMARK  Name = ZINC09045980
REMARK  15 active torsions:
REMARK  status: ('A' for Active; 'I' for Inactive)
REMARK    1  A    between atoms: C_1  and  C_2
REMARK    2  A    between atoms: C_2  and  O_3
REMARK    3  A    between atoms: O_3  and  C_4
REMARK    4  A    between atoms: C_4  and  C_6
REMARK    5  A    between atoms: C_7  and  C_35
REMARK    6  A    between atoms: C_8  and  C_30
REMARK    7  A    between atoms: C_10  and  N_11
REMARK    8  A    between atoms: C_12  and  C_14
REMARK    9  A    between atoms: C_14  and  N_15
REMARK   10  A    between atoms: C_19  and  C_24
REMARK   11  A    between atoms: C_21  and  S_22
REMARK   12  A    between atoms: S_22  and  C_23
REMARK   13  A    between atoms: C_30  and  O_32
REMARK   14  A    between atoms: O_32  and  C_33
REMARK   15  A    between atoms: C_33  and  C_34
REMARK                            x       y       z     vdW  Elec       q    Type
REMARK                         _______ _______ _______ _____ _____    ______ ____
ROOT
ATOM      1  N   UNL     1       3.706  -0.203  -0.034  0.00  0.00    -0.278 N 
ATOM      2  C   UNL     1       4.677   0.732  -0.039  0.00  0.00    +0.238 C 
ATOM      3  O   UNL     1       4.385   1.909  -0.030  0.00  0.00    -0.273 OA
ATOM      4  H   UNL     1       3.939  -1.145  -0.042  0.00  0.00    +0.155 HD
ENDROOT
BRANCH   1   9
ATOM      5  C   UNL     1       1.238  -0.631  -0.013  0.00  0.00    +0.091 A 
ATOM      6  C   UNL     1       0.002  -0.004   0.002  0.00  0.00    -0.014 A 
ATOM      7  C   UNL     1      -0.017   1.365   0.009  0.00  0.00    +0.102 A 
ATOM      8  S   UNL     1       1.717   1.781  -0.005  0.00  0.00    -0.066 S 
ATOM      9  C   UNL     1       2.379   0.179  -0.020  0.00  0.00    +0.087 A 
ATOM     10  C   UNL     1      -1.277  -0.801   0.010  0.00  0.00    +0.046 C 
BRANCH   5  11
ATOM     11  C   UNL     1       1.347  -2.094  -0.022  0.00  0.00    +0.342 C 
ATOM     12  O   UNL     1       1.382  -2.695  -1.078  0.00  0.00    -0.245 OA
BRANCH  11  13
ATOM     13  O   UNL     1       1.408  -2.772   1.142  0.00  0.00    -0.461 OA
BRANCH  13  15
ATOM     14  C   UNL     1       1.572  -4.808   2.468  0.00  0.00    +0.048 C 
ATOM     15  C   UNL     1       1.515  -4.218   1.058  0.00  0.00    +0.229 C 
ENDBRANCH  13  15
ENDBRANCH  11  13
ENDBRANCH   5  11
BRANCH   7  16
ATOM     16  C   UNL     1      -1.171   2.263   0.020  0.00  0.00    +0.346 C 
ATOM     17  O   UNL     1      -2.298   1.804   0.023  0.00  0.00    -0.244 OA
BRANCH  16  18
ATOM     18  O   UNL     1      -0.986   3.599   0.027  0.00  0.00    -0.461 OA
BRANCH  18  19
ATOM     19  C   UNL     1      -2.159   4.416   0.037  0.00  0.00    +0.229 C 
ATOM     20  C   UNL     1      -1.753   5.891   0.043  0.00  0.00    +0.048 C 
ENDBRANCH  18  19
ENDBRANCH  16  18
ENDBRANCH   7  16
ENDBRANCH   1   9
BRANCH   2  21
ATOM     21  C   UNL     1       6.125   0.315  -0.055  0.00  0.00    +0.223 C 
BRANCH  21  22
ATOM     22  N   UNL     1       6.977   1.506  -0.057  0.00  0.00    -0.279 N 
ATOM     23  C   UNL     1       7.379   2.048   1.112  0.00  0.00    +0.256 A 
ATOM     24  O   UNL     1       7.040   1.554   2.175  0.00  0.00    -0.268 OA
ATOM     25  C   UNL     1       8.194   3.189   1.084  0.00  0.00    +0.098 A 
ATOM     26  C   UNL     1       8.556   3.719  -0.146  0.00  0.00    +0.079 A 
ATOM     27  N   UNL     1       8.126   3.137  -1.273  0.00  0.00    -0.223 NA
ATOM     28  C   UNL     1       7.365   2.062  -1.238  0.00  0.00    +0.172 A 
BRANCH  26  29
ATOM     29  C   UNL     1       9.416   4.924  -0.213  0.00  0.00    +0.001 A 
ATOM     30  C   UNL     1       9.860   5.534   0.960  0.00  0.00    +0.010 A 
ATOM     31  C   UNL     1      10.664   6.653   0.892  0.00  0.00    +0.001 A 
ATOM     32  C   UNL     1      11.022   7.176  -0.338  0.00  0.00    +0.000 A 
ATOM     33  C   UNL     1      10.580   6.579  -1.505  0.00  0.00    +0.001 A 
ATOM     34  C   UNL     1       9.780   5.457  -1.449  0.00  0.00    +0.010 A 
ENDBRANCH  26  29
BRANCH  28  35
ATOM     35  S   UNL     1       6.832   1.333  -2.751  0.00  0.00    -0.091 S 
ATOM     36  C   UNL     1       7.623   2.452  -3.934  0.00  0.00    +0.093 C 
ENDBRANCH  28  35
ENDBRANCH  21  22
ENDBRANCH   2  21
TORSDOF 11
