REMARK  Name = ZINC01936475
REMARK  13 active torsions:
REMARK  status: ('A' for Active; 'I' for Inactive)
REMARK    1  A    between atoms: C_1  and  C_2
REMARK    2  A    between atoms: C_2  and  O_3
REMARK    3  A    between atoms: O_3  and  C_4
REMARK    4  A    between atoms: C_4  and  C_6
REMARK    5  A    between atoms: C_10  and  N_11
REMARK    6  A    between atoms: C_12  and  C_14
REMARK    7  A    between atoms: C_14  and  O_15
REMARK    8  A    between atoms: O_15  and  C_16
REMARK    9  A    between atoms: C_16  and  C_18
REMARK   10  A    between atoms: C_18  and  C_19
REMARK   11  A    between atoms: C_19  and  C_20
REMARK   12  A    between atoms: C_20  and  N_21
REMARK   13  A    between atoms: C_33  and  C_37
REMARK                            x       y       z     vdW  Elec       q    Type
REMARK                         _______ _______ _______ _____ _____    ______ ____
ROOT
ATOM      1  N   UNL     1       4.802   1.553  -0.035  0.00  0.00    -0.277 N 
ATOM      2  C   UNL     1       3.550   2.051  -0.021  0.00  0.00    +0.255 C 
ATOM      3  O   UNL     1       3.374   3.251  -0.013  0.00  0.00    -0.272 OA
ATOM      4  H   UNL     1       4.942   0.593  -0.042  0.00  0.00    +0.155 HD
ENDROOT
BRANCH   1   9
ATOM      5  C   UNL     1       7.241   2.093  -0.056  0.00  0.00    +0.091 A 
ATOM      6  C   UNL     1       8.190   3.194  -0.059  0.00  0.00    -0.021 A 
ATOM      7  C   UNL     1       7.641   4.428  -0.047  0.00  0.00    -0.004 A 
ATOM      8  S   UNL     1       5.893   4.145  -0.040  0.00  0.00    -0.077 S 
ATOM      9  C   UNL     1       5.889   2.412  -0.041  0.00  0.00    +0.086 A 
ATOM     10  C   UNL     1       8.364   5.739  -0.046  0.00  0.00    +0.046 C 
ATOM     11  C   UNL     1       9.834   5.480   0.317  0.00  0.00    -0.009 C 
ATOM     12  C   UNL     1      10.354   4.316  -0.531  0.00  0.00    +0.008 C 
ATOM     13  C   UNL     1       9.703   3.009  -0.076  0.00  0.00    +0.037 C 
ATOM     14  C   UNL     1      10.661   6.735   0.033  0.00  0.00    +0.008 C 
BRANCH   5  15
ATOM     15  C   UNL     1       7.693   0.700  -0.068  0.00  0.00    +0.342 C 
ATOM     16  O   UNL     1       7.870   0.128  -1.127  0.00  0.00    -0.245 OA
BRANCH  15  17
ATOM     17  O   UNL     1       7.913   0.052   1.094  0.00  0.00    -0.461 OA
BRANCH  17  19
ATOM     18  C   UNL     1       8.554  -1.891   2.415  0.00  0.00    +0.048 C 
ATOM     19  C   UNL     1       8.359  -1.326   1.006  0.00  0.00    +0.229 C 
ENDBRANCH  17  19
ENDBRANCH  15  17
ENDBRANCH   5  15
ENDBRANCH   1   9
BRANCH   2  20
ATOM     20  C   UNL     1       2.367   1.117  -0.015  0.00  0.00    +0.328 C 
BRANCH  20  21
ATOM     21  O   UNL     1       1.139   1.891   0.001  0.00  0.00    -0.455 OA
BRANCH  21  22
ATOM     22  C   UNL     1      -0.014   1.204   0.009  0.00  0.00    +0.308 C 
ATOM     23  O   UNL     1       0.002  -0.004   0.002  0.00  0.00    -0.251 OA
BRANCH  22  24
ATOM     24  C   UNL     1      -1.329   1.940   0.019  0.00  0.00    +0.122 C 
BRANCH  24  25
ATOM     25  C   UNL     1      -2.479   0.930   0.019  0.00  0.00    +0.031 C 
BRANCH  25  26
ATOM     26  C   UNL     1      -3.814   1.677   0.029  0.00  0.00    +0.117 C 
BRANCH  26  27
ATOM     27  N   UNL     1      -4.915   0.710   0.029  0.00  0.00    -0.234 N 
ATOM     28  C   UNL     1      -5.495   0.218  -1.080  0.00  0.00    +0.254 C 
ATOM     29  O   UNL     1      -5.195   0.500  -2.222  0.00  0.00    -0.270 OA
ATOM     30  C   UNL     1      -6.559  -0.726  -0.675  0.00  0.00    +0.049 A 
ATOM     31  C   UNL     1      -7.465  -1.516  -1.365  0.00  0.00    +0.014 A 
ATOM     32  C   UNL     1      -8.360  -2.308  -0.662  0.00  0.00    +0.001 A 
ATOM     33  C   UNL     1      -8.353  -2.316   0.720  0.00  0.00    +0.001 A 
ATOM     34  C   UNL     1      -7.452  -1.531   1.423  0.00  0.00    +0.014 A 
ATOM     35  C   UNL     1      -6.552  -0.734   0.734  0.00  0.00    +0.049 A 
ATOM     36  C   UNL     1      -5.481   0.201   1.138  0.00  0.00    +0.254 C 
ATOM     37  O   UNL     1      -5.166   0.467   2.281  0.00  0.00    -0.270 OA
ENDBRANCH  26  27
ENDBRANCH  25  26
ENDBRANCH  24  25
ENDBRANCH  22  24
ENDBRANCH  21  22
ENDBRANCH  20  21
ENDBRANCH   2  20
TORSDOF 11
