REMARK  Name = ZINC59378868
REMARK  4 active torsions:
REMARK  status: ('A' for Active; 'I' for Inactive)
REMARK    1  A    between atoms: C_4  and  N_20
REMARK    2  A    between atoms: C_6  and  C_7
REMARK    3  A    between atoms: N_8  and  C_9
REMARK    4  A    between atoms: C_12  and  C_14
REMARK                            x       y       z     vdW  Elec       q    Type
REMARK                         _______ _______ _______ _____ _____    ______ ____
ROOT
ATOM      1  C   UNL     1      -1.254  -0.762  -0.010  0.00  0.00    +0.126 C 
ATOM      2  N   UNL     1      -1.232  -2.070  -0.012  0.00  0.00    -0.222 NA
ENDROOT
BRANCH   1   8
ATOM      3  C   UNL     1      -0.012   1.392  -0.027  0.00  0.00    +0.028 A 
ATOM      4  C   UNL     1       1.174   2.093  -0.045  0.00  0.00    +0.021 A 
ATOM      5  C   UNL     1       2.385   1.418  -0.066  0.00  0.00    +0.052 A 
ATOM      6  C   UNL     1       2.417   0.037  -0.069  0.00  0.00    +0.174 A 
ATOM      7  C   UNL     1       1.235  -0.686  -0.051  0.00  0.00    +0.218 A 
ATOM      8  C   UNL     1       0.005  -0.008  -0.029  0.00  0.00    +0.043 A 
ATOM      9  O   UNL     1       1.266  -2.042  -0.055  0.00  0.00    -0.285 OA
ATOM     10 BR   UNL     1       1.150   3.984  -0.042  0.00  0.00    -0.050 Br
BRANCH   6  11
ATOM     11  N   UNL     1       3.717  -0.671  -0.091  0.00  0.00    +0.060 N 
ATOM     12  O   UNL     1       4.749  -0.041  -0.107  0.00  0.00    -0.126 OA
ATOM     13  O   UNL     1       3.746  -1.880  -0.094  0.00  0.00    -0.126 OA
ENDBRANCH   6  11
ENDBRANCH   1   8
BRANCH   2  14
ATOM     14  C   UNL     1      -2.398  -2.769   0.006  0.00  0.00    +0.214 C 
ATOM     15  N   UNL     1      -3.539  -2.134   0.026  0.00  0.00    -0.268 NA
ATOM     16  N   UNL     1      -2.376  -4.153   0.003  0.00  0.00    -0.248 N 
ATOM     17  C   UNL     1      -1.201  -4.808   0.090  0.00  0.00    +0.289 C 
ATOM     18  O   UNL     1      -0.171  -4.188   0.266  0.00  0.00    -0.266 OA
ATOM     19  H   UNL     1      -4.371  -2.630  -0.034  0.00  0.00    +0.190 HD
ATOM     20  H   UNL     1      -3.205  -4.652  -0.061  0.00  0.00    +0.158 HD
BRANCH  17  21
ATOM     21  C   UNL     1      -1.166  -6.280  -0.029  0.00  0.00    +0.239 A 
ATOM     22  N   UNL     1      -0.092  -7.048   0.036  0.00  0.00    -0.209 NA
ATOM     23  C   UNL     1      -0.494  -8.306  -0.118  0.00  0.00    +0.247 A 
ATOM     24  N   UNL     1      -1.794  -8.309  -0.275  0.00  0.00    -0.136 NA
ATOM     25  N   UNL     1      -2.227  -7.096  -0.219  0.00  0.00    -0.123 NA
ENDBRANCH  17  21
ENDBRANCH   2  14
TORSDOF 4
