REMARK  Name = ZINC01082703
REMARK  13 active torsions:
REMARK  status: ('A' for Active; 'I' for Inactive)
REMARK    1  A    between atoms: C_1  and  C_2
REMARK    2  A    between atoms: C_3  and  C_28
REMARK    3  A    between atoms: C_4  and  C_16
REMARK    4  A    between atoms: C_10  and  C_14
REMARK    5  A    between atoms: C_10  and  C_15
REMARK    6  A    between atoms: C_19  and  O_26
REMARK    7  A    between atoms: C_20  and  O_24
REMARK    8  A    between atoms: C_21  and  O_22
REMARK    9  A    between atoms: O_22  and  C_23
REMARK   10  A    between atoms: O_24  and  C_25
REMARK   11  A    between atoms: O_26  and  C_27
REMARK   12  A    between atoms: C_28  and  O_30
REMARK   13  A    between atoms: O_30  and  C_31
REMARK                            x       y       z     vdW  Elec       q    Type
REMARK                         _______ _______ _______ _____ _____    ______ ____
ROOT
ATOM      1  C   UNL     1      -0.808  -4.319  -2.568  0.00  0.00    +0.061 C 
ATOM      2  C   UNL     1      -0.413  -3.068  -1.827  0.00  0.00    +0.016 C 
ATOM      3  C   UNL     1      -1.316  -2.090  -1.639  0.00  0.00    +0.065 C 
ATOM      4  C   UNL     1      -0.961  -0.834  -0.899  0.00  0.00    +0.096 C 
ATOM      5  C   UNL     1       0.535  -0.659  -0.815  0.00  0.00    +0.024 C 
ATOM      6  C   UNL     1       1.364  -1.701  -1.038  0.00  0.00    +0.016 C 
ATOM      7  N   UNL     1       0.861  -2.936  -1.349  0.00  0.00    -0.321 N 
ATOM      8  C   UNL     1       2.861  -1.534  -0.953  0.00  0.00    +0.058 C 
ATOM      9  C   UNL     1       3.200  -0.445   0.067  0.00  0.00    -0.023 C 
ATOM     10  C   UNL     1       2.518   0.856  -0.367  0.00  0.00    +0.086 C 
ATOM     11  C   UNL     1       1.038   0.614  -0.496  0.00  0.00    +0.162 C 
ATOM     12  O   UNL     1       0.265   1.536  -0.326  0.00  0.00    -0.292 OA
ATOM     13  C   UNL     1       2.688  -0.858   1.448  0.00  0.00    +0.011 C 
ATOM     14  C   UNL     1       4.716  -0.243   0.119  0.00  0.00    +0.011 C 
ATOM     15  H   UNL     1       1.492  -3.826  -1.212  0.00  0.00    +0.152 HD
ENDROOT
BRANCH   4  16
ATOM     16  C   UNL     1      -1.530  -0.904   0.494  0.00  0.00    +0.010 A 
ATOM     17  C   UNL     1      -0.924  -1.701   1.448  0.00  0.00    +0.012 A 
ATOM     18  C   UNL     1      -1.439  -1.765   2.729  0.00  0.00    +0.050 A 
ATOM     19  C   UNL     1      -2.573  -1.038   3.059  0.00  0.00    +0.165 A 
ATOM     20  C   UNL     1      -3.188  -0.240   2.102  0.00  0.00    +0.204 A 
ATOM     21  C   UNL     1      -2.663  -0.174   0.817  0.00  0.00    +0.169 A 
BRANCH  21  22
ATOM     22  O   UNL     1      -3.262   0.605  -0.124  0.00  0.00    -0.491 OA
ATOM     23  C   UNL     1      -2.938   1.997  -0.114  0.00  0.00    +0.277 C 
ENDBRANCH  21  22
BRANCH  20  24
ATOM     24  O   UNL     1      -4.301   0.475   2.423  0.00  0.00    -0.488 OA
ATOM     25  C   UNL     1      -5.552  -0.212   2.365  0.00  0.00    +0.277 C 
ENDBRANCH  20  24
BRANCH  19  26
ATOM     26  O   UNL     1      -3.082  -1.106   4.319  0.00  0.00    -0.491 OA
ATOM     27  C   UNL     1      -2.399  -1.946   5.250  0.00  0.00    +0.277 C 
ENDBRANCH  19  26
ENDBRANCH   4  16
BRANCH   3  28
ATOM     28  C   UNL     1      -2.625  -2.247  -2.150  0.00  0.00    +0.338 C 
ATOM     29  O   UNL     1      -2.899  -3.215  -2.835  0.00  0.00    -0.245 OA
BRANCH  28  30
ATOM     30  O   UNL     1      -3.571  -1.324  -1.878  0.00  0.00    -0.458 OA
BRANCH  30  31
ATOM     31  C   UNL     1      -4.885  -1.574  -2.381  0.00  0.00    +0.177 C 
ATOM     32  C   UNL     1      -4.967  -1.072  -3.837  0.00  0.00    +0.044 C 
ATOM     33  C   UNL     1      -6.116  -1.765  -4.518  0.00  0.00    +0.004 C 
ATOM     34  C   UNL     1      -7.418  -0.943  -4.463  0.00  0.00    +0.000 C 
ATOM     35  C   UNL     1      -7.647  -0.279  -3.091  0.00  0.00    +0.000 C 
ATOM     36  C   UNL     1      -7.309  -1.194  -1.945  0.00  0.00    +0.004 C 
ATOM     37  C   UNL     1      -5.854  -0.920  -1.513  0.00  0.00    +0.044 C 
ENDBRANCH  30  31
ENDBRANCH  28  30
ENDBRANCH   3  28
TORSDOF 7
