REMARK  Name = ZINC38971835
REMARK  9 active torsions:
REMARK  status: ('A' for Active; 'I' for Inactive)
REMARK    1  A    between atoms: C_1  and  C_2
REMARK    2  A    between atoms: C_6  and  S_8
REMARK    3  A    between atoms: S_8  and  N_11
REMARK    4  A    between atoms: C_13  and  N_23
REMARK    5  A    between atoms: N_23  and  C_24
REMARK    6  A    between atoms: C_26  and  O_32
REMARK    7  A    between atoms: C_28  and  O_30
REMARK    8  A    between atoms: O_30  and  C_31
REMARK    9  A    between atoms: O_32  and  C_33
REMARK                            x       y       z     vdW  Elec       q    Type
REMARK                         _______ _______ _______ _____ _____    ______ ____
ROOT
ATOM      1  N   UNL     1       1.490  -3.474   3.100  0.00  0.00    -0.110 NA
ATOM      2  C   UNL     1       1.892  -3.980   4.229  0.00  0.00    +0.192 C 
ATOM      3  C   UNL     1       3.364  -4.015   4.572  0.00  0.00    +0.237 C 
ATOM      4  N   UNL     1       3.754  -4.600   5.865  0.00  0.00    -0.359 N 
ATOM      5  C   UNL     1       2.818  -5.057   6.649  0.00  0.00    +0.063 A 
ATOM      6  C   UNL     1       3.155  -5.651   7.951  0.00  0.00    +0.027 A 
ATOM      7  C   UNL     1       2.158  -6.114   8.736  0.00  0.00    +0.002 A 
ATOM      8  C   UNL     1       0.812  -6.042   8.339  0.00  0.00    +0.002 A 
ATOM      9  C   UNL     1       0.425  -5.511   7.159  0.00  0.00    +0.030 A 
ATOM     10  C   UNL     1       1.389  -4.994   6.256  0.00  0.00    +0.089 A 
ATOM     11  N   UNL     1       1.006  -4.473   5.109  0.00  0.00    -0.226 NA
ATOM     12  H   UNL     1       4.687  -4.644   6.128  0.00  0.00    +0.162 HD
ENDROOT
BRANCH   1  13
ATOM     13  S   UNL     1      -0.126  -3.436   2.740  0.00  0.00    +0.100 S 
ATOM     14  O   UNL     1      -0.728  -2.545   3.669  0.00  0.00    -0.146 OA
ATOM     15  O   UNL     1      -0.543  -4.787   2.599  0.00  0.00    -0.146 OA
BRANCH  13  21
ATOM     16  C   UNL     1      -0.736   0.757  -0.322  0.00  0.00    +0.044 C 
ATOM     17  C   UNL     1      -0.569  -0.736  -0.204  0.00  0.00    -0.049 A 
ATOM     18  C   UNL     1      -0.542  -1.521  -1.341  0.00  0.00    +0.003 A 
ATOM     19  C   UNL     1      -0.389  -2.891  -1.233  0.00  0.00    +0.002 A 
ATOM     20  C   UNL     1      -0.262  -3.475   0.014  0.00  0.00    +0.029 A 
ATOM     21  C   UNL     1      -0.287  -2.690   1.151  0.00  0.00    +0.113 A 
ATOM     22  C   UNL     1      -0.436  -1.320   1.042  0.00  0.00    +0.032 A 
ENDBRANCH  13  21
ENDBRANCH   1  13
BRANCH   3  23
ATOM     23  N   UNL     1       4.051  -4.765   3.518  0.00  0.00    -0.318 N 
ATOM     24  H   UNL     1       3.668  -5.590   3.181  0.00  0.00    +0.148 HD
BRANCH  23  25
ATOM     25  C   UNL     1       5.258  -4.292   2.998  0.00  0.00    +0.036 A 
ATOM     26  C   UNL     1       5.829  -4.910   1.893  0.00  0.00    +0.068 A 
ATOM     27  C   UNL     1       7.026  -4.440   1.377  0.00  0.00    +0.125 A 
ATOM     28  C   UNL     1       7.655  -3.352   1.965  0.00  0.00    +0.091 A 
ATOM     29  C   UNL     1       7.086  -2.733   3.068  0.00  0.00    +0.125 A 
ATOM     30  C   UNL     1       5.885  -3.199   3.581  0.00  0.00    +0.068 A 
BRANCH  29  31
ATOM     31  O   UNL     1       7.703  -1.668   3.643  0.00  0.00    -0.495 OA
ATOM     32  C   UNL     1       8.935  -1.239   3.059  0.00  0.00    +0.277 C 
ENDBRANCH  29  31
BRANCH  27  33
ATOM     33  O   UNL     1       7.585  -5.045   0.296  0.00  0.00    -0.495 OA
ATOM     34  C   UNL     1       8.820  -4.508  -0.182  0.00  0.00    +0.277 C 
ENDBRANCH  27  33
ENDBRANCH  23  25
ENDBRANCH   3  23
TORSDOF 6
