REMARK  Name = ZINC00989890
REMARK  10 active torsions:
REMARK  status: ('A' for Active; 'I' for Inactive)
REMARK    1  A    between atoms: C_1  and  C_2
REMARK    2  A    between atoms: C_6  and  C_28
REMARK    3  A    between atoms: C_7  and  O_8
REMARK    4  A    between atoms: O_8  and  C_9
REMARK    5  A    between atoms: C_9  and  C_10
REMARK    6  A    between atoms: N_12  and  N_13
REMARK    7  A    between atoms: C_14  and  C_15
REMARK    8  A    between atoms: C_16  and  C_27
REMARK    9  A    between atoms: N_18  and  C_21
REMARK   10  A    between atoms: C_19  and  O_20
REMARK                            x       y       z     vdW  Elec       q    Type
REMARK                         _______ _______ _______ _____ _____    ______ ____
ROOT
ATOM      1  N   UNL     1       6.041   6.108  -1.983  0.00  0.00    -0.187 NA
ATOM      2  C   UNL     1       6.711   6.519  -3.016  0.00  0.00    +0.145 C 
ENDROOT
BRANCH   2   3
ATOM      3  C   UNL     1       7.966   7.267  -2.831  0.00  0.00    +0.079 A 
ATOM      4  C   UNL     1       8.799   7.775  -3.853  0.00  0.00    +0.073 A 
ATOM      5  N   UNL     1       9.814   8.375  -3.292  0.00  0.00    -0.168 NA
ATOM      6  N   UNL     1       9.687   8.285  -1.902  0.00  0.00    -0.200 N 
ATOM      7  C   UNL     1       8.550   7.609  -1.620  0.00  0.00    +0.225 A 
ATOM      8  C   UNL     1       8.558   7.645  -5.335  0.00  0.00    +0.068 C 
BRANCH   6   9
ATOM      9  C   UNL     1      10.582   8.811  -0.961  0.00  0.00    +0.069 A 
ATOM     10  C   UNL     1      10.108   9.325   0.239  0.00  0.00    +0.028 A 
ATOM     11  C   UNL     1      10.994   9.838   1.167  0.00  0.00    +0.002 A 
ATOM     12  C   UNL     1      12.350   9.850   0.897  0.00  0.00    +0.000 A 
ATOM     13  C   UNL     1      12.825   9.344  -0.299  0.00  0.00    +0.002 A 
ATOM     14  C   UNL     1      11.944   8.825  -1.229  0.00  0.00    +0.028 A 
ENDBRANCH   6   9
BRANCH   7  15
ATOM     15  O   UNL     1       8.071   7.319  -0.386  0.00  0.00    -0.492 OA
ATOM     16  H   UNL     1       8.384   6.476  -0.031  0.00  0.00    +0.294 HD
ENDBRANCH   7  15
ENDBRANCH   2   3
BRANCH   1  19
ATOM     17  C   UNL     1       4.152   4.971  -1.086  0.00  0.00    +0.270 C 
ATOM     18  O   UNL     1       4.560   5.203   0.033  0.00  0.00    -0.270 OA
ATOM     19  N   UNL     1       4.847   5.397  -2.159  0.00  0.00    -0.204 N 
ATOM     20  H   UNL     1       4.521   5.211  -3.053  0.00  0.00    +0.177 HD
BRANCH  17  21
ATOM     21  C   UNL     1       2.868   4.205  -1.276  0.00  0.00    +0.326 C 
BRANCH  21  22
ATOM     22  O   UNL     1       2.322   3.866   0.001  0.00  0.00    -0.482 OA
BRANCH  22  29
ATOM     23  C   UNL     1       2.490   1.047  -0.016  0.00  0.00    +0.047 C 
ATOM     24  C   UNL     1       1.175   1.782   0.000  0.00  0.00    -0.007 A 
ATOM     25  C   UNL     1      -0.013   1.076   0.008  0.00  0.00    +0.022 A 
ATOM     26  C   UNL     1      -1.220   1.751   0.017  0.00  0.00    +0.019 A 
ATOM     27  C   UNL     1      -1.242   3.134   0.030  0.00  0.00    +0.022 A 
ATOM     28  C   UNL     1      -0.057   3.844   0.022  0.00  0.00    -0.007 A 
ATOM     29  C   UNL     1       1.155   3.169   0.008  0.00  0.00    +0.127 A 
ATOM     30  C   UNL     1      -0.081   5.351   0.031  0.00  0.00    +0.047 C 
ATOM     31 BR   UNL     1      -2.844   0.781   0.020  0.00  0.00    -0.050 Br
ENDBRANCH  22  29
ENDBRANCH  21  22
ENDBRANCH  17  21
ENDBRANCH   1  19
TORSDOF 7
