REMARK  Name = ZINC38546548
REMARK  11 active torsions:
REMARK  status: ('A' for Active; 'I' for Inactive)
REMARK    1  A    between atoms: C_1  and  C_2
REMARK    2  A    between atoms: C_2  and  C_3
REMARK    3  A    between atoms: C_5  and  C_16
REMARK    4  A    between atoms: C_6  and  N_8
REMARK    5  A    between atoms: C_9  and  C_11
REMARK    6  A    between atoms: C_16  and  C_18
REMARK    7  A    between atoms: C_16  and  N_26
REMARK    8  A    between atoms: C_21  and  S_24
REMARK    9  A    between atoms: S_24  and  C_25
REMARK   10  A    between atoms: N_29  and  C_32
REMARK   11  A    between atoms: C_32  and  C_33
REMARK                            x       y       z     vdW  Elec       q    Type
REMARK                         _______ _______ _______ _____ _____    ______ ____
ROOT
ATOM      1  C   UNL     1       3.909  -1.511  -2.897  0.00  0.00    +0.119 C 
ENDROOT
BRANCH   1   2
ATOM      2  N   UNL     1       4.727  -0.841  -1.877  0.00  0.00    -0.295 NA
ATOM      3  C   UNL     1       4.476   0.607  -1.868  0.00  0.00    +0.067 C 
ATOM      4  C   UNL     1       5.300   1.258  -0.756  0.00  0.00    -0.063 C 
ATOM      5  N   UNL     1       6.727   0.993  -0.984  0.00  0.00    +0.381 N 
ATOM      6  C   UNL     1       6.966  -0.457  -0.966  0.00  0.00    -0.063 C 
ATOM      7  C   UNL     1       6.155  -1.122  -2.080  0.00  0.00    +0.067 C 
ATOM      8  H   UNL     1       6.999   1.367  -1.881  0.00  0.00    -0.082 HD
BRANCH   5   9
ATOM      9  C   UNL     1       7.519   1.633   0.074  0.00  0.00    -0.082 C 
ATOM     10  C   UNL     1       9.009   1.463  -0.230  0.00  0.00    -0.017 C 
ENDBRANCH   5   9
ENDBRANCH   1   2
BRANCH   1  11
ATOM     11  C   UNL     1       4.125  -3.000  -2.816  0.00  0.00    -0.026 A 
ATOM     12  C   UNL     1       4.226  -3.616  -1.581  0.00  0.00    +0.006 A 
ATOM     13  C   UNL     1       4.425  -4.980  -1.503  0.00  0.00    +0.015 A 
ATOM     14  C   UNL     1       4.522  -5.735  -2.666  0.00  0.00    +0.008 A 
ATOM     15  C   UNL     1       4.419  -5.113  -3.904  0.00  0.00    +0.015 A 
ATOM     16  C   UNL     1       4.215  -3.749  -3.975  0.00  0.00    +0.006 A 
BRANCH  14  17
ATOM     17  S   UNL     1       4.776  -7.476  -2.571  0.00  0.00    -0.129 S 
ATOM     18  C   UNL     1       4.835  -8.006  -4.304  0.00  0.00    +0.090 C 
ENDBRANCH  14  17
ENDBRANCH   1  11
BRANCH   1  21
ATOM     19  C   UNL     1       0.707  -0.490  -1.238  0.00  0.00    -0.008 A 
ATOM     20  C   UNL     1       2.022  -0.760  -1.419  0.00  0.00    +0.018 A 
ATOM     21  C   UNL     1       2.454  -1.201  -2.657  0.00  0.00    +0.003 A 
ATOM     22  C   UNL     1       1.539  -1.349  -3.656  0.00  0.00    +0.077 A 
ATOM     23  S   UNL     1       0.024  -0.865  -2.844  0.00  0.00    -0.078 S 
BRANCH  22  24
ATOM     24  N   UNL     1       1.734  -1.773  -4.972  0.00  0.00    -0.273 N 
ATOM     25  C   UNL     1       0.688  -1.853  -5.817  0.00  0.00    +0.284 C 
ATOM     26  O   UNL     1      -0.429  -1.555  -5.433  0.00  0.00    -0.266 OA
ATOM     27  H   UNL     1       2.624  -2.011  -5.278  0.00  0.00    +0.156 HD
BRANCH  25  28
ATOM     28  C   UNL     1       0.893  -2.299  -7.199  0.00  0.00    +0.189 A 
ATOM     29  C   UNL     1      -0.074  -2.420  -8.155  0.00  0.00    +0.054 A 
ATOM     30  C   UNL     1       0.564  -2.874  -9.320  0.00  0.00    +0.042 A 
ATOM     31  C   UNL     1       1.876  -3.009  -9.027  0.00  0.00    +0.196 A 
ATOM     32  O   UNL     1       2.071  -2.657  -7.749  0.00  0.00    -0.458 OA
ENDBRANCH  25  28
ENDBRANCH  22  24
BRANCH  19  34
ATOM     33  C   UNL     1      -0.019   1.526   0.010  0.00  0.00    +0.009 C 
ATOM     34  C   UNL     1       0.002  -0.004   0.002  0.00  0.00    +0.039 C 
ENDBRANCH  19  34
ENDBRANCH   1  21
TORSDOF 8
