REMARK  Name = ZINC08299163
REMARK  7 active torsions:
REMARK  status: ('A' for Active; 'I' for Inactive)
REMARK    1  A    between atoms: C_4  and  C_7
REMARK    2  A    between atoms: C_10  and  C_13
REMARK    3  A    between atoms: N_15  and  C_18
REMARK    4  A    between atoms: C_18  and  C_19
REMARK    5  A    between atoms: C_27  and  C_29
REMARK    6  A    between atoms: N_31  and  C_32
REMARK    7  A    between atoms: C_32  and  C_33
REMARK                            x       y       z     vdW  Elec       q    Type
REMARK                         _______ _______ _______ _____ _____    ______ ____
ROOT
ATOM      1  C   UNL     1      -1.025   9.751  -3.028  0.00  0.00    -0.046 C 
ATOM      2  C   UNL     1       0.282  10.072  -2.296  0.00  0.00    -0.010 C 
ATOM      3  C   UNL     1       1.438   9.366  -3.016  0.00  0.00    -0.004 C 
ATOM      4  C   UNL     1       1.484   9.857  -4.468  0.00  0.00    -0.015 C 
ATOM      5  C   UNL     1       0.143   9.542  -5.139  0.00  0.00    -0.078 C 
ATOM      6  C   UNL     1      -0.165   7.594  -3.729  0.00  0.00    -0.065 C 
ATOM      7  C   UNL     1       1.165   7.857  -3.018  0.00  0.00    +0.061 C 
ATOM      8  N   UNL     1      -0.765   8.869  -4.186  0.00  0.00    +0.383 N 
ATOM      9  H   UNL     1      -1.654   8.668  -4.658  0.00  0.00    -0.081 HD
ENDROOT
BRANCH   7  10
ATOM     10  C   UNL     1       1.086   7.356  -1.599  0.00  0.00    +0.215 C 
ATOM     11  O   UNL     1       1.238   8.126  -0.674  0.00  0.00    -0.276 OA
ATOM     12  N   UNL     1       0.847   6.052  -1.357  0.00  0.00    -0.311 N 
ATOM     13  H   UNL     1       0.725   5.436  -2.096  0.00  0.00    +0.149 HD
BRANCH  12  14
ATOM     14  C   UNL     1       0.770   5.565   0.023  0.00  0.00    +0.139 C 
BRANCH  14  15
ATOM     15  C   UNL     1       0.495   4.083   0.018  0.00  0.00    -0.027 A 
ATOM     16  C   UNL     1      -0.808   3.623   0.028  0.00  0.00    +0.009 A 
ATOM     17  C   UNL     1      -1.066   2.265   0.019  0.00  0.00    +0.050 A 
ATOM     18  C   UNL     1      -0.016   1.361   0.009  0.00  0.00    +0.166 A 
ATOM     19  C   UNL     1       1.297   1.824  -0.001  0.00  0.00    +0.167 A 
ATOM     20  C   UNL     1       1.547   3.187   0.004  0.00  0.00    +0.054 A 
ATOM     21  O   UNL     1       2.138   0.749  -0.014  0.00  0.00    -0.453 OA
ATOM     22  C   UNL     1       1.336  -0.373   0.399  0.00  0.00    +0.466 C 
ATOM     23  O   UNL     1       0.002  -0.004   0.002  0.00  0.00    -0.453 OA
ENDBRANCH  14  15
ENDBRANCH  12  14
ENDBRANCH   7  10
BRANCH   1  24
ATOM     24  C   UNL     1      -1.985   9.043  -2.070  0.00  0.00    +0.130 C 
BRANCH  24  27
ATOM     25  C   UNL     1      -5.069   7.930  -3.550  0.00  0.00    +0.113 A 
ATOM     26  C   UNL     1      -3.910   7.656  -2.883  0.00  0.00    +0.138 A 
ATOM     27  N   UNL     1      -3.276   8.841  -2.733  0.00  0.00    -0.253 N 
ATOM     28  N   UNL     1      -3.993   9.759  -3.277  0.00  0.00    -0.065 NA
ATOM     29  N   UNL     1      -5.068   9.256  -3.774  0.00  0.00    -0.130 NA
BRANCH  25  33
ATOM     30  C   UNL     1      -8.071   5.145  -4.707  0.00  0.00    -0.018 A 
ATOM     31  C   UNL     1      -8.219   6.497  -5.014  0.00  0.00    +0.009 A 
ATOM     32  C   UNL     1      -7.247   7.398  -4.640  0.00  0.00    +0.011 A 
ATOM     33  C   UNL     1      -6.116   6.959  -3.953  0.00  0.00    +0.004 A 
ATOM     34  C   UNL     1      -5.965   5.606  -3.651  0.00  0.00    +0.011 A 
ATOM     35  C   UNL     1      -6.940   4.705  -4.021  0.00  0.00    +0.009 A 
BRANCH  30  39
ATOM     36  C   UNL     1     -11.072   2.362  -5.861  0.00  0.00    +0.000 A 
ATOM     37  C   UNL     1      -9.950   1.923  -5.181  0.00  0.00    +0.001 A 
ATOM     38  C   UNL     1      -8.973   2.822  -4.804  0.00  0.00    +0.008 A 
ATOM     39  C   UNL     1      -9.118   4.174  -5.109  0.00  0.00    -0.018 A 
ATOM     40  C   UNL     1     -10.253   4.612  -5.790  0.00  0.00    +0.008 A 
ATOM     41  C   UNL     1     -11.221   3.703  -6.167  0.00  0.00    +0.001 A 
ENDBRANCH  30  39
ENDBRANCH  25  33
ENDBRANCH  24  27
ENDBRANCH   1  24
TORSDOF 7
