REMARK  Name = ZINC04741578
REMARK  1 active torsions:
REMARK  status: ('A' for Active; 'I' for Inactive)
REMARK    1  A    between atoms: C_4  and  C_7
REMARK                            x       y       z     vdW  Elec       q    Type
REMARK                         _______ _______ _______ _____ _____    ______ ____
ROOT
ATOM      1  C   UNL     1       1.295  -0.523   0.630  0.00  0.00    +0.032 C 
ATOM      2  C   UNL     1       0.002  -0.004   0.002  0.00  0.00    +0.060 C 
ATOM      3  C   UNL     1      -0.018   1.507   0.010  0.00  0.00    +0.020 C 
ATOM      4  C   UNL     1       1.121   2.231   0.003  0.00  0.00    +0.038 C 
ATOM      5  C   UNL     1       2.374   1.589  -0.033  0.00  0.00    +0.164 C 
ATOM      6  O   UNL     1       3.395   2.242   0.030  0.00  0.00    -0.292 OA
ATOM      7  C   UNL     1       2.475   0.091  -0.132  0.00  0.00    +0.088 C 
ATOM      8  C   UNL     1       1.117   3.741   0.046  0.00  0.00    +0.078 C 
ATOM      9  C   UNL     1       2.062   4.296  -1.030  0.00  0.00    +0.033 C 
ATOM     10  C   UNL     1       3.044   5.251  -0.329  0.00  0.00    +0.003 C 
ATOM     11  C   UNL     1       2.523   5.448   1.104  0.00  0.00    +0.003 C 
ATOM     12  C   UNL     1       1.665   4.205   1.407  0.00  0.00    +0.033 C 
ATOM     13  N   UNL     1      -0.228   4.268  -0.156  0.00  0.00    -0.301 N 
ATOM     14  C   UNL     1      -0.653   5.543  -0.401  0.00  0.00    +0.071 A 
ATOM     15  C   UNL     1       0.015   6.746  -0.594  0.00  0.00    +0.028 A 
ATOM     16  C   UNL     1      -0.759   7.875  -0.812  0.00  0.00    +0.002 A 
ATOM     17  C   UNL     1      -2.142   7.822  -0.843  0.00  0.00    +0.002 A 
ATOM     18  C   UNL     1      -2.832   6.637  -0.670  0.00  0.00    +0.030 A 
ATOM     19  C   UNL     1      -2.069   5.483  -0.456  0.00  0.00    +0.091 A 
ATOM     20  N   UNL     1      -2.424   4.197  -0.275  0.00  0.00    -0.214 NA
ATOM     21  C   UNL     1      -1.350   3.470  -0.122  0.00  0.00    +0.201 A 
ATOM     22  N   UNL     1      -1.258   2.099   0.031  0.00  0.00    -0.288 N 
ATOM     23  H   UNL     1      -2.058   1.561   0.149  0.00  0.00    +0.155 HD
ENDROOT
BRANCH   1  27
ATOM     24  C   UNL     1       1.441  -4.781   0.320  0.00  0.00    +0.000 A 
ATOM     25  C   UNL     1       1.470  -4.177   1.563  0.00  0.00    +0.000 A 
ATOM     26  C   UNL     1       1.423  -2.799   1.664  0.00  0.00    +0.004 A 
ATOM     27  C   UNL     1       1.347  -2.025   0.521  0.00  0.00    -0.044 A 
ATOM     28  C   UNL     1       1.313  -2.629  -0.722  0.00  0.00    +0.004 A 
ATOM     29  C   UNL     1       1.365  -4.007  -0.823  0.00  0.00    +0.000 A 
ENDBRANCH   1  27
TORSDOF 1
