REMARK  Name = ZINC63513988
REMARK  10 active torsions:
REMARK  status: ('A' for Active; 'I' for Inactive)
REMARK    1  A    between atoms: C_1  and  C_2
REMARK    2  A    between atoms: C_4  and  C_12
REMARK    3  A    between atoms: C_12  and  C_13
REMARK    4  A    between atoms: C_13  and  N_14
REMARK    5  A    between atoms: N_14  and  C_15
REMARK    6  A    between atoms: C_15  and  C_17
REMARK    7  A    between atoms: C_15  and  C_25
REMARK    8  A    between atoms: N_30  and  C_31
REMARK    9  A    between atoms: C_34  and  O_37
REMARK   10  A    between atoms: O_37  and  C_38
REMARK                            x       y       z     vdW  Elec       q    Type
REMARK                         _______ _______ _______ _____ _____    ______ ____
ROOT
ATOM      1  C   UNL     1       1.948  -1.382  -5.890  0.00  0.00    +0.120 C 
ENDROOT
BRANCH   1   2
ATOM      2  C   UNL     1       1.262  -1.666  -7.228  0.00  0.00    +0.164 C 
ATOM      3  N   UNL     1       0.741  -0.407  -7.814  0.00  0.00    -0.327 NA
ATOM      4  N   UNL     1      -0.553  -0.827  -8.382  0.00  0.00    +0.410 N 
ATOM      5  N   UNL     1      -1.027  -1.822  -7.412  0.00  0.00    -0.266 NA
ATOM      6  N   UNL     1       0.087  -2.530  -7.022  0.00  0.00    -0.262 N 
ATOM      7  H   UNL     1       0.612   0.297  -7.103  0.00  0.00    +0.106 HD
ATOM      8  H   UNL     1      -1.190  -0.046  -8.434  0.00  0.00    -0.031 HD
ATOM      9  H   UNL     1      -1.467  -1.375  -6.621  0.00  0.00    +0.125 HD
ATOM     10  H   UNL     1      -0.424  -1.246  -9.291  0.00  0.00    -0.031 HD
BRANCH   6  11
ATOM     11  C   UNL     1       0.102  -3.836  -6.520  0.00  0.00    +0.045 A 
ATOM     12  C   UNL     1       1.305  -4.428  -6.159  0.00  0.00    +0.028 A 
ATOM     13  C   UNL     1       1.319  -5.717  -5.663  0.00  0.00    +0.047 A 
ATOM     14  C   UNL     1       0.132  -6.420  -5.526  0.00  0.00    +0.120 A 
ATOM     15  C   UNL     1      -1.071  -5.830  -5.888  0.00  0.00    +0.047 A 
ATOM     16  C   UNL     1      -1.087  -4.540  -6.378  0.00  0.00    +0.028 A 
BRANCH  14  17
ATOM     17  O   UNL     1       0.146  -7.690  -5.038  0.00  0.00    -0.495 OA
ATOM     18  C   UNL     1      -1.113  -8.355  -4.924  0.00  0.00    +0.277 C 
ENDBRANCH  14  17
ENDBRANCH   6  11
ENDBRANCH   1   2
BRANCH   1  19
ATOM     19  C   UNL     1       3.131  -0.475  -6.115  0.00  0.00    -0.009 A 
ATOM     20  C   UNL     1       3.025   0.878  -5.855  0.00  0.00    +0.008 A 
ATOM     21  C   UNL     1       4.109   1.709  -6.061  0.00  0.00    +0.020 A 
ATOM     22  C   UNL     1       5.303   1.188  -6.529  0.00  0.00    +0.042 A 
ATOM     23  C   UNL     1       5.410  -0.167  -6.789  0.00  0.00    +0.040 A 
ATOM     24  C   UNL     1       4.325  -0.999  -6.577  0.00  0.00    +0.047 A 
ATOM     25 CL   UNL     1       4.461  -2.700  -6.898  0.00  0.00    -0.083 Cl
ATOM     26 CL   UNL     1       6.664   2.232  -6.788  0.00  0.00    -0.083 Cl
ENDBRANCH   1  19
BRANCH   1  27
ATOM     27  N   UNL     1       0.997  -0.728  -4.981  0.00  0.00    -0.306 NA
ATOM     28  H   UNL     1       0.053  -1.034  -5.164  0.00  0.00    +0.123 HD
BRANCH  27  29
ATOM     29  C   UNL     1       1.364  -0.963  -3.578  0.00  0.00    +0.086 C 
BRANCH  29  30
ATOM     30  C   UNL     1       0.353  -0.268  -2.664  0.00  0.00    +0.048 C 
BRANCH  30  33
ATOM     31  C   UNL     1      -0.019   1.526   0.010  0.00  0.00    +0.035 C 
ATOM     32  C   UNL     1       0.002  -0.004   0.002  0.00  0.00    +0.103 C 
ATOM     33  C   UNL     1       0.729  -0.509  -1.224  0.00  0.00    -0.038 C 
ATOM     34  C   UNL     1       1.785  -1.220  -0.768  0.00  0.00    -0.001 A 
ATOM     35  C   UNL     1       2.858  -1.954  -1.449  0.00  0.00    +0.010 A 
ATOM     36  C   UNL     1       3.797  -2.583  -0.705  0.00  0.00    +0.001 A 
ATOM     37  C   UNL     1       3.770  -2.551   0.696  0.00  0.00    +0.002 A 
ATOM     38  C   UNL     1       2.817  -1.897   1.393  0.00  0.00    +0.026 A 
ATOM     39  C   UNL     1       1.780  -1.201   0.712  0.00  0.00    +0.043 A 
ATOM     40  N   UNL     1       0.758  -0.506   1.155  0.00  0.00    -0.378 N 
ATOM     41  H   UNL     1       0.540  -0.349   2.087  0.00  0.00    +0.160 HD
ENDBRANCH  30  33
ENDBRANCH  29  30
ENDBRANCH  27  29
ENDBRANCH   1  27
TORSDOF 8
