REMARK  Name = ZINC12470726
REMARK  16 active torsions:
REMARK  status: ('A' for Active; 'I' for Inactive)
REMARK    1  A    between atoms: C_1  and  C_2
REMARK    2  A    between atoms: C_5  and  N_8
REMARK    3  A    between atoms: N_8  and  C_9
REMARK    4  A    between atoms: C_9  and  C_11
REMARK    5  A    between atoms: C_9  and  C_20
REMARK    6  A    between atoms: C_14  and  N_17
REMARK    7  A    between atoms: N_17  and  C_18
REMARK    8  A    between atoms: N_17  and  C_19
REMARK    9  A    between atoms: N_22  and  C_23
REMARK   10  A    between atoms: C_23  and  C_24
REMARK   11  A    between atoms: C_23  and  C_25
REMARK   12  A    between atoms: C_23  and  C_26
REMARK   13  A    between atoms: C_27  and  C_29
REMARK   14  A    between atoms: C_29  and  N_30
REMARK   15  A    between atoms: C_32  and  C_35
REMARK   16  A    between atoms: C_38  and  C_40
REMARK                            x       y       z     vdW  Elec       q    Type
REMARK                         _______ _______ _______ _____ _____    ______ ____
ROOT
ATOM      1  N   UNL     1       0.920   1.578   0.122  0.00  0.00    -0.254 N 
ATOM      2  C   UNL     1       0.010   0.932  -0.633  0.00  0.00    +0.244 C 
ATOM      3  O   UNL     1       0.360   0.346  -1.636  0.00  0.00    -0.273 OA
ENDROOT
BRANCH   1   8
ATOM      4  C   UNL     1      -0.760   4.647   4.588  0.00  0.00    +0.044 C 
ATOM      5  C   UNL     1      -0.314   3.832   3.401  0.00  0.00    -0.050 A 
ATOM      6  C   UNL     1      -0.638   4.242   2.121  0.00  0.00    +0.005 A 
ATOM      7  C   UNL     1      -0.230   3.497   1.032  0.00  0.00    +0.024 A 
ATOM      8  C   UNL     1       0.506   2.335   1.223  0.00  0.00    +0.038 A 
ATOM      9  C   UNL     1       0.824   1.923   2.511  0.00  0.00    +0.024 A 
ATOM     10  C   UNL     1       0.418   2.675   3.595  0.00  0.00    +0.005 A 
ENDBRANCH   1   8
BRANCH   1  11
ATOM     11  C   UNL     1       2.344   1.488  -0.210  0.00  0.00    +0.197 C 
BRANCH  11  12
ATOM     12  C   UNL     1       3.156   2.150   0.873  0.00  0.00    -0.018 A 
ATOM     13  C   UNL     1       2.924   3.474   1.198  0.00  0.00    +0.008 A 
ATOM     14  C   UNL     1       3.662   4.082   2.194  0.00  0.00    +0.023 A 
ATOM     15  C   UNL     1       4.646   3.366   2.862  0.00  0.00    +0.029 A 
ATOM     16  C   UNL     1       4.881   2.038   2.530  0.00  0.00    +0.023 A 
ATOM     17  C   UNL     1       4.135   1.434   1.536  0.00  0.00    +0.008 A 
BRANCH  15  18
ATOM     18  N   UNL     1       5.399   3.980   3.866  0.00  0.00    -0.336 N 
ATOM     19  C   UNL     1       6.517   3.264   4.485  0.00  0.00    +0.129 C 
ATOM     20  C   UNL     1       5.069   5.340   4.301  0.00  0.00    +0.129 C 
ENDBRANCH  15  18
ENDBRANCH  11  12
BRANCH  11  21
ATOM     21  C   UNL     1       2.599   2.182  -1.524  0.00  0.00    +0.239 C 
ATOM     22  O   UNL     1       1.681   2.701  -2.123  0.00  0.00    -0.273 OA
ATOM     23  N   UNL     1       3.846   2.226  -2.032  0.00  0.00    -0.309 N 
ATOM     24  H   UNL     1       4.580   1.811  -1.553  0.00  0.00    +0.149 HD
BRANCH  23  25
ATOM     25  C   UNL     1       4.093   2.901  -3.309  0.00  0.00    +0.026 C 
ATOM     26  C   UNL     1       3.688   4.372  -3.195  0.00  0.00    +0.031 C 
ATOM     27  C   UNL     1       5.580   2.807  -3.656  0.00  0.00    +0.031 C 
ATOM     28  C   UNL     1       3.269   2.229  -4.409  0.00  0.00    +0.031 C 
ENDBRANCH  23  25
ENDBRANCH  11  21
ENDBRANCH   1  11
BRANCH   2  29
ATOM     29  C   UNL     1      -1.443   0.943  -0.235  0.00  0.00    +0.264 C 
BRANCH  29  30
ATOM     30  N   UNL     1      -2.203   0.073  -1.136  0.00  0.00    -0.154 N 
ATOM     31  N   UNL     1      -2.764   0.446  -2.235  0.00  0.00    -0.127 NA
ATOM     32  C   UNL     1      -3.349  -0.611  -2.768  0.00  0.00    +0.239 A 
ATOM     33  N   UNL     1      -3.121  -1.637  -1.934  0.00  0.00    -0.105 NA
ATOM     34  N   UNL     1      -2.420  -1.182  -0.951  0.00  0.00    -0.045 NA
BRANCH  32  35
ATOM     35  C   UNL     1      -4.111  -0.654  -4.035  0.00  0.00    +0.175 A 
ATOM     36  C   UNL     1      -4.706  -1.752  -4.570  0.00  0.00    +0.053 A 
ATOM     37  C   UNL     1      -5.316  -1.338  -5.771  0.00  0.00    +0.045 A 
ATOM     38  C   UNL     1      -5.058  -0.024  -5.912  0.00  0.00    +0.103 A 
ATOM     39  O   UNL     1      -4.329   0.386  -4.862  0.00  0.00    -0.457 OA
ATOM     40  C   UNL     1      -5.511   0.843  -7.059  0.00  0.00    +0.086 C 
ENDBRANCH  32  35
ENDBRANCH  29  30
ENDBRANCH   2  29
TORSDOF 9
