REMARK  Name = ZINC63490712
REMARK  9 active torsions:
REMARK  status: ('A' for Active; 'I' for Inactive)
REMARK    1  A    between atoms: C_1  and  C_2
REMARK    2  A    between atoms: C_7  and  O_31
REMARK    3  A    between atoms: C_13  and  C_15
REMARK    4  A    between atoms: C_15  and  C_16
REMARK    5  A    between atoms: N_18  and  C_19
REMARK    6  A    between atoms: C_19  and  C_20
REMARK    7  A    between atoms: C_20  and  C_21
REMARK    8  A    between atoms: O_31  and  C_32
REMARK    9  A    between atoms: C_32  and  C_34
REMARK                            x       y       z     vdW  Elec       q    Type
REMARK                         _______ _______ _______ _____ _____    ______ ____
ROOT
ATOM      1  C   UNL     1       0.466  -1.960   1.467  0.00  0.00    +0.111 C 
ENDROOT
BRANCH   1  13
ATOM      2  C   UNL     1      -0.104   1.522  -0.034  0.00  0.00    +0.013 C 
ATOM      3  C   UNL     1      -0.037  -0.006  -0.018  0.00  0.00    +0.034 C 
ATOM      4  C   UNL     1       0.676  -0.489  -1.256  0.00  0.00    +0.000 A 
ATOM      5  C   UNL     1      -0.035  -0.554  -2.445  0.00  0.00    +0.031 A 
ATOM      6  C   UNL     1       0.578  -0.984  -3.604  0.00  0.00    +0.084 A 
ATOM      7  C   UNL     1       1.917  -1.353  -3.585  0.00  0.00    +0.153 A 
ATOM      8  C   UNL     1       2.629  -1.291  -2.399  0.00  0.00    +0.094 A 
ATOM      9  C   UNL     1       2.009  -0.862  -1.232  0.00  0.00    +0.139 A 
ATOM     10  O   UNL     1       2.740  -0.836  -0.084  0.00  0.00    -0.425 OA
ATOM     11  C   UNL     1       2.194  -0.231   0.990  0.00  0.00    +0.316 C 
ATOM     12  O   UNL     1       2.851   0.468   1.724  0.00  0.00    -0.250 OA
ATOM     13  C   UNL     1       0.719  -0.469   1.230  0.00  0.00    +0.114 C 
ATOM     14 CL   UNL     1      -0.324  -1.064  -5.085  0.00  0.00    -0.080 Cl
BRANCH   7  15
ATOM     15  O   UNL     1       2.525  -1.774  -4.725  0.00  0.00    -0.424 OA
BRANCH  15  16
ATOM     16  C   UNL     1       2.969  -0.841  -5.583  0.00  0.00    +0.309 C 
ATOM     17  O   UNL     1       2.911   0.329  -5.287  0.00  0.00    -0.251 OA
ATOM     18  C   UNL     1       3.537  -1.253  -6.917  0.00  0.00    +0.136 C 
ENDBRANCH  15  16
ENDBRANCH   7  15
ENDBRANCH   1  13
BRANCH   1  19
ATOM     19  C   UNL     1       1.111  -2.379   2.763  0.00  0.00    +0.214 C 
ATOM     20  O   UNL     1       1.714  -1.566   3.431  0.00  0.00    -0.276 OA
ATOM     21  N   UNL     1       1.018  -3.658   3.179  0.00  0.00    -0.315 N 
ATOM     22  H   UNL     1       0.536  -4.308   2.644  0.00  0.00    +0.149 HD
BRANCH  21  23
ATOM     23  C   UNL     1       1.646  -4.066   4.438  0.00  0.00    +0.108 C 
BRANCH  23  24
ATOM     24  C   UNL     1       1.393  -5.556   4.675  0.00  0.00    +0.052 C 
BRANCH  24  25
ATOM     25  C   UNL     1       2.038  -5.975   5.970  0.00  0.00    -0.040 C 
ATOM     26  C   UNL     1       1.448  -6.057   7.184  0.00  0.00    +0.002 A 
ATOM     27  C   UNL     1       0.080  -5.789   7.644  0.00  0.00    +0.048 A 
ATOM     28  C   UNL     1      -0.219  -5.964   8.953  0.00  0.00    +0.124 A 
ATOM     29  C   UNL     1       0.745  -6.395   9.878  0.00  0.00    +0.040 A 
ATOM     30  C   UNL     1       2.021  -6.660   9.530  0.00  0.00    +0.029 A 
ATOM     31  C   UNL     1       2.445  -6.510   8.180  0.00  0.00    +0.043 A 
ATOM     32  N   UNL     1       3.607  -6.701   7.604  0.00  0.00    -0.380 N 
ATOM     33  C   UNL     1       3.476  -6.397   6.175  0.00  0.00    +0.144 C 
ATOM     34  F   UNL     1      -1.477  -5.718   9.379  0.00  0.00    -0.205 F 
ATOM     35  H   UNL     1       4.417  -6.998   8.048  0.00  0.00    +0.160 HD
ENDBRANCH  24  25
ENDBRANCH  23  24
ENDBRANCH  21  23
ENDBRANCH   1  19
TORSDOF 7
