REMARK  Name = ZINC14475888
REMARK  5 active torsions:
REMARK  status: ('A' for Active; 'I' for Inactive)
REMARK    1  A    between atoms: C_1  and  C_2
REMARK    2  A    between atoms: C_7  and  C_8
REMARK    3  A    between atoms: C_10  and  C_19
REMARK    4  A    between atoms: C_21  and  N_26
REMARK    5  A    between atoms: C_24  and  O_25
REMARK                            x       y       z     vdW  Elec       q    Type
REMARK                         _______ _______ _______ _____ _____    ______ ____
ROOT
ATOM      1  C   UNL     1       5.715   7.783   0.558  0.00  0.00    +0.044 C 
ATOM      2  C   UNL     1       4.396   7.229   0.085  0.00  0.00    -0.046 A 
ATOM      3  C   UNL     1       3.573   8.000  -0.716  0.00  0.00    +0.004 A 
ATOM      4  C   UNL     1       2.361   7.489  -1.141  0.00  0.00    +0.006 A 
ATOM      5  C   UNL     1       1.969   6.219  -0.774  0.00  0.00    -0.019 A 
ATOM      6  C   UNL     1       2.798   5.425   0.022  0.00  0.00    +0.035 A 
ATOM      7  C   UNL     1       4.015   5.957   0.450  0.00  0.00    -0.026 A 
ATOM      8  C   UNL     1       4.923   5.131   1.324  0.00  0.00    +0.046 C 
ATOM      9  N   UNL     1       2.476   4.112   0.420  0.00  0.00    -0.336 N 
ATOM     10  C   UNL     1       1.160   3.598   0.010  0.00  0.00    +0.108 C 
ATOM     11  C   UNL     1       0.893   4.118  -1.387  0.00  0.00    +0.029 C 
ATOM     12  C   UNL     1       0.671   5.652  -1.201  0.00  0.00    +0.049 C 
ATOM     13  C   UNL     1       0.017   6.053  -2.471  0.00  0.00    -0.023 C 
ATOM     14  C   UNL     1      -0.654   5.010  -2.947  0.00  0.00    -0.030 C 
ATOM     15  C   UNL     1      -0.452   3.778  -2.039  0.00  0.00    +0.033 C 
ATOM     16  H   UNL     1       3.155   3.478   1.008  0.00  0.00    +0.147 HD
ENDROOT
BRANCH  10  17
ATOM     17  C   UNL     1       1.176   2.091   0.002  0.00  0.00    +0.017 A 
ATOM     18  C   UNL     1       2.380   1.413  -0.013  0.00  0.00    +0.041 A 
ATOM     19  C   UNL     1       2.396   0.030  -0.021  0.00  0.00    +0.127 A 
ATOM     20  C   UNL     1       1.208  -0.677  -0.013  0.00  0.00    +0.036 A 
ATOM     21  C   UNL     1       0.002  -0.004   0.002  0.00  0.00    +0.048 A 
ATOM     22  C   UNL     1      -0.017   1.383   0.010  0.00  0.00    +0.122 A 
BRANCH  19  23
ATOM     23  N   UNL     1       3.687  -0.693  -0.038  0.00  0.00    +0.056 N 
ATOM     24  O   UNL     1       3.702  -1.911  -0.044  0.00  0.00    -0.126 OA
ATOM     25  O   UNL     1       4.734  -0.071  -0.045  0.00  0.00    -0.126 OA
ENDBRANCH  19  23
BRANCH  22  26
ATOM     26  O   UNL     1      -1.202   2.048   0.019  0.00  0.00    -0.506 OA
ATOM     27  H   UNL     1      -2.148   1.486   0.025  0.00  0.00    +0.292 HD
ENDBRANCH  22  26
ENDBRANCH  10  17
TORSDOF 3
