REMARK  Name = ZINC16553930
REMARK  9 active torsions:
REMARK  status: ('A' for Active; 'I' for Inactive)
REMARK    1  A    between atoms: C_1  and  C_2
REMARK    2  A    between atoms: C_3  and  C_9
REMARK    3  A    between atoms: C_4  and  N_7
REMARK    4  A    between atoms: N_7  and  C_8
REMARK    5  A    between atoms: C_9  and  O_11
REMARK    6  A    between atoms: O_11  and  C_12
REMARK    7  A    between atoms: C_12  and  C_14
REMARK    8  A    between atoms: C_12  and  C_15
REMARK    9  A    between atoms: N_20  and  C_21
REMARK                            x       y       z     vdW  Elec       q    Type
REMARK                         _______ _______ _______ _____ _____    ______ ____
ROOT
ATOM      1  C   UNL     1       8.218   2.098   0.785  0.00  0.00    +0.259 C 
ATOM      2  C   UNL     1       8.331   2.900  -0.513  0.00  0.00    +0.062 C 
ENDROOT
BRANCH   1   3
ATOM      3  C   UNL     1       6.781   2.076   1.238  0.00  0.00    +0.261 C 
ATOM      4  O   UNL     1       6.464   2.617   2.276  0.00  0.00    -0.271 OA
ATOM      5  N   UNL     1       5.848   1.455   0.490  0.00  0.00    -0.237 N 
ATOM      6  C   UNL     1       4.563   1.435   0.895  0.00  0.00    +0.306 C 
ATOM      7  O   UNL     1       4.245   1.978   1.935  0.00  0.00    -0.252 OA
ATOM      8  N   UNL     1       3.630   0.814   0.146  0.00  0.00    -0.296 N 
ATOM      9  H   UNL     1       6.101   1.022  -0.341  0.00  0.00    +0.159 HD
ATOM     10  H   UNL     1       3.883   0.381  -0.684  0.00  0.00    +0.151 HD
BRANCH   8  11
ATOM     11  C   UNL     1       2.232   0.792   0.586  0.00  0.00    +0.074 C 
ATOM     12  C   UNL     1       1.453   1.995  -0.001  0.00  0.00    +0.022 C 
ATOM     13  C   UNL     1      -0.019   1.534   0.011  0.00  0.00    +0.002 C 
ATOM     14  C   UNL     1       0.002  -0.004   0.002  0.00  0.00    +0.002 C 
ATOM     15  C   UNL     1       1.486  -0.425  -0.014  0.00  0.00    +0.022 C 
ENDBRANCH   8  11
ENDBRANCH   1   3
BRANCH   1  16
ATOM     16  O   UNL     1       9.039   2.718   1.810  0.00  0.00    -0.449 OA
BRANCH  16  17
ATOM     17  C   UNL     1      10.318   2.301   1.905  0.00  0.00    +0.344 C 
ATOM     18  O   UNL     1      10.735   1.443   1.151  0.00  0.00    -0.245 OA
BRANCH  17  21
ATOM     19  C   UNL     1      11.943   4.686   1.320  0.00  0.00    +0.067 C 
ATOM     20  C   UNL     1      11.984   4.011   2.666  0.00  0.00    +0.063 A 
ATOM     21  C   UNL     1      11.205   2.883   2.916  0.00  0.00    +0.109 A 
ATOM     22  C   UNL     1      11.326   2.349   4.205  0.00  0.00    +0.100 A 
ATOM     23  S   UNL     1      12.480   3.417   4.930  0.00  0.00    +0.027 S 
ATOM     24  N   UNL     1      12.750   4.472   3.615  0.00  0.00    -0.213 NA
BRANCH  22  25
ATOM     25  N   UNL     1      10.691   1.253   4.754  0.00  0.00    -0.340 N 
ATOM     26  C   UNL     1      10.968   0.865   6.139  0.00  0.00    +0.126 C 
ATOM     27  H   UNL     1      10.062   0.741   4.223  0.00  0.00    +0.146 HD
ENDBRANCH  22  25
ENDBRANCH  17  21
ENDBRANCH  16  17
ENDBRANCH   1  16
TORSDOF 6
