REMARK  Name = ZINC28869449
REMARK  14 active torsions:
REMARK  status: ('A' for Active; 'I' for Inactive)
REMARK    1  A    between atoms: C_1  and  C_2
REMARK    2  A    between atoms: C_2  and  C_3
REMARK    3  A    between atoms: C_3  and  N_4
REMARK    4  A    between atoms: N_4  and  C_5
REMARK    5  A    between atoms: C_6  and  C_31
REMARK    6  A    between atoms: C_8  and  C_24
REMARK    7  A    between atoms: N_10  and  C_13
REMARK    8  A    between atoms: C_13  and  C_15
REMARK    9  A    between atoms: C_13  and  C_16
REMARK   10  A    between atoms: C_19  and  O_22
REMARK   11  A    between atoms: O_22  and  C_23
REMARK   12  A    between atoms: C_27  and  N_30
REMARK   13  A    between atoms: C_32  and  C_34
REMARK   14  A    between atoms: C_34  and  C_35
REMARK                            x       y       z     vdW  Elec       q    Type
REMARK                         _______ _______ _______ _____ _____    ______ ____
ROOT
ATOM      1  C   UNL     1      -1.895   1.482  -1.296  0.00  0.00    +0.098 C 
ATOM      2  C   UNL     1      -0.567   1.536  -1.174  0.00  0.00    -0.044 C 
ATOM      3  C   UNL     1       0.087   1.189   0.137  0.00  0.00    +0.059 C 
ATOM      4  C   UNL     1      -0.811   1.608   1.299  0.00  0.00    +0.111 C 
ATOM      5  N   UNL     1      -2.168   1.107   1.100  0.00  0.00    -0.282 N 
ATOM      6  C   UNL     1      -2.718   1.105  -0.129  0.00  0.00    +0.262 C 
ATOM      7  O   UNL     1      -3.884   0.796  -0.278  0.00  0.00    -0.269 OA
ATOM      8  C   UNL     1       0.280   1.946  -2.352  0.00  0.00    +0.041 C 
ENDROOT
BRANCH   4   9
ATOM      9  C   UNL     1      -0.843   3.112   1.388  0.00  0.00    -0.027 A 
ATOM     10  C   UNL     1      -1.653   3.837   0.534  0.00  0.00    +0.007 A 
ATOM     11  C   UNL     1      -1.689   5.215   0.616  0.00  0.00    +0.023 A 
ATOM     12  C   UNL     1      -0.900   5.874   1.551  0.00  0.00    +0.025 A 
ATOM     13  C   UNL     1      -0.082   5.143   2.403  0.00  0.00    +0.023 A 
ATOM     14  C   UNL     1      -0.056   3.765   2.319  0.00  0.00    +0.007 A 
BRANCH  12  15
ATOM     15  N   UNL     1      -0.929   7.268   1.634  0.00  0.00    -0.358 N 
ATOM     16  H   UNL     1      -0.304   7.788   2.374  0.00  0.00    +0.142 HD
ATOM     17  H   UNL     1      -1.577   7.846   0.959  0.00  0.00    +0.142 HD
ENDBRANCH  12  15
ENDBRANCH   4   9
BRANCH   1  18
ATOM     18  N   UNL     1      -2.504   1.780  -2.522  0.00  0.00    -0.267 N 
ATOM     19  C   UNL     1      -2.309   0.976  -3.585  0.00  0.00    +0.231 C 
ATOM     20  O   UNL     1      -1.682  -0.055  -3.458  0.00  0.00    -0.275 OA
BRANCH  18  21
ATOM     21  C   UNL     1      -3.354   2.967  -2.648  0.00  0.00    +0.113 C 
BRANCH  21  23
ATOM     22  C   UNL     1      -3.402   5.383  -3.282  0.00  0.00    +0.005 C 
ATOM     23  C   UNL     1      -2.515   4.144  -3.151  0.00  0.00    +0.016 C 
ENDBRANCH  21  23
ENDBRANCH  18  21
BRANCH  19  24
ATOM     24  C   UNL     1      -2.869   1.357  -4.931  0.00  0.00    +0.221 C 
BRANCH  24  25
ATOM     25  C   UNL     1      -2.512   0.297  -5.942  0.00  0.00    +0.365 C 
ATOM     26  O   UNL     1      -1.870  -0.669  -5.603  0.00  0.00    -0.246 OA
ATOM     27  O   UNL     1      -2.909   0.425  -7.218  0.00  0.00    -0.246 OA
ENDBRANCH  24  25
ENDBRANCH  19  24
ENDBRANCH   1  18
BRANCH   5  28
ATOM     28  C   UNL     1      -2.936   0.605   2.243  0.00  0.00    +0.104 C 
ATOM     29  C   UNL     1      -4.159   1.497   2.467  0.00  0.00    +0.033 C 
BRANCH  28  30
ATOM     30  C   UNL     1      -3.387  -0.805   1.964  0.00  0.00    -0.027 A 
ATOM     31  C   UNL     1      -4.574  -1.270   2.500  0.00  0.00    +0.009 A 
ATOM     32  C   UNL     1      -4.992  -2.560   2.241  0.00  0.00    +0.046 A 
ATOM     33  C   UNL     1      -4.215  -3.395   1.452  0.00  0.00    +0.120 A 
ATOM     34  C   UNL     1      -3.022  -2.929   0.919  0.00  0.00    +0.046 A 
ATOM     35  C   UNL     1      -2.611  -1.635   1.176  0.00  0.00    +0.009 A 
BRANCH  33  36
ATOM     36  O   UNL     1      -4.621  -4.667   1.201  0.00  0.00    -0.495 OA
ATOM     37  C   UNL     1      -5.860  -5.079   1.782  0.00  0.00    +0.277 C 
ENDBRANCH  33  36
ENDBRANCH  28  30
ENDBRANCH   5  28
TORSDOF 10
