REMARK  Name = ZINC06443861
REMARK  8 active torsions:
REMARK  status: ('A' for Active; 'I' for Inactive)
REMARK    1  A    between atoms: C_1  and  C_2
REMARK    2  A    between atoms: C_12  and  C_14
REMARK    3  A    between atoms: C_14  and  C_16
REMARK    4  A    between atoms: C_14  and  N_70
REMARK    5  A    between atoms: N_20  and  C_21
REMARK    6  A    between atoms: C_21  and  C_22
REMARK    7  A    between atoms: C_30  and  C_33
REMARK    8  A    between atoms: C_33  and  C_34
REMARK                            x       y       z     vdW  Elec       q    Type
REMARK                         _______ _______ _______ _____ _____    ______ ____
ROOT
ATOM      1  C   UNL     1       1.654   6.576  -1.453  0.00  0.00    +0.039 C 
ENDROOT
BRANCH   1  13
ATOM      2  C   UNL     1      -3.976   6.493  -4.845  0.00  0.00    +0.046 C 
ATOM      3  C   UNL     1      -3.686   6.226  -3.390  0.00  0.00    -0.026 A 
ATOM      4  C   UNL     1      -4.712   5.899  -2.530  0.00  0.00    +0.005 A 
ATOM      5  C   UNL     1      -4.459   5.651  -1.188  0.00  0.00    +0.001 A 
ATOM      6  C   UNL     1      -3.187   5.728  -0.695  0.00  0.00    +0.010 A 
ATOM      7  C   UNL     1      -2.131   6.058  -1.549  0.00  0.00    -0.001 A 
ATOM      8  C   UNL     1      -2.383   6.309  -2.911  0.00  0.00    +0.052 A 
ATOM      9  N   UNL     1      -1.339   6.635  -3.750  0.00  0.00    -0.322 N 
ATOM     10  H   UNL     1      -1.514   6.809  -4.688  0.00  0.00    +0.169 HD
ATOM     11  C   UNL     1      -0.080   6.722  -3.285  0.00  0.00    +0.251 A 
ATOM     12  O   UNL     1       0.819   7.017  -4.053  0.00  0.00    -0.268 OA
ATOM     13  C   UNL     1       0.228   6.474  -1.930  0.00  0.00    +0.011 A 
ATOM     14  C   UNL     1      -0.756   6.149  -1.054  0.00  0.00    +0.017 A 
ENDBRANCH   1  13
BRANCH   1  20
ATOM     15  C   UNL     1       1.308   8.972  -1.414  0.00  0.00    -0.077 C 
ATOM     16  C   UNL     1       1.838  10.304  -1.949  0.00  0.00    -0.015 C 
ATOM     17  C   UNL     1       3.249  10.542  -1.403  0.00  0.00    -0.010 C 
ATOM     18  C   UNL     1       4.149   9.373  -1.810  0.00  0.00    -0.015 C 
ATOM     19  C   UNL     1       3.553   8.067  -1.279  0.00  0.00    -0.077 C 
ATOM     20  N   UNL     1       2.205   7.885  -1.860  0.00  0.00    +0.389 N 
ATOM     21  H   UNL     1       2.278   7.912  -2.884  0.00  0.00    -0.080 HD
BRANCH  17  22
ATOM     22  C   UNL     1       3.808  11.843  -1.983  0.00  0.00    +0.038 C 
BRANCH  22  23
ATOM     23  C   UNL     1       2.993  13.008  -1.482  0.00  0.00    -0.047 A 
ATOM     24  C   UNL     1       1.892  13.439  -2.197  0.00  0.00    +0.003 A 
ATOM     25  C   UNL     1       1.141  14.504  -1.735  0.00  0.00    +0.000 A 
ATOM     26  C   UNL     1       1.498  15.144  -0.563  0.00  0.00    +0.000 A 
ATOM     27  C   UNL     1       2.602  14.715   0.150  0.00  0.00    +0.000 A 
ATOM     28  C   UNL     1       3.349  13.648  -0.309  0.00  0.00    +0.003 A 
ENDBRANCH  22  23
ENDBRANCH  17  22
ENDBRANCH   1  20
BRANCH   1  29
ATOM     29  C   UNL     1       2.475   5.484  -2.088  0.00  0.00    +0.143 A 
ATOM     30  N   UNL     1       2.976   5.485  -3.299  0.00  0.00    -0.115 NA
ATOM     31  N   UNL     1       3.612   4.377  -3.468  0.00  0.00    -0.023 NA
ATOM     32  N   UNL     1       3.534   3.671  -2.394  0.00  0.00    -0.044 NA
ATOM     33  N   UNL     1       2.836   4.317  -1.522  0.00  0.00    -0.226 N 
BRANCH  33  34
ATOM     34  C   UNL     1       2.505   3.868  -0.167  0.00  0.00    +0.182 C 
BRANCH  34  35
ATOM     35  C   UNL     1       3.638   4.208   0.766  0.00  0.00    -0.026 A 
ATOM     36  C   UNL     1       3.642   5.417   1.437  0.00  0.00    +0.005 A 
ATOM     37  C   UNL     1       4.681   5.729   2.293  0.00  0.00    +0.000 A 
ATOM     38  C   UNL     1       5.720   4.835   2.474  0.00  0.00    +0.000 A 
ATOM     39  C   UNL     1       5.714   3.624   1.807  0.00  0.00    +0.000 A 
ATOM     40  C   UNL     1       4.674   3.312   0.952  0.00  0.00    +0.005 A 
ENDBRANCH  34  35
ENDBRANCH  33  34
ENDBRANCH   1  29
TORSDOF 7
