REMARK  Name = ZINC02532751
REMARK  5 active torsions:
REMARK  status: ('A' for Active; 'I' for Inactive)
REMARK    1  A    between atoms: C_4  and  C_7
REMARK    2  A    between atoms: C_7  and  O_8
REMARK    3  A    between atoms: O_8  and  C_9
REMARK    4  A    between atoms: C_16  and  C_18
REMARK    5  A    between atoms: C_28  and  C_30
REMARK                            x       y       z     vdW  Elec       q    Type
REMARK                         _______ _______ _______ _____ _____    ______ ____
ROOT
ATOM      1  C   UNL     1       6.341  -4.691  -0.091  0.00  0.00    +0.160 A 
ATOM      2  C   UNL     1       6.450  -6.057  -0.238  0.00  0.00    +0.050 A 
ATOM      3  C   UNL     1       5.291  -6.828  -0.399  0.00  0.00    +0.022 A 
ATOM      4  C   UNL     1       4.075  -6.237  -0.404  0.00  0.00    +0.096 A 
ATOM      5  N   UNL     1       3.952  -4.888  -0.254  0.00  0.00    -0.268 N 
ATOM      6  C   UNL     1       5.062  -4.101  -0.094  0.00  0.00    +0.155 A 
ATOM      7  N   UNL     1       4.932  -2.779   0.053  0.00  0.00    -0.264 N 
ATOM      8  C   UNL     1       4.075  -2.104  -0.715  0.00  0.00    +0.250 C 
ATOM      9  O   UNL     1       3.418  -2.691  -1.558  0.00  0.00    -0.270 OA
ATOM     10  C   UNL     1       2.728  -4.323  -0.262  0.00  0.00    +0.264 C 
ATOM     11  O   UNL     1       2.333  -3.715   0.714  0.00  0.00    -0.267 OA
ATOM     12  H   UNL     1       5.532  -2.248   0.806  0.00  0.00    +0.157 HD
ENDROOT
BRANCH   8  13
ATOM     13  C   UNL     1       3.921  -0.644  -0.543  0.00  0.00    +0.045 A 
ATOM     14  C   UNL     1       4.571   0.012   0.491  0.00  0.00    +0.014 A 
ATOM     15  C   UNL     1       4.431   1.385   0.658  0.00  0.00    +0.001 A 
ATOM     16  C   UNL     1       3.655   2.122  -0.186  0.00  0.00    +0.008 A 
ATOM     17  C   UNL     1       2.979   1.498  -1.248  0.00  0.00    -0.017 A 
ATOM     18  C   UNL     1       3.110   0.101  -1.434  0.00  0.00    -0.006 A 
ATOM     19  C   UNL     1       2.436  -0.520  -2.495  0.00  0.00    +0.009 A 
ATOM     20  C   UNL     1       1.664   0.227  -3.333  0.00  0.00    +0.001 A 
ATOM     21  C   UNL     1       1.533   1.602  -3.152  0.00  0.00    +0.001 A 
ATOM     22  C   UNL     1       2.174   2.237  -2.132  0.00  0.00    +0.008 A 
ENDBRANCH   8  13
BRANCH  10  23
ATOM     23  C   UNL     1       1.870  -4.443  -1.452  0.00  0.00    +0.048 A 
ATOM     24  C   UNL     1       2.263  -5.221  -2.535  0.00  0.00    +0.014 A 
ATOM     25  C   UNL     1       1.452  -5.332  -3.655  0.00  0.00    +0.001 A 
ATOM     26  C   UNL     1       0.254  -4.691  -3.741  0.00  0.00    +0.008 A 
ATOM     27  C   UNL     1      -0.206  -3.887  -2.685  0.00  0.00    -0.017 A 
ATOM     28  C   UNL     1       0.585  -3.750  -1.518  0.00  0.00    -0.006 A 
ATOM     29  C   UNL     1       0.127  -2.955  -0.461  0.00  0.00    +0.009 A 
ATOM     30  C   UNL     1      -1.079  -2.327  -0.563  0.00  0.00    +0.001 A 
ATOM     31  C   UNL     1      -1.863  -2.465  -1.706  0.00  0.00    +0.001 A 
ATOM     32  C   UNL     1      -1.441  -3.219  -2.759  0.00  0.00    +0.008 A 
ENDBRANCH  10  23
BRANCH   1  33
ATOM     33  O   UNL     1       7.452  -3.923   0.061  0.00  0.00    -0.484 OA
BRANCH  33  34
ATOM     34  C   UNL     1       7.912  -3.704   1.397  0.00  0.00    +0.264 C 
BRANCH  34  38
ATOM     35  C   UNL     1      11.406  -1.249   1.316  0.00  0.00    +0.000 A 
ATOM     36  C   UNL     1      10.155  -0.668   1.405  0.00  0.00    +0.000 A 
ATOM     37  C   UNL     1       9.024  -1.462   1.431  0.00  0.00    +0.007 A 
ATOM     38  C   UNL     1       9.145  -2.838   1.368  0.00  0.00    -0.010 A 
ATOM     39  C   UNL     1      10.396  -3.419   1.285  0.00  0.00    +0.007 A 
ATOM     40  C   UNL     1      11.527  -2.624   1.255  0.00  0.00    +0.000 A 
ENDBRANCH  34  38
ENDBRANCH  33  34
ENDBRANCH   1  33
TORSDOF 5
