REMARK  Name = ZINC04289891
REMARK  7 active torsions:
REMARK  status: ('A' for Active; 'I' for Inactive)
REMARK    1  A    between atoms: C_1  and  C_2
REMARK    2  A    between atoms: C_2  and  C_3
REMARK    3  A    between atoms: C_9  and  C_10
REMARK    4  A    between atoms: C_9  and  N_55
REMARK    5  A    between atoms: C_11  and  O_33
REMARK    6  A    between atoms: C_17  and  C_29
REMARK    7  A    between atoms: C_18  and  C_21
REMARK                            x       y       z     vdW  Elec       q    Type
REMARK                         _______ _______ _______ _____ _____    ______ ____
ROOT
ATOM      1  C   UNL     1      -1.342   5.006   0.175  0.00  0.00    +0.020 A 
ATOM      2  C   UNL     1      -2.412   5.770  -0.258  0.00  0.00    +0.122 A 
ATOM      3  C   UNL     1      -2.386   7.158  -0.140  0.00  0.00    +0.046 A 
ATOM      4  C   UNL     1      -1.301   7.783   0.407  0.00  0.00    +0.019 A 
ATOM      5  C   UNL     1      -0.215   7.026   0.848  0.00  0.00    +0.065 A 
ATOM      6  C   UNL     1      -0.234   5.625   0.738  0.00  0.00    +0.144 A 
ATOM      7  O   UNL     1       0.819   4.896   1.160  0.00  0.00    -0.450 OA
ATOM      8  C   UNL     1       1.913   5.434   1.704  0.00  0.00    +0.219 A 
ATOM      9  C   UNL     1       2.060   6.774   1.875  0.00  0.00    +0.078 A 
ATOM     10  C   UNL     1       0.972   7.667   1.443  0.00  0.00    +0.201 A 
ATOM     11  O   UNL     1       1.049   8.876   1.571  0.00  0.00    -0.286 OA
ENDROOT
BRANCH   9  12
ATOM     12  C   UNL     1       3.295   7.326   2.484  0.00  0.00    +0.008 A 
ATOM     13  C   UNL     1       3.374   7.503   3.864  0.00  0.00    +0.011 A 
ATOM     14  C   UNL     1       4.525   8.018   4.426  0.00  0.00    +0.021 A 
ATOM     15  C   UNL     1       5.599   8.358   3.622  0.00  0.00    +0.042 A 
ATOM     16  C   UNL     1       5.526   8.185   2.251  0.00  0.00    +0.040 A 
ATOM     17  C   UNL     1       4.381   7.665   1.679  0.00  0.00    +0.050 A 
ATOM     18 CL   UNL     1       4.293   7.441  -0.040  0.00  0.00    -0.083 Cl
ATOM     19 CL   UNL     1       7.043   9.006   4.337  0.00  0.00    -0.083 Cl
ENDBRANCH   9  12
BRANCH   8  20
ATOM     20  C   UNL     1       3.027   4.521   2.146  0.00  0.00    +0.451 C 
ATOM     21  F   UNL     1       2.822   4.146   3.478  0.00  0.00    -0.163 F 
ATOM     22  F   UNL     1       3.042   3.379   1.337  0.00  0.00    -0.163 F 
ATOM     23  F   UNL     1       4.250   5.189   2.032  0.00  0.00    -0.163 F 
ENDBRANCH   8  20
BRANCH   2  24
ATOM     24  O   UNL     1      -3.496   5.162  -0.804  0.00  0.00    -0.506 OA
ATOM     25  H   UNL     1      -4.178   4.924  -0.162  0.00  0.00    +0.292 HD
ENDBRANCH   2  24
BRANCH   1  26
ATOM     26  C   UNL     1      -1.382   3.505   0.041  0.00  0.00    -0.035 C 
BRANCH  26  32
ATOM     27  C   UNL     1      -0.707   1.654  -1.365  0.00  0.00    -0.068 C 
ATOM     28  C   UNL     1       0.015   1.290  -2.664  0.00  0.00    -0.015 C 
ATOM     29  C   UNL     1      -0.770   1.849  -3.853  0.00  0.00    -0.003 C 
ATOM     30  C   UNL     1      -0.913   3.365  -3.693  0.00  0.00    -0.019 C 
ATOM     31  C   UNL     1      -1.609   3.669  -2.364  0.00  0.00    -0.078 C 
ATOM     32  N   UNL     1      -0.790   3.126  -1.259  0.00  0.00    +0.384 N 
ATOM     33  H   UNL     1       0.156   3.518  -1.321  0.00  0.00    -0.081 HD
BRANCH  27  35
ATOM     34  C   UNL     1       0.143  -0.413  -0.248  0.00  0.00    +0.002 C 
ATOM     35  C   UNL     1       0.085   1.114  -0.173  0.00  0.00    -0.019 C 
ENDBRANCH  27  35
ENDBRANCH  26  32
ENDBRANCH   1  26
TORSDOF 6
