REMARK  Name = ZINC37422723
REMARK  15 active torsions:
REMARK  status: ('A' for Active; 'I' for Inactive)
REMARK    1  A    between atoms: C_1  and  C_2
REMARK    2  A    between atoms: C_2  and  C_41
REMARK    3  A    between atoms: C_7  and  C_23
REMARK    4  A    between atoms: C_7  and  O_31
REMARK    5  A    between atoms: C_9  and  O_14
REMARK    6  A    between atoms: O_14  and  C_15
REMARK    7  A    between atoms: C_15  and  C_16
REMARK    8  A    between atoms: N_25  and  C_26
REMARK    9  A    between atoms: C_26  and  C_27
REMARK   10  A    between atoms: C_27  and  N_28
REMARK   11  A    between atoms: N_28  and  C_29
REMARK   12  A    between atoms: N_28  and  C_30
REMARK   13  A    between atoms: O_31  and  C_32
REMARK   14  A    between atoms: C_32  and  C_33
REMARK   15  A    between atoms: C_38  and  C_39
REMARK                            x       y       z     vdW  Elec       q    Type
REMARK                         _______ _______ _______ _____ _____    ______ ____
ROOT
ATOM      1  C   UNL     1      -0.284   1.511  -0.286  0.00  0.00    +0.074 C 
ATOM      2  C   UNL     1      -0.302  -0.019  -0.328  0.00  0.00    +0.165 C 
ATOM      3  O   UNL     1      -1.652  -0.494  -0.142  0.00  0.00    -0.343 OA
ATOM      4  C   UNL     1      -1.479  -1.703   0.620  0.00  0.00    +0.156 C 
ATOM      5  C   UNL     1      -2.731  -2.155   1.318  0.00  0.00    +0.079 C 
ATOM      6  C   UNL     1      -3.213  -1.199   2.388  0.00  0.00    +0.150 C 
ATOM      7  C   UNL     1      -2.111  -0.788   3.339  0.00  0.00    +0.079 C 
ATOM      8  C   UNL     1      -0.866  -0.309   2.627  0.00  0.00    +0.153 C 
ATOM      9  C   UNL     1      -0.364  -1.298   1.604  0.00  0.00    +0.179 C 
ATOM     10  O   UNL     1       0.519  -0.541   0.730  0.00  0.00    -0.341 OA
ATOM     11  C   UNL     1       0.230  -0.502  -1.679  0.00  0.00    +0.074 C 
ENDROOT
BRANCH   6  12
ATOM     12  C   UNL     1      -4.313  -1.863   3.175  0.00  0.00    +0.245 C 
ATOM     13  O   UNL     1      -4.385  -3.073   3.215  0.00  0.00    -0.273 OA
ATOM     14  N   UNL     1      -5.217  -1.112   3.836  0.00  0.00    -0.315 N 
ATOM     15  H   UNL     1      -5.202  -0.146   3.748  0.00  0.00    +0.149 HD
BRANCH  14  16
ATOM     16  C   UNL     1      -6.222  -1.755   4.686  0.00  0.00    +0.086 C 
BRANCH  16  17
ATOM     17  C   UNL     1      -7.118  -0.685   5.314  0.00  0.00    -0.061 C 
BRANCH  17  18
ATOM     18  N   UNL     1      -8.126  -1.330   6.167  0.00  0.00    +0.377 N 
ATOM     19  C   UNL     1      -7.460  -1.992   7.297  0.00  0.00    -0.097 C 
ATOM     20  C   UNL     1      -9.059  -0.315   6.675  0.00  0.00    -0.097 C 
ATOM     21  H   UNL     1      -8.634  -2.014   5.628  0.00  0.00    -0.083 HD
ENDBRANCH  17  18
ENDBRANCH  16  17
ENDBRANCH  14  16
ENDBRANCH   6  12
BRANCH   8  22
ATOM     22  O   UNL     1       0.160  -0.085   3.596  0.00  0.00    -0.369 OA
BRANCH  22  23
ATOM     23  C   UNL     1       0.179   1.243   4.125  0.00  0.00    +0.195 C 
BRANCH  23  24
ATOM     24  C   UNL     1       1.294   1.366   5.131  0.00  0.00    -0.022 A 
ATOM     25  C   UNL     1       1.057   1.081   6.463  0.00  0.00    +0.009 A 
ATOM     26  C   UNL     1       2.079   1.193   7.387  0.00  0.00    +0.038 A 
ATOM     27  C   UNL     1       3.341   1.592   6.978  0.00  0.00    +0.123 A 
ATOM     28  C   UNL     1       3.577   1.877   5.644  0.00  0.00    +0.038 A 
ATOM     29  C   UNL     1       2.555   1.759   4.721  0.00  0.00    +0.009 A 
ATOM     30  F   UNL     1       4.340   1.702   7.880  0.00  0.00    -0.205 F 
ENDBRANCH  23  24
ENDBRANCH  22  23
ENDBRANCH   8  22
BRANCH   6  31
ATOM     31  O   UNL     1      -3.740  -0.029   1.759  0.00  0.00    -0.359 OA
BRANCH  31  32
ATOM     32  C   UNL     1      -4.860  -0.282   0.907  0.00  0.00    +0.197 C 
BRANCH  32  33
ATOM     33  C   UNL     1      -5.418   1.027   0.410  0.00  0.00    -0.005 A 
ATOM     34  C   UNL     1      -4.835   2.217   0.793  0.00  0.00    +0.007 A 
ATOM     35  C   UNL     1      -5.346   3.419   0.337  0.00  0.00    +0.000 A 
ATOM     36  C   UNL     1      -6.445   3.437  -0.504  0.00  0.00    +0.001 A 
ATOM     37  C   UNL     1      -7.038   2.254  -0.895  0.00  0.00    +0.019 A 
ATOM     38  C   UNL     1      -6.523   1.037  -0.444  0.00  0.00    +0.057 A 
BRANCH  38  39
ATOM     39  C   UNL     1      -7.129  -0.195  -0.850  0.00  0.00    +0.100 C 
ATOM     40  N   UNL     1      -7.610  -1.173  -1.172  0.00  0.00    -0.191 NA
ENDBRANCH  38  39
ENDBRANCH  32  33
ENDBRANCH  31  32
ENDBRANCH   6  31
TORSDOF 11
