REMARK  Name = ZINC00986141
REMARK  9 active torsions:
REMARK  status: ('A' for Active; 'I' for Inactive)
REMARK    1  A    between atoms: C_1  and  C_2
REMARK    2  A    between atoms: C_5  and  N_8
REMARK    3  A    between atoms: C_9  and  C_11
REMARK    4  A    between atoms: C_11  and  S_12
REMARK    5  A    between atoms: S_12  and  C_13
REMARK    6  A    between atoms: C_22  and  C_24
REMARK    7  A    between atoms: C_22  and  C_25
REMARK    8  A    between atoms: N_28  and  C_29
REMARK    9  A    between atoms: C_34  and  C_35
REMARK                            x       y       z     vdW  Elec       q    Type
REMARK                         _______ _______ _______ _____ _____    ______ ____
ROOT
ATOM      1  C   UNL     1      -0.048   6.326   0.019  0.00  0.00    +0.178 A 
ATOM      2  N   UNL     1      -0.976   5.378   0.016  0.00  0.00    -0.215 NA
ATOM      3  C   UNL     1      -0.559   4.119  -0.002  0.00  0.00    +0.117 A 
ATOM      4  C   UNL     1       0.803   3.736  -0.018  0.00  0.00    +0.076 A 
ATOM      5  C   UNL     1       1.062   2.309  -0.036  0.00  0.00    -0.018 A 
ATOM      6  C   UNL     1      -0.019   1.492  -0.038  0.00  0.00    +0.021 A 
ATOM      7  S   UNL     1      -1.421   2.578  -0.021  0.00  0.00    -0.071 S 
ATOM      8  C   UNL     1       0.001  -0.004  -0.057  0.00  0.00    +0.203 C 
ATOM      9  O   UNL     1       1.332  -0.426  -0.392  0.00  0.00    -0.368 OA
ATOM     10  C   UNL     1       2.346   0.231   0.373  0.00  0.00    +0.068 C 
ATOM     11  C   UNL     1       2.461   1.697  -0.053  0.00  0.00    +0.071 C 
ATOM     12  C   UNL     1       1.986   0.161   1.858  0.00  0.00    +0.041 C 
ATOM     13  C   UNL     1       3.688  -0.468   0.143  0.00  0.00    +0.041 C 
ATOM     14  C   UNL     1       1.777   4.787  -0.014  0.00  0.00    +0.268 A 
ATOM     15  O   UNL     1       2.974   4.558  -0.026  0.00  0.00    -0.267 OA
ATOM     16  N   UNL     1       1.287   6.048   0.005  0.00  0.00    -0.255 N 
ENDROOT
BRANCH  16  17
ATOM     17  C   UNL     1       2.192   7.118   0.009  0.00  0.00    +0.055 A 
ATOM     18  C   UNL     1       2.648   7.638   1.214  0.00  0.00    +0.026 A 
ATOM     19  C   UNL     1       3.544   8.689   1.215  0.00  0.00    +0.002 A 
ATOM     20  C   UNL     1       3.979   9.230   0.019  0.00  0.00    +0.000 A 
ATOM     21  C   UNL     1       3.524   8.717  -1.181  0.00  0.00    +0.005 A 
ATOM     22  C   UNL     1       2.632   7.663  -1.189  0.00  0.00    -0.026 A 
ATOM     23  C   UNL     1       2.136   7.104  -2.498  0.00  0.00    +0.046 C 
ENDBRANCH  16  17
BRANCH   1  24
ATOM     24  S   UNL     1      -0.561   8.012   0.042  0.00  0.00    -0.078 S 
BRANCH  24  25
ATOM     25  C   UNL     1      -2.358   7.793   0.054  0.00  0.00    +0.173 C 
BRANCH  25  27
ATOM     26  N   UNL     1      -4.373   9.227   0.087  0.00  0.00    -0.285 N 
ATOM     27  C   UNL     1      -3.028   9.143   0.075  0.00  0.00    +0.227 C 
ATOM     28  O   UNL     1      -2.357  10.153   0.082  0.00  0.00    -0.275 OA
ATOM     29  H   UNL     1      -4.910   8.423   0.015  0.00  0.00    +0.155 HD
BRANCH  26  34
ATOM     30  C   UNL     1      -6.894  14.287   0.562  0.00  0.00    +0.044 C 
ATOM     31  C   UNL     1      -6.224  12.943   0.436  0.00  0.00    -0.050 A 
ATOM     32  C   UNL     1      -5.041  12.825  -0.271  0.00  0.00    +0.005 A 
ATOM     33  C   UNL     1      -4.425  11.595  -0.388  0.00  0.00    +0.023 A 
ATOM     34  C   UNL     1      -4.995  10.475   0.204  0.00  0.00    +0.033 A 
ATOM     35  C   UNL     1      -6.186  10.596   0.908  0.00  0.00    +0.023 A 
ATOM     36  C   UNL     1      -6.794  11.831   1.027  0.00  0.00    +0.005 A 
ENDBRANCH  26  34
ENDBRANCH  25  27
ENDBRANCH  24  25
ENDBRANCH   1  24
TORSDOF 5
