REMARK  Name = ZINC32858388
REMARK  10 active torsions:
REMARK  status: ('A' for Active; 'I' for Inactive)
REMARK    1  A    between atoms: C_1  and  C_2
REMARK    2  A    between atoms: C_2  and  C_3
REMARK    3  A    between atoms: C_3  and  O_4
REMARK    4  A    between atoms: O_4  and  C_5
REMARK    5  A    between atoms: C_10  and  N_11
REMARK    6  A    between atoms: C_12  and  C_14
REMARK    7  A    between atoms: C_14  and  N_15
REMARK    8  A    between atoms: C_16  and  C_31
REMARK    9  A    between atoms: C_26  and  C_30
REMARK   10  A    between atoms: C_31  and  N_32
REMARK                            x       y       z     vdW  Elec       q    Type
REMARK                         _______ _______ _______ _____ _____    ______ ____
ROOT
ATOM      1  N   UNL     1       3.210  -1.515  -7.218  0.00  0.00    -0.289 N 
ATOM      2  C   UNL     1       4.123  -0.766  -7.888  0.00  0.00    +0.097 A 
ATOM      3  N   UNL     1       4.486  -1.071  -9.105  0.00  0.00    -0.228 NA
ATOM      4  C   UNL     1       3.969  -2.127  -9.728  0.00  0.00    +0.116 A 
ATOM      5  C   UNL     1       3.019  -2.960  -9.118  0.00  0.00    +0.076 A 
ATOM      6  C   UNL     1       2.647  -2.601  -7.780  0.00  0.00    +0.263 A 
ATOM      7  O   UNL     1       1.833  -3.266  -7.164  0.00  0.00    -0.267 OA
ATOM      8  C   UNL     1       2.540  -4.082  -9.923  0.00  0.00    -0.023 A 
ATOM      9  C   UNL     1       3.053  -4.207 -11.165  0.00  0.00    -0.004 A 
ATOM     10  S   UNL     1       4.190  -2.857 -11.331  0.00  0.00    -0.073 S 
ATOM     11  C   UNL     1       2.730  -5.261 -12.180  0.00  0.00    +0.046 C 
ATOM     12  C   UNL     1       1.444  -5.977 -11.741  0.00  0.00    -0.009 C 
ATOM     13  C   UNL     1       1.568  -6.344 -10.259  0.00  0.00    +0.008 C 
ATOM     14  C   UNL     1       1.507  -5.078  -9.403  0.00  0.00    +0.037 C 
ATOM     15  C   UNL     1       1.256  -7.249 -12.570  0.00  0.00    +0.008 C 
ENDROOT
BRANCH   1  16
ATOM     16  C   UNL     1       2.833  -1.137  -5.854  0.00  0.00    +0.222 C 
BRANCH  16  18
ATOM     17  N   UNL     1       1.138   0.290  -4.755  0.00  0.00    -0.281 N 
ATOM     18  C   UNL     1       1.660  -0.193  -5.900  0.00  0.00    +0.237 C 
ATOM     19  O   UNL     1       1.184   0.132  -6.967  0.00  0.00    -0.274 OA
ATOM     20  H   UNL     1       1.624   0.069  -3.793  0.00  0.00    +0.155 HD
BRANCH  17  26
ATOM     21  C   UNL     1      -0.285   1.980  -3.765  0.00  0.00    +0.142 A 
ATOM     22  C   UNL     1      -1.437   2.748  -3.802  0.00  0.00    +0.047 A 
ATOM     23  C   UNL     1      -2.319   2.622  -4.859  0.00  0.00    +0.004 A 
ATOM     24  C   UNL     1      -2.060   1.722  -5.877  0.00  0.00    +0.002 A 
ATOM     25  C   UNL     1      -0.915   0.949  -5.845  0.00  0.00    +0.027 A 
ATOM     26  C   UNL     1      -0.023   1.074  -4.790  0.00  0.00    +0.076 A 
BRANCH  21  27
ATOM     27  O   UNL     1       0.586   2.106  -2.728  0.00  0.00    -0.490 OA
BRANCH  27  28
ATOM     28  C   UNL     1       0.253   3.056  -1.713  0.00  0.00    +0.229 C 
BRANCH  28  30
ATOM     29  C   UNL     1       0.985   4.073   0.448  0.00  0.00    +0.007 C 
ATOM     30  C   UNL     1       1.341   3.057  -0.638  0.00  0.00    +0.038 C 
ENDBRANCH  28  30
ENDBRANCH  27  28
ENDBRANCH  21  27
ENDBRANCH  17  26
ENDBRANCH  16  18
ENDBRANCH   1  16
BRANCH   2  31
ATOM     31  C   UNL     1       4.729   0.438  -7.215  0.00  0.00    -0.003 C 
BRANCH  31  32
ATOM     32  N   UNL     1       5.682   1.083  -8.129  0.00  0.00    +0.384 N 
ATOM     33  C   UNL     1       5.050   1.364  -9.444  0.00  0.00    -0.078 C 
ATOM     34  C   UNL     1       5.961   2.462 -10.046  0.00  0.00    -0.020 C 
ATOM     35  C   UNL     1       6.332   3.320  -8.814  0.00  0.00    -0.020 C 
ATOM     36  C   UNL     1       6.117   2.394  -7.602  0.00  0.00    -0.078 C 
ATOM     37  H   UNL     1       6.527   0.385  -8.221  0.00  0.00    -0.081 HD
ENDBRANCH  31  32
ENDBRANCH   2  31
TORSDOF 8
