REMARK  Name = ZINC09868039
REMARK  9 active torsions:
REMARK  status: ('A' for Active; 'I' for Inactive)
REMARK    1  A    between atoms: C_1  and  N_64
REMARK    2  A    between atoms: C_2  and  N_64
REMARK    3  A    between atoms: C_3  and  C_5
REMARK    4  A    between atoms: C_3  and  C_29
REMARK    5  A    between atoms: C_3  and  N_64
REMARK    6  A    between atoms: C_5  and  N_6
REMARK    7  A    between atoms: C_7  and  C_9
REMARK    8  A    between atoms: N_12  and  S_15
REMARK    9  A    between atoms: S_15  and  C_18
REMARK                            x       y       z     vdW  Elec       q    Type
REMARK                         _______ _______ _______ _____ _____    ______ ____
ROOT
ATOM      1  C   UNL     1       0.075  -2.968   0.148  0.00  0.00    +0.077 C 
ATOM      2  C   UNL     1       0.730  -3.199   1.512  0.00  0.00    +0.030 C 
ATOM      3  C   UNL     1       0.491  -4.648   1.949  0.00  0.00    +0.110 C 
ATOM      4  N   UNL     1       0.971  -5.546   0.890  0.00  0.00    -0.177 NA
ATOM      5  C   UNL     1       0.474  -5.353  -0.479  0.00  0.00    +0.110 C 
ATOM      6  C   UNL     1       0.712  -3.896  -0.889  0.00  0.00    +0.030 C 
ENDROOT
BRANCH   1   8
ATOM      7  N   UNL     1      -0.202  -0.535   0.497  0.00  0.00    -0.316 N 
ATOM      8  C   UNL     1       0.278  -1.534  -0.270  0.00  0.00    +0.216 C 
ATOM      9  O   UNL     1       0.874  -1.280  -1.295  0.00  0.00    -0.276 OA
ATOM     10  H   UNL     1      -0.677  -0.738   1.317  0.00  0.00    +0.149 HD
BRANCH   7  11
ATOM     11  C   UNL     1      -0.004   0.859   0.091  0.00  0.00    +0.094 C 
BRANCH  11  12
ATOM     12  C   UNL     1      -0.738   1.782   1.065  0.00  0.00    -0.014 C 
BRANCH  12  13
ATOM     13  C   UNL     1      -0.426   3.218   0.728  0.00  0.00    -0.022 A 
ATOM     14  C   UNL     1      -1.222   4.152   0.153  0.00  0.00    +0.009 A 
ATOM     15  C   UNL     1      -0.718   5.421  -0.063  0.00  0.00    +0.008 A 
ATOM     16  C   UNL     1       0.557   5.694   0.307  0.00  0.00    +0.045 A 
ATOM     17  S   UNL     1       1.086   4.131   0.990  0.00  0.00    -0.103 S 
ENDBRANCH  12  13
BRANCH  12  20
ATOM     18  C   UNL     1       1.167   1.458   2.524  0.00  0.00    -0.096 C 
ATOM     19  C   UNL     1      -0.859   2.469   3.384  0.00  0.00    -0.096 C 
ATOM     20  N   UNL     1      -0.309   1.469   2.444  0.00  0.00    +0.382 N 
ATOM     21  H   UNL     1      -0.664   0.540   2.701  0.00  0.00    -0.082 HD
ENDBRANCH  12  20
ENDBRANCH  11  12
ENDBRANCH   7  11
ENDBRANCH   1   8
BRANCH   4  22
ATOM     22  S   UNL     1       2.051  -6.754   1.232  0.00  0.00    +0.061 S 
ATOM     23  O   UNL     1       1.908  -7.047   2.615  0.00  0.00    -0.153 OA
ATOM     24  O   UNL     1       1.891  -7.741   0.223  0.00  0.00    -0.153 OA
BRANCH  22  25
ATOM     25  C   UNL     1       3.667  -6.081   1.026  0.00  0.00    +0.109 A 
ATOM     26  C   UNL     1       4.293  -6.157  -0.205  0.00  0.00    +0.032 A 
ATOM     27  C   UNL     1       5.559  -5.627  -0.376  0.00  0.00    +0.051 A 
ATOM     28  C   UNL     1       6.202  -5.028   0.694  0.00  0.00    +0.162 A 
ATOM     29  C   UNL     1       5.577  -4.956   1.931  0.00  0.00    +0.164 A 
ATOM     30  C   UNL     1       4.307  -5.484   2.097  0.00  0.00    +0.078 A 
ATOM     31  O   UNL     1       6.219  -4.363   2.978  0.00  0.00    -0.488 OA
ATOM     32  C   UNL     1       7.364  -5.054   3.481  0.00  0.00    +0.232 C 
ATOM     33  C   UNL     1       8.603  -4.707   2.670  0.00  0.00    +0.082 C 
ATOM     34  C   UNL     1       8.504  -5.185   1.229  0.00  0.00    +0.232 C 
ATOM     35  O   UNL     1       7.453  -4.505   0.540  0.00  0.00    -0.488 OA
ENDBRANCH  22  25
ENDBRANCH   4  22
TORSDOF 7
