REMARK  Name = ZINC63526610
REMARK  5 active torsions:
REMARK  status: ('A' for Active; 'I' for Inactive)
REMARK    1  A    between atoms: C_1  and  O_2
REMARK    2  A    between atoms: O_2  and  C_3
REMARK    3  A    between atoms: C_10  and  C_30
REMARK    4  A    between atoms: C_18  and  C_20
REMARK    5  A    between atoms: C_34  and  N_36
REMARK                            x       y       z     vdW  Elec       q    Type
REMARK                         _______ _______ _______ _____ _____    ______ ____
ROOT
ATOM      1  C   UNL     1      -0.824  -0.450  -2.167  0.00  0.00    +0.121 A 
ATOM      2  C   UNL     1      -0.303   0.276  -3.252  0.00  0.00    +0.047 A 
ATOM      3  C   UNL     1       0.536  -0.273  -4.157  0.00  0.00    +0.029 A 
ATOM      4  C   UNL     1       0.935  -1.677  -4.024  0.00  0.00    +0.043 A 
ATOM      5  N   UNL     1       1.706  -2.442  -4.761  0.00  0.00    -0.375 N 
ATOM      6  C   UNL     1       1.815  -3.749  -4.117  0.00  0.00    +0.131 C 
ATOM      7  C   UNL     1       1.361  -4.882  -5.044  0.00  0.00    +0.133 C 
ATOM      8  N   UNL     1       1.118  -6.073  -4.215  0.00  0.00    -0.291 N 
ATOM      9  C   UNL     1       0.120  -6.044  -3.140  0.00  0.00    +0.113 C 
ATOM     10  C   UNL     1       0.479  -4.928  -2.142  0.00  0.00    +0.052 C 
ATOM     11  C   UNL     1       0.851  -3.701  -2.943  0.00  0.00    -0.035 C 
ATOM     12  C   UNL     1       0.381  -2.448  -2.882  0.00  0.00    +0.003 A 
ATOM     13  C   UNL     1      -0.516  -1.751  -1.953  0.00  0.00    +0.055 A 
ATOM     14  C   UNL     1       1.818  -7.202  -4.445  0.00  0.00    +0.222 C 
ATOM     15  O   UNL     1       2.716  -7.202  -5.261  0.00  0.00    -0.275 OA
ATOM     16  H   UNL     1       2.132  -2.183  -5.593  0.00  0.00    +0.160 HD
ENDROOT
BRANCH  14  17
ATOM     17  C   UNL     1       1.486  -8.462  -3.689  0.00  0.00    +0.048 C 
ATOM     18  C   UNL     1       1.791  -8.262  -2.204  0.00  0.00    +0.019 C 
ATOM     19  C   UNL     1       1.454  -9.542  -1.436  0.00  0.00    -0.009 C 
ATOM     20  C   UNL     1       2.296 -10.698  -1.978  0.00  0.00    +0.007 C 
ATOM     21  C   UNL     1       1.990 -10.899  -3.464  0.00  0.00    -0.009 C 
ATOM     22  C   UNL     1       2.328  -9.619  -4.231  0.00  0.00    +0.019 C 
ATOM     23  C   UNL     1       0.505 -11.223  -3.640  0.00  0.00    +0.007 C 
ATOM     24  C   UNL     1      -0.337 -10.066  -3.098  0.00  0.00    -0.009 C 
ATOM     25  C   UNL     1      -0.031  -9.866  -1.613  0.00  0.00    +0.007 C 
ATOM     26  C   UNL     1       0.001  -8.786  -3.866  0.00  0.00    +0.019 C 
ENDBRANCH  14  17
BRANCH   7  27
ATOM     27  C   UNL     1       2.439  -5.176  -6.056  0.00  0.00    -0.023 A 
ATOM     28  C   UNL     1       2.095  -5.543  -7.344  0.00  0.00    +0.007 A 
ATOM     29  C   UNL     1       3.083  -5.811  -8.273  0.00  0.00    +0.022 A 
ATOM     30  C   UNL     1       4.415  -5.713  -7.913  0.00  0.00    +0.071 A 
ATOM     31  C   UNL     1       4.758  -5.345  -6.624  0.00  0.00    +0.145 A 
ATOM     32  C   UNL     1       3.770  -5.072  -5.698  0.00  0.00    +0.039 A 
ATOM     33 CL   UNL     1       5.657  -6.050  -9.079  0.00  0.00    -0.081 Cl
BRANCH  31  34
ATOM     34  N   UNL     1       6.183  -5.240  -6.239  0.00  0.00    +0.058 N 
ATOM     35  O   UNL     1       6.483  -4.918  -5.113  0.00  0.00    -0.126 OA
ATOM     36  O   UNL     1       7.048  -5.474  -7.051  0.00  0.00    -0.126 OA
ENDBRANCH  31  34
ENDBRANCH   7  27
BRANCH   1  38
ATOM     37  C   UNL     1      -1.958   1.550  -1.563  0.00  0.00    +0.277 C 
ATOM     38  O   UNL     1      -1.661   0.177  -1.299  0.00  0.00    -0.495 OA
ENDBRANCH   1  38
TORSDOF 4
