REMARK  Name = ZINC39361558
REMARK  10 active torsions:
REMARK  status: ('A' for Active; 'I' for Inactive)
REMARK    1  A    between atoms: C_1  and  C_2
REMARK    2  A    between atoms: C_2  and  O_3
REMARK    3  A    between atoms: O_3  and  C_4
REMARK    4  A    between atoms: C_9  and  N_10
REMARK    5  A    between atoms: C_11  and  C_13
REMARK    6  A    between atoms: C_13  and  S_14
REMARK    7  A    between atoms: S_14  and  C_15
REMARK    8  A    between atoms: C_18  and  C_27
REMARK    9  A    between atoms: N_20  and  C_21
REMARK   10  A    between atoms: C_27  and  C_28
REMARK                            x       y       z     vdW  Elec       q    Type
REMARK                         _______ _______ _______ _____ _____    ______ ____
ROOT
ATOM      1  C   UNL     1       4.914  -0.788  -7.750  0.00  0.00    +0.180 C 
ATOM      2  N   UNL     1       4.802   0.484  -7.566  0.00  0.00    -0.162 NA
ATOM      3  N   UNL     1       5.485   1.208  -8.551  0.00  0.00    -0.246 N 
ATOM      4  C   UNL     1       6.090   0.208  -9.449  0.00  0.00    +0.187 C 
ATOM      5  N   UNL     1       5.683  -1.082  -8.867  0.00  0.00    -0.258 N 
ATOM      6  H   UNL     1       5.548   2.173  -8.627  0.00  0.00    +0.170 HD
ENDROOT
BRANCH   5   7
ATOM      7  C   UNL     1       6.007  -2.354  -9.348  0.00  0.00    +0.037 A 
ATOM      8  C   UNL     1       5.716  -2.696 -10.662  0.00  0.00    +0.023 A 
ATOM      9  C   UNL     1       6.038  -3.954 -11.134  0.00  0.00    +0.002 A 
ATOM     10  C   UNL     1       6.648  -4.872 -10.299  0.00  0.00    +0.000 A 
ATOM     11  C   UNL     1       6.939  -4.534  -8.990  0.00  0.00    +0.002 A 
ATOM     12  C   UNL     1       6.625  -3.277  -8.513  0.00  0.00    +0.023 A 
ENDBRANCH   5   7
BRANCH   1  13
ATOM     13  S   UNL     1       4.186  -2.005  -6.705  0.00  0.00    -0.079 S 
BRANCH  13  14
ATOM     14  C   UNL     1       3.319  -1.035  -5.441  0.00  0.00    +0.173 C 
BRANCH  14  16
ATOM     15  N   UNL     1       1.934  -1.467  -3.438  0.00  0.00    -0.282 N 
ATOM     16  C   UNL     1       2.642  -1.967  -4.469  0.00  0.00    +0.228 C 
ATOM     17  O   UNL     1       2.736  -3.168  -4.615  0.00  0.00    -0.275 OA
ATOM     18  H   UNL     1       1.791  -0.510  -3.366  0.00  0.00    +0.155 HD
BRANCH  15  24
ATOM     19  C   UNL     1       0.292  -1.942  -1.723  0.00  0.00    +0.142 A 
ATOM     20  C   UNL     1      -0.232  -2.801  -0.770  0.00  0.00    +0.047 A 
ATOM     21  C   UNL     1       0.351  -4.036  -0.557  0.00  0.00    +0.004 A 
ATOM     22  C   UNL     1       1.458  -4.419  -1.294  0.00  0.00    +0.002 A 
ATOM     23  C   UNL     1       1.986  -3.568  -2.246  0.00  0.00    +0.027 A 
ATOM     24  C   UNL     1       1.403  -2.329  -2.469  0.00  0.00    +0.076 A 
BRANCH  19  25
ATOM     25  O   UNL     1      -0.281  -0.727  -1.933  0.00  0.00    -0.490 OA
BRANCH  25  27
ATOM     26  C   UNL     1      -1.919   0.998  -1.508  0.00  0.00    +0.048 C 
ATOM     27  C   UNL     1      -1.417  -0.397  -1.132  0.00  0.00    +0.226 C 
ENDBRANCH  25  27
ENDBRANCH  19  25
ENDBRANCH  15  24
ENDBRANCH  14  16
ENDBRANCH  13  14
ENDBRANCH   1  13
BRANCH   4  28
ATOM     28  C   UNL     1       7.614   0.339  -9.449  0.00  0.00    +0.097 C 
BRANCH  28  29
ATOM     29  C   UNL     1       8.001   1.705  -9.955  0.00  0.00    +0.029 A 
ATOM     30  N   UNL     1       8.108   1.936 -11.300  0.00  0.00    -0.311 N 
ATOM     31  C   UNL     1       8.452   3.152 -11.761  0.00  0.00    +0.327 A 
ATOM     32  O   UNL     1       8.542   3.334 -12.960  0.00  0.00    -0.247 OA
ATOM     33  N   UNL     1       8.699   4.169 -10.915  0.00  0.00    -0.275 N 
ATOM     34  C   UNL     1       8.604   3.982  -9.583  0.00  0.00    +0.254 A 
ATOM     35  O   UNL     1       8.827   4.902  -8.816  0.00  0.00    -0.268 OA
ATOM     36  C   UNL     1       8.238   2.709  -9.084  0.00  0.00    +0.091 A 
ATOM     37  H   UNL     1       8.946   5.039 -11.264  0.00  0.00    +0.173 HD
ATOM     38  H   UNL     1       7.934   1.216 -11.926  0.00  0.00    +0.170 HD
ENDBRANCH  28  29
ENDBRANCH   4  28
TORSDOF 9
