REMARK  Name = ZINC31910649
REMARK  6 active torsions:
REMARK  status: ('A' for Active; 'I' for Inactive)
REMARK    1  A    between atoms: C_1  and  C_2
REMARK    2  A    between atoms: CA_7  and  C_22
REMARK    3  A    between atoms: C_8  and  C_11
REMARK    4  A    between atoms: C_11  and  N_12
REMARK    5  A    between atoms: C_14  and  C_21
REMARK    6  A    between atoms: C_17  and  C_20
REMARK                            x       y       z     vdW  Elec       q    Type
REMARK                         _______ _______ _______ _____ _____    ______ ____
ROOT
ATOM      1  C   UNL     1      -2.532   0.993   0.020  0.00  0.00    +0.045 C 
ATOM      2  C   UNL     1      -1.238   1.765   0.018  0.00  0.00    -0.034 A 
ATOM      3  C   UNL     1      -0.013   1.076   0.008  0.00  0.00    +0.008 A 
ATOM      4  C   UNL     1       1.153   1.774   0.001  0.00  0.00    +0.047 A 
ATOM      5  C   UNL     1       1.115   3.185   0.008  0.00  0.00    +0.139 A 
ATOM      6  N   UNL     1       2.072   4.097   0.004  0.00  0.00    -0.221 NA
ATOM      7  CA  UNL     1       1.512   5.321   0.016  0.00  0.00    +0.172 A 
ATOM      8  C   UNL     1       0.154   5.168   0.027  0.00  0.00    +0.041 A 
ATOM      9  N   UNL     1      -0.097   3.830   0.023  0.00  0.00    -0.304 N 
ATOM     10  C   UNL     1      -1.261   3.113   0.030  0.00  0.00    +0.096 A 
ENDROOT
BRANCH   7  11
ATOM     11  C   UNL     1       2.238   6.605   0.015  0.00  0.00    +0.406 C 
ATOM     12  O   UNL     1       1.621   7.652   0.026  0.00  0.00    -0.239 OA
ATOM     13  OXT UNL     1       3.586   6.617   0.003  0.00  0.00    -0.239 OA
ENDBRANCH   7  11
BRANCH   8  14
ATOM     14  C   UNL     1      -0.871   6.272   0.042  0.00  0.00    -0.022 C 
BRANCH  14  15
ATOM     15  N   UNL     1      -1.192   6.624   1.432  0.00  0.00    +0.384 N 
ATOM     16  C   UNL     1      -1.861   5.509   2.116  0.00  0.00    -0.075 C 
ATOM     17  C   UNL     1      -2.049   5.855   3.595  0.00  0.00    -0.031 C 
ATOM     18  C   UNL     1      -2.889   7.129   3.713  0.00  0.00    +0.003 C 
ATOM     19  C   UNL     1      -2.195   8.262   2.952  0.00  0.00    -0.031 C 
ATOM     20  C   UNL     1      -2.003   7.846   1.492  0.00  0.00    -0.075 C 
ATOM     21  C   UNL     1      -0.831   8.543   3.587  0.00  0.00    +0.005 C 
ATOM     22  C   UNL     1      -2.765   4.703   4.302  0.00  0.00    +0.005 C 
ATOM     23  H   UNL     1      -0.247   6.822   1.959  0.00  0.00    -0.081 HD
ENDBRANCH  14  15
ENDBRANCH   8  14
TORSDOF 3
