REMARK  Name = ZINC06693408
REMARK  6 active torsions:
REMARK  status: ('A' for Active; 'I' for Inactive)
REMARK    1  A    between atoms: C_1  and  C_2
REMARK    2  A    between atoms: C_2  and  C_31
REMARK    3  A    between atoms: C_6  and  C_19
REMARK    4  A    between atoms: C_22  and  N_25
REMARK    5  A    between atoms: N_25  and  C_26
REMARK    6  A    between atoms: N_25  and  C_27
REMARK                            x       y       z     vdW  Elec       q    Type
REMARK                         _______ _______ _______ _____ _____    ______ ____
ROOT
ATOM      1  C   UNL     1       1.651   6.733   3.143  0.00  0.00    +0.011 C 
ATOM      2  C   UNL     1       1.825   7.622   1.911  0.00  0.00    -0.023 C 
ATOM      3  C   UNL     1       0.782   7.248   0.855  0.00  0.00    +0.058 C 
ATOM      4  C   UNL     1       0.982   5.813   0.433  0.00  0.00    +0.017 C 
ATOM      5  C   UNL     1       2.209   5.253   0.434  0.00  0.00    +0.024 C 
ATOM      6  C   UNL     1       2.410   3.826  -0.012  0.00  0.00    +0.092 C 
ATOM      7  C   UNL     1       1.116   3.066   0.001  0.00  0.00    +0.067 A 
ATOM      8  C   UNL     1      -0.079   3.720   0.023  0.00  0.00    +0.111 A 
ATOM      9  N   UNL     1      -1.247   2.997   0.024  0.00  0.00    -0.323 N 
ATOM     10  H   UNL     1      -2.100   3.458   0.037  0.00  0.00    +0.169 HD
ATOM     11  C   UNL     1      -1.214   1.651   0.003  0.00  0.00    +0.159 A 
ATOM     12  S   UNL     1      -2.683   0.772  -0.002  0.00  0.00    -0.013 S 
ATOM     13  N   UNL     1      -0.044   0.988  -0.009  0.00  0.00    -0.302 N 
ATOM     14  H   UNL     1      -0.041   0.018  -0.019  0.00  0.00    +0.171 HD
ATOM     15  C   UNL     1       1.125   1.659  -0.013  0.00  0.00    +0.258 A 
ATOM     16  O   UNL     1       2.182   1.052  -0.027  0.00  0.00    -0.267 OA
ATOM     17  N   UNL     1      -0.114   5.091   0.043  0.00  0.00    -0.304 N 
ATOM     18  C   UNL     1       3.338   5.982   0.848  0.00  0.00    +0.162 C 
ATOM     19  O   UNL     1       4.431   5.450   0.829  0.00  0.00    -0.292 OA
ATOM     20  C   UNL     1       3.220   7.407   1.313  0.00  0.00    +0.086 C 
ATOM     21  C   UNL     1       1.657   9.090   2.308  0.00  0.00    +0.011 C 
ATOM     22  H   UNL     1      -0.925   5.554  -0.221  0.00  0.00    +0.153 HD
ENDROOT
BRANCH   6  23
ATOM     23  C   UNL     1       2.972   3.820  -1.410  0.00  0.00    -0.035 A 
ATOM     24  C   UNL     1       2.241   4.365  -2.450  0.00  0.00    +0.006 A 
ATOM     25  C   UNL     1       2.756   4.366  -3.732  0.00  0.00    +0.023 A 
ATOM     26  C   UNL     1       4.004   3.808  -3.978  0.00  0.00    +0.029 A 
ATOM     27  C   UNL     1       4.733   3.257  -2.932  0.00  0.00    +0.023 A 
ATOM     28  C   UNL     1       4.215   3.264  -1.652  0.00  0.00    +0.006 A 
BRANCH  26  29
ATOM     29  N   UNL     1       4.526   3.803  -5.274  0.00  0.00    -0.336 N 
ATOM     30  C   UNL     1       5.891   3.330  -5.512  0.00  0.00    +0.129 C 
ATOM     31  C   UNL     1       3.706   4.270  -6.394  0.00  0.00    +0.129 C 
ENDBRANCH  26  29
ENDBRANCH   6  23
TORSDOF 2
