REMARK  Name = ZINC41584818
REMARK  7 active torsions:
REMARK  status: ('A' for Active; 'I' for Inactive)
REMARK    1  A    between atoms: C_1  and  O_2
REMARK    2  A    between atoms: O_2  and  C_3
REMARK    3  A    between atoms: C_6  and  O_9
REMARK    4  A    between atoms: O_9  and  C_10
REMARK    5  A    between atoms: C_19  and  O_38
REMARK    6  A    between atoms: C_20  and  C_21
REMARK    7  A    between atoms: C_21  and  N_22
REMARK                            x       y       z     vdW  Elec       q    Type
REMARK                         _______ _______ _______ _____ _____    ______ ____
ROOT
ATOM      1  C   UNL     1       2.472  -3.793  -4.404  0.00  0.00    +0.210 A 
ATOM      2  C   UNL     1       1.865  -4.580  -3.494  0.00  0.00    +0.245 A 
ATOM      3  O   UNL     1       1.864  -5.917  -3.578  0.00  0.00    -0.459 OA
ATOM      4  C   UNL     1       2.474  -6.579  -4.583  0.00  0.00    +0.143 A 
ATOM      5  C   UNL     1       3.140  -5.858  -5.590  0.00  0.00    +0.068 A 
ATOM      6  C   UNL     1       3.142  -4.387  -5.511  0.00  0.00    +0.235 A 
ATOM      7  O   UNL     1       3.699  -3.707  -6.357  0.00  0.00    -0.283 OA
ATOM      8  C   UNL     1       3.773  -6.532  -6.635  0.00  0.00    +0.019 A 
ATOM      9  C   UNL     1       3.744  -7.897  -6.677  0.00  0.00    +0.046 A 
ATOM     10  C   UNL     1       3.087  -8.619  -5.684  0.00  0.00    +0.122 A 
ATOM     11  C   UNL     1       2.454  -7.965  -4.640  0.00  0.00    +0.020 A 
ENDROOT
BRANCH  10  12
ATOM     12  O   UNL     1       3.067  -9.975  -5.739  0.00  0.00    -0.506 OA
ATOM     13  H   UNL     1       3.807 -10.398  -5.284  0.00  0.00    +0.292 HD
ENDBRANCH  10  12
BRANCH   1  14
ATOM     14  O   UNL     1       2.440  -2.439  -4.269  0.00  0.00    -0.449 OA
BRANCH  14  18
ATOM     15  C   UNL     1       5.992  -0.485  -3.491  0.00  0.00    +0.120 A 
ATOM     16  C   UNL     1       5.955  -1.871  -3.522  0.00  0.00    +0.049 A 
ATOM     17  C   UNL     1       4.767  -2.525  -3.783  0.00  0.00    +0.050 A 
ATOM     18  C   UNL     1       3.610  -1.795  -4.012  0.00  0.00    +0.129 A 
ATOM     19  C   UNL     1       3.646  -0.409  -3.981  0.00  0.00    +0.050 A 
ATOM     20  C   UNL     1       4.833   0.245  -3.716  0.00  0.00    +0.049 A 
BRANCH  15  22
ATOM     21  C   UNL     1       8.315  -0.655  -3.013  0.00  0.00    +0.277 C 
ATOM     22  O   UNL     1       7.162   0.159  -3.235  0.00  0.00    -0.495 OA
ENDBRANCH  15  22
ENDBRANCH  14  18
ENDBRANCH   1  14
BRANCH  11  23
ATOM     23  C   UNL     1       1.746  -8.756  -3.570  0.00  0.00    -0.036 C 
BRANCH  23  24
ATOM     24  N   UNL     1       0.345  -8.966  -3.962  0.00  0.00    +0.383 N 
ATOM     25  C   UNL     1      -0.308  -9.842  -2.986  0.00  0.00    -0.073 C 
ATOM     26  C   UNL     1      -1.764 -10.085  -3.353  0.00  0.00    -0.007 C 
ATOM     27  C   UNL     1      -2.518  -8.758  -3.486  0.00  0.00    +0.011 C 
ATOM     28  C   UNL     1      -1.776  -7.912  -4.527  0.00  0.00    +0.020 C 
ATOM     29  C   UNL     1      -0.347  -7.670  -4.012  0.00  0.00    -0.069 C 
ATOM     30  C   UNL     1      -1.680  -8.692  -5.820  0.00  0.00    +0.023 A 
ATOM     31  C   UNL     1      -1.625  -7.983  -6.978  0.00  0.00    +0.022 A 
ATOM     32  C   UNL     1      -1.471  -8.638  -8.205  0.00  0.00    +0.007 A 
ATOM     33  C   UNL     1      -1.351  -9.996  -8.216  0.00  0.00    +0.070 A 
ATOM     34  C   UNL     1      -1.408 -10.697  -7.003  0.00  0.00    +0.251 A 
ATOM     35  O   UNL     1      -1.240 -11.906  -6.995  0.00  0.00    -0.268 OA
ATOM     36  N   UNL     1      -1.647 -10.044  -5.839  0.00  0.00    -0.312 N 
ATOM     37  C   UNL     1      -1.897 -10.860  -4.654  0.00  0.00    +0.126 C 
ATOM     38  H   UNL     1       0.314  -9.398  -4.874  0.00  0.00    -0.081 HD
ENDBRANCH  23  24
ENDBRANCH  11  23
TORSDOF 6
