REMARK  Name = ZINC05136848
REMARK  7 active torsions:
REMARK  status: ('A' for Active; 'I' for Inactive)
REMARK    1  A    between atoms: C_1  and  C_2
REMARK    2  A    between atoms: C_5  and  S_9
REMARK    3  A    between atoms: C_6  and  C_8
REMARK    4  A    between atoms: S_9  and  N_12
REMARK    5  A    between atoms: N_12  and  C_13
REMARK    6  A    between atoms: N_19  and  S_23
REMARK    7  A    between atoms: S_23  and  C_26
REMARK                            x       y       z     vdW  Elec       q    Type
REMARK                         _______ _______ _______ _____ _____    ______ ____
ROOT
ATOM      1  C   UNL     1      -1.290   3.660  -1.170  0.00  0.00    +0.050 A 
ATOM      2  C   UNL     1      -1.621   4.292   0.023  0.00  0.00    +0.025 A 
ATOM      3  C   UNL     1      -1.757   5.665   0.064  0.00  0.00    +0.007 A 
ATOM      4  C   UNL     1      -1.577   6.422  -1.083  0.00  0.00    -0.025 A 
ATOM      5  C   UNL     1      -1.251   5.795  -2.276  0.00  0.00    +0.056 A 
ATOM      6  C   UNL     1      -1.108   4.413  -2.320  0.00  0.00    +0.049 A 
ATOM      7  N   UNL     1      -1.056   6.537  -3.446  0.00  0.00    -0.207 N 
ATOM      8  C   UNL     1      -1.490   7.940  -3.478  0.00  0.00    +0.131 C 
ATOM      9  C   UNL     1      -1.038   8.600  -2.169  0.00  0.00    +0.025 C 
ATOM     10  C   UNL     1      -1.746   7.916  -1.000  0.00  0.00    +0.038 C 
ENDROOT
BRANCH   7  11
ATOM     11  S   UNL     1      -0.346   5.844  -4.773  0.00  0.00    +0.043 S 
ATOM     12  O   UNL     1       0.084   6.941  -5.567  0.00  0.00    -0.155 OA
ATOM     13  O   UNL     1       0.594   4.921  -4.241  0.00  0.00    -0.155 OA
ATOM     14  C   UNL     1      -1.689   4.956  -5.609  0.00  0.00    +0.218 C 
ENDBRANCH   7  11
BRANCH   1  15
ATOM     15  N   UNL     1      -1.147   2.271  -1.212  0.00  0.00    -0.216 N 
ATOM     16  H   UNL     1      -1.558   1.763  -1.929  0.00  0.00    +0.174 HD
BRANCH  15  17
ATOM     17  S   UNL     1      -0.278   1.493  -0.037  0.00  0.00    +0.073 S 
ATOM     18  O   UNL     1      -0.778   1.953   1.211  0.00  0.00    -0.150 OA
ATOM     19  O   UNL     1      -0.260   0.117  -0.390  0.00  0.00    -0.150 OA
BRANCH  17  24
ATOM     20  C   UNL     1       5.416   3.450  -0.439  0.00  0.00    +0.044 C 
ATOM     21  C   UNL     1       3.994   2.961  -0.339  0.00  0.00    -0.050 A 
ATOM     22  C   UNL     1       3.264   3.190   0.813  0.00  0.00    +0.005 A 
ATOM     23  C   UNL     1       1.960   2.741   0.905  0.00  0.00    +0.029 A 
ATOM     24  C   UNL     1       1.385   2.065  -0.155  0.00  0.00    +0.111 A 
ATOM     25  C   UNL     1       2.116   1.832  -1.304  0.00  0.00    -0.024 A 
ATOM     26  C   UNL     1       3.419   2.284  -1.398  0.00  0.00    +0.008 A 
ATOM     27  C   UNL     1       1.492   1.088  -2.457  0.00  0.00    +0.046 C 
ENDBRANCH  17  24
ENDBRANCH  15  17
ENDBRANCH   1  15
TORSDOF 4
