REMARK  Name = ZINC16569789
REMARK  8 active torsions:
REMARK  status: ('A' for Active; 'I' for Inactive)
REMARK    1  A    between atoms: C_1  and  C_2
REMARK    2  A    between atoms: C_2  and  C_3
REMARK    3  A    between atoms: C_3  and  C_4
REMARK    4  A    between atoms: C_4  and  N_5
REMARK    5  A    between atoms: N_5  and  C_6
REMARK    6  A    between atoms: C_6  and  C_7
REMARK    7  A    between atoms: C_21  and  C_23
REMARK    8  A    between atoms: N_31  and  C_32
REMARK                            x       y       z     vdW  Elec       q    Type
REMARK                         _______ _______ _______ _____ _____    ______ ____
ROOT
ATOM      1  C   UNL     1       0.002  -0.004   0.002  0.00  0.00    +0.238 C 
ATOM      2  O   UNL     1      -1.035  -0.625   0.100  0.00  0.00    -0.273 OA
ATOM      3  N   UNL     1      -0.016   1.344   0.009  0.00  0.00    -0.255 N 
ATOM      4  C   UNL     1      -1.240   2.027   0.016  0.00  0.00    +0.061 A 
ATOM      5  C   UNL     1      -2.364   1.463  -0.567  0.00  0.00    +0.025 A 
ATOM      6  C   UNL     1      -3.567   2.144  -0.545  0.00  0.00    +0.002 A 
ATOM      7  C   UNL     1      -3.658   3.386   0.057  0.00  0.00    +0.002 A 
ATOM      8  C   UNL     1      -2.541   3.959   0.639  0.00  0.00    +0.028 A 
ATOM      9  C   UNL     1      -1.335   3.287   0.616  0.00  0.00    +0.068 A 
ATOM     10  N   UNL     1      -0.170   3.837   1.170  0.00  0.00    -0.316 N 
ATOM     11  C   UNL     1      -0.013   4.900   1.994  0.00  0.00    +0.092 A 
ATOM     12  C   UNL     1       1.305   5.035   2.261  0.00  0.00    +0.020 A 
ATOM     13  C   UNL     1       1.987   4.011   1.568  0.00  0.00    +0.025 A 
ATOM     14  C   UNL     1       1.070   3.296   0.909  0.00  0.00    +0.049 A 
ATOM     15  C   UNL     1       1.249   2.096   0.016  0.00  0.00    +0.159 C 
ENDROOT
BRANCH  15  16
ATOM     16  C   UNL     1       1.581   2.550  -1.382  0.00  0.00    -0.021 A 
ATOM     17  C   UNL     1       0.579   3.008  -2.216  0.00  0.00    +0.006 A 
ATOM     18  C   UNL     1       0.884   3.429  -3.497  0.00  0.00    +0.000 A 
ATOM     19  C   UNL     1       2.190   3.384  -3.946  0.00  0.00    +0.000 A 
ATOM     20  C   UNL     1       3.192   2.921  -3.114  0.00  0.00    +0.000 A 
ATOM     21  C   UNL     1       2.888   2.504  -1.832  0.00  0.00    +0.006 A 
ENDBRANCH  15  16
BRANCH   1  22
ATOM     22  C   UNL     1       1.311  -0.739  -0.128  0.00  0.00    +0.205 C 
BRANCH  22  23
ATOM     23  N   UNL     1       1.055  -2.178  -0.230  0.00  0.00    -0.277 N 
ATOM     24  C   UNL     1       1.000  -2.933   0.884  0.00  0.00    +0.303 C 
ATOM     25  O   UNL     1       1.163  -2.421   1.975  0.00  0.00    -0.253 OA
ATOM     26  N   UNL     1       0.765  -4.257   0.790  0.00  0.00    -0.296 N 
ATOM     27  H   UNL     1       0.635  -4.666  -0.079  0.00  0.00    +0.151 HD
BRANCH  26  28
ATOM     28  C   UNL     1       0.705  -5.078   2.002  0.00  0.00    +0.074 C 
ATOM     29  C   UNL     1       2.120  -5.507   2.398  0.00  0.00    +0.022 C 
ATOM     30  C   UNL     1       2.058  -6.365   3.663  0.00  0.00    +0.002 C 
ATOM     31  C   UNL     1       1.204  -7.606   3.397  0.00  0.00    +0.000 C 
ATOM     32  C   UNL     1      -0.210  -7.178   3.001  0.00  0.00    +0.002 C 
ATOM     33  C   UNL     1      -0.148  -6.320   1.735  0.00  0.00    +0.022 C 
ENDBRANCH  26  28
BRANCH  23  34
ATOM     34  C   UNL     1       0.859  -2.796  -1.544  0.00  0.00    +0.110 C 
BRANCH  34  35
ATOM     35  C   UNL     1       2.209  -3.256  -2.098  0.00  0.00    +0.019 C 
BRANCH  35  37
ATOM     36  C   UNL     1       3.353  -4.362  -4.024  0.00  0.00    +0.004 C 
ATOM     37  C   UNL     1       2.003  -3.901  -3.470  0.00  0.00    -0.002 C 
ENDBRANCH  35  37
ENDBRANCH  34  35
ENDBRANCH  23  34
ENDBRANCH  22  23
ENDBRANCH   1  22
TORSDOF 7
