REMARK  Name = ZINC01978752
REMARK  8 active torsions:
REMARK  status: ('A' for Active; 'I' for Inactive)
REMARK    1  A    between atoms: C_1  and  C_2
REMARK    2  A    between atoms: C_4  and  C_32
REMARK    3  A    between atoms: C_5  and  N_9
REMARK    4  A    between atoms: C_6  and  C_8
REMARK    5  A    between atoms: C_10  and  C_12
REMARK    6  A    between atoms: C_12  and  O_13
REMARK    7  A    between atoms: O_13  and  C_14
REMARK    8  A    between atoms: C_24  and  C_25
REMARK                            x       y       z     vdW  Elec       q    Type
REMARK                         _______ _______ _______ _____ _____    ______ ____
ROOT
ATOM      1  C   UNL     1       1.442   5.789   1.756  0.00  0.00    +0.211 A 
ATOM      2  C   UNL     1       0.910   5.168   2.916  0.00  0.00    +0.235 A 
ATOM      3  O   UNL     1       0.346   5.818   3.781  0.00  0.00    -0.283 OA
ATOM      4  C   UNL     1       1.067   3.706   3.034  0.00  0.00    +0.068 A 
ATOM      5  C   UNL     1       0.577   3.012   4.139  0.00  0.00    +0.015 A 
ATOM      6  C   UNL     1       0.738   1.646   4.210  0.00  0.00    +0.001 A 
ATOM      7  C   UNL     1       1.394   0.965   3.194  0.00  0.00    +0.004 A 
ATOM      8  C   UNL     1       1.884   1.640   2.097  0.00  0.00    +0.047 A 
ATOM      9  C   UNL     1       1.727   3.018   2.003  0.00  0.00    +0.140 A 
ATOM     10  O   UNL     1       2.199   3.696   0.937  0.00  0.00    -0.451 OA
ATOM     11  C   UNL     1       2.065   5.027   0.814  0.00  0.00    +0.181 A 
ENDROOT
BRANCH  11  12
ATOM     12  C   UNL     1       2.612   5.688  -0.386  0.00  0.00    +0.021 A 
ATOM     13  C   UNL     1       1.827   6.587  -1.112  0.00  0.00    +0.013 A 
ATOM     14  C   UNL     1       2.346   7.205  -2.229  0.00  0.00    +0.021 A 
ATOM     15  C   UNL     1       3.641   6.929  -2.639  0.00  0.00    +0.041 A 
ATOM     16  C   UNL     1       4.423   6.035  -1.927  0.00  0.00    +0.021 A 
ATOM     17  C   UNL     1       3.917   5.413  -0.804  0.00  0.00    +0.013 A 
ATOM     18 CL   UNL     1       4.285   7.707  -4.051  0.00  0.00    -0.084 Cl
ENDBRANCH  11  12
BRANCH   1  19
ATOM     19  O   UNL     1       1.331   7.135   1.587  0.00  0.00    -0.476 OA
BRANCH  19  20
ATOM     20  C   UNL     1       2.346   7.949   2.177  0.00  0.00    +0.325 C 
BRANCH  20  22
ATOM     21  N   UNL     1       2.889  10.356   2.348  0.00  0.00    -0.282 N 
ATOM     22  C   UNL     1       2.059   9.399   1.887  0.00  0.00    +0.255 C 
ATOM     23  O   UNL     1       1.081   9.706   1.238  0.00  0.00    -0.272 OA
ATOM     24  H   UNL     1       3.703  10.109   2.812  0.00  0.00    +0.155 HD
BRANCH  21  29
ATOM     25  C   UNL     1       1.617  15.829   1.567  0.00  0.00    +0.044 C 
ATOM     26  C   UNL     1       1.954  14.376   1.775  0.00  0.00    -0.050 A 
ATOM     27  C   UNL     1       2.257  13.576   0.688  0.00  0.00    +0.008 A 
ATOM     28  C   UNL     1       2.567  12.243   0.874  0.00  0.00    -0.029 A 
ATOM     29  C   UNL     1       2.575  11.706   2.155  0.00  0.00    +0.039 A 
ATOM     30  C   UNL     1       2.266  12.511   3.244  0.00  0.00    -0.029 A 
ATOM     31  C   UNL     1       1.962  13.844   3.051  0.00  0.00    +0.008 A 
ATOM     32  C   UNL     1       2.268  11.931   4.635  0.00  0.00    +0.045 C 
ATOM     33  C   UNL     1       2.896  11.372  -0.311  0.00  0.00    +0.045 C 
ENDBRANCH  21  29
ENDBRANCH  20  22
ENDBRANCH  19  20
ENDBRANCH   1  19
TORSDOF 5
