REMARK  Name = ZINC15302424
REMARK  5 active torsions:
REMARK  status: ('A' for Active; 'I' for Inactive)
REMARK    1  A    between atoms: C_4  and  S_11
REMARK    2  A    between atoms: C_5  and  C_7
REMARK    3  A    between atoms: S_11  and  N_14
REMARK    4  A    between atoms: C_17  and  C_20
REMARK    5  A    between atoms: N_22  and  C_23
REMARK                            x       y       z     vdW  Elec       q    Type
REMARK                         _______ _______ _______ _____ _____    ______ ____
ROOT
ATOM      1  N   UNL     1      -1.761  -4.832  -0.647  0.00  0.00    -0.177 NA
ATOM      2  C   UNL     1      -2.642  -4.158   0.317  0.00  0.00    +0.110 C 
ATOM      3  C   UNL     1      -2.534  -2.644   0.109  0.00  0.00    +0.030 C 
ATOM      4  C   UNL     1      -1.065  -2.224   0.200  0.00  0.00    +0.078 C 
ATOM      5  C   UNL     1      -0.264  -2.921  -0.903  0.00  0.00    +0.030 C 
ATOM      6  C   UNL     1      -0.347  -4.439  -0.707  0.00  0.00    +0.110 C 
ENDROOT
BRANCH   4   7
ATOM      7  C   UNL     1      -0.958  -0.731   0.030  0.00  0.00    +0.220 C 
ATOM      8  O   UNL     1      -1.958  -0.068  -0.146  0.00  0.00    -0.275 OA
ATOM      9  N   UNL     1       0.249  -0.132   0.073  0.00  0.00    -0.285 N 
ATOM     10  H   UNL     1       1.055  -0.669   0.133  0.00  0.00    +0.155 HD
BRANCH   9  11
ATOM     11  C   UNL     1       0.339   1.264   0.033  0.00  0.00    +0.037 A 
ATOM     12  C   UNL     1      -0.745   2.036   0.420  0.00  0.00    +0.023 A 
ATOM     13  C   UNL     1      -0.651   3.413   0.385  0.00  0.00    +0.002 A 
ATOM     14  C   UNL     1       0.514   4.011  -0.050  0.00  0.00    +0.004 A 
ATOM     15  C   UNL     1       1.601   3.242  -0.446  0.00  0.00    -0.042 A 
ATOM     16  C   UNL     1       1.518   1.870  -0.403  0.00  0.00    -0.023 A 
ATOM     17  C   UNL     1       2.661   0.974  -0.801  0.00  0.00    +0.037 C 
ATOM     18  C   UNL     1       3.681   1.745  -1.637  0.00  0.00    +0.005 C 
ATOM     19  C   UNL     1       4.047   3.032  -0.889  0.00  0.00    +0.005 C 
ATOM     20  C   UNL     1       2.837   3.965  -0.915  0.00  0.00    +0.035 C 
ENDBRANCH   9  11
ENDBRANCH   4   7
BRANCH   1  21
ATOM     21  S   UNL     1      -2.352  -6.012  -1.648  0.00  0.00    +0.061 S 
ATOM     22  O   UNL     1      -1.226  -6.720  -2.149  0.00  0.00    -0.153 OA
ATOM     23  O   UNL     1      -3.403  -6.655  -0.941  0.00  0.00    -0.153 OA
BRANCH  21  27
ATOM     24  C   UNL     1      -4.256  -3.934  -5.190  0.00  0.00    +0.001 A 
ATOM     25  C   UNL     1      -3.429  -3.227  -4.336  0.00  0.00    +0.002 A 
ATOM     26  C   UNL     1      -2.852  -3.861  -3.252  0.00  0.00    +0.029 A 
ATOM     27  C   UNL     1      -3.093  -5.203  -3.027  0.00  0.00    +0.117 A 
ATOM     28  C   UNL     1      -3.919  -5.910  -3.880  0.00  0.00    +0.081 A 
ATOM     29  C   UNL     1      -4.500  -5.275  -4.962  0.00  0.00    +0.014 A 
BRANCH  28  30
ATOM     30  C   UNL     1      -4.186  -7.372  -3.631  0.00  0.00    +0.419 C 
ATOM     31  F   UNL     1      -4.923  -7.899  -4.697  0.00  0.00    -0.166 F 
ATOM     32  F   UNL     1      -2.971  -8.056  -3.521  0.00  0.00    -0.166 F 
ATOM     33  F   UNL     1      -4.912  -7.518  -2.444  0.00  0.00    -0.166 F 
ENDBRANCH  28  30
ENDBRANCH  21  27
ENDBRANCH   1  21
TORSDOF 5
