REMARK  Name = ZINC33005751
REMARK  10 active torsions:
REMARK  status: ('A' for Active; 'I' for Inactive)
REMARK    1  A    between atoms: C_1  and  C_2
REMARK    2  A    between atoms: C_7  and  C_8
REMARK    3  A    between atoms: N_9  and  C_15
REMARK    4  A    between atoms: C_12  and  C_14
REMARK    5  A    between atoms: C_15  and  C_16
REMARK    6  A    between atoms: C_16  and  C_17
REMARK    7  A    between atoms: N_19  and  C_20
REMARK    8  A    between atoms: C_20  and  C_21
REMARK    9  A    between atoms: N_24  and  C_27
REMARK   10  A    between atoms: C_27  and  C_28
REMARK                            x       y       z     vdW  Elec       q    Type
REMARK                         _______ _______ _______ _____ _____    ______ ____
ROOT
ATOM      1  C   UNL     1      -0.014   1.209   0.009  0.00  0.00    +0.215 C 
ATOM      2  O   UNL     1       0.002  -0.004   0.002  0.00  0.00    -0.276 OA
ATOM      3  N   UNL     1       1.143   1.898   0.001  0.00  0.00    -0.315 N 
ATOM      4  H   UNL     1       1.129   2.998   0.007  0.00  0.00    +0.149 HD
ENDROOT
BRANCH   1   5
ATOM      5  C   UNL     1      -1.330   1.944   0.019  0.00  0.00    +0.117 C 
BRANCH   5   6
ATOM      6  C   UNL     1      -2.479   0.934   0.019  0.00  0.00    +0.135 C 
BRANCH   6  15
ATOM      7  C   UNL     1      -6.294   3.083  -4.827  0.00  0.00    +0.044 C 
ATOM      8  C   UNL     1      -5.626   2.706  -3.529  0.00  0.00    -0.045 A 
ATOM      9  C   UNL     1      -6.219   3.033  -2.345  0.00  0.00    +0.033 A 
ATOM     10  C   UNL     1      -5.604   2.685  -1.133  0.00  0.00    +0.088 A 
ATOM     11  C   UNL     1      -4.375   1.998  -1.155  0.00  0.00    +0.071 A 
ATOM     12  C   UNL     1      -3.789   1.675  -2.376  0.00  0.00    +0.031 A 
ATOM     13  C   UNL     1      -4.415   2.028  -3.551  0.00  0.00    -0.045 A 
ATOM     14  C   UNL     1      -3.779   1.677  -4.872  0.00  0.00    +0.044 C 
ATOM     15  N   UNL     1      -3.757   1.649   0.029  0.00  0.00    -0.305 N 
ATOM     16  C   UNL     1      -4.354   1.973   1.197  0.00  0.00    +0.273 A 
ATOM     17  O   UNL     1      -3.834   1.674   2.257  0.00  0.00    -0.266 OA
ATOM     18  C   UNL     1      -5.632   2.693   1.173  0.00  0.00    +0.103 A 
ATOM     19  N   UNL     1      -6.186   3.007   0.038  0.00  0.00    -0.245 NA
ATOM     20  C   UNL     1      -6.307   3.066   2.468  0.00  0.00    +0.071 C 
ENDBRANCH   6  15
ENDBRANCH   5   6
ENDBRANCH   1   5
BRANCH   3  21
ATOM     21  C   UNL     1       2.422   1.183  -0.015  0.00  0.00    +0.107 C 
BRANCH  21  22
ATOM     22  C   UNL     1       3.571   2.193  -0.020  0.00  0.00    +0.003 C 
ATOM     23  C   UNL     1       3.545   2.991  -1.327  0.00  0.00    -0.014 C 
ATOM     24  C   UNL     1       4.732   3.956  -1.353  0.00  0.00    -0.078 C 
ATOM     25  N   UNL     1       5.985   3.197  -1.247  0.00  0.00    +0.382 N 
ATOM     26  C   UNL     1       6.053   2.461   0.021  0.00  0.00    -0.078 C 
ATOM     27  C   UNL     1       4.906   1.450   0.089  0.00  0.00    -0.014 C 
ATOM     28  H   UNL     1       6.001   2.461  -2.064  0.00  0.00    -0.081 HD
BRANCH  25  29
ATOM     29  C   UNL     1       7.149   4.078  -1.408  0.00  0.00    -0.040 C 
BRANCH  29  30
ATOM     30  C   UNL     1       6.930   4.991  -2.586  0.00  0.00    -0.029 A 
ATOM     31  C   UNL     1       7.522   4.706  -3.802  0.00  0.00    +0.004 A 
ATOM     32  C   UNL     1       7.316   5.540  -4.885  0.00  0.00    +0.000 A 
ATOM     33  C   UNL     1       6.527   6.667  -4.750  0.00  0.00    +0.003 A 
ATOM     34  C   UNL     1       5.938   6.958  -3.534  0.00  0.00    +0.038 A 
ATOM     35  C   UNL     1       6.139   6.119  -2.450  0.00  0.00    +0.125 A 
ATOM     36  F   UNL     1       5.564   6.402  -1.261  0.00  0.00    -0.205 F 
ENDBRANCH  29  30
ENDBRANCH  25  29
ENDBRANCH  21  22
ENDBRANCH   3  21
TORSDOF 7
