REMARK  Name = ZINC63406062
REMARK  5 active torsions:
REMARK  status: ('A' for Active; 'I' for Inactive)
REMARK    1  A    between atoms: C_4  and  C_7
REMARK    2  A    between atoms: C_10  and  N_29
REMARK    3  A    between atoms: C_15  and  C_17
REMARK    4  A    between atoms: N_19  and  N_20
REMARK    5  A    between atoms: C_21  and  C_22
REMARK                            x       y       z     vdW  Elec       q    Type
REMARK                         _______ _______ _______ _____ _____    ______ ____
ROOT
ATOM      1  C   UNL     1       2.914   0.093  -0.874  0.00  0.00    -0.000 C 
ATOM      2  C   UNL     1       3.881   0.981  -1.313  0.00  0.00    +0.006 A 
ATOM      3  C   UNL     1       3.815   2.322  -1.765  0.00  0.00    +0.043 A 
ATOM      4  C   UNL     1       4.949   2.960  -2.141  0.00  0.00    +0.127 A 
ATOM      5  C   UNL     1       6.197   2.329  -2.097  0.00  0.00    +0.035 A 
ATOM      6  C   UNL     1       6.338   1.050  -1.676  0.00  0.00    +0.028 A 
ATOM      7  C   UNL     1       5.195   0.312  -1.264  0.00  0.00    +0.044 A 
ATOM      8  N   UNL     1       5.067  -0.919  -0.823  0.00  0.00    -0.370 N 
ATOM      9  C   UNL     1       3.654  -1.181  -0.531  0.00  0.00    +0.199 C 
ATOM     10  H   UNL     1       5.792  -1.553  -0.705  0.00  0.00    +0.161 HD
ENDROOT
BRANCH   1  14
ATOM     11  C   UNL     1      -1.249   0.802  -0.543  0.00  0.00    +0.000 A 
ATOM     12  C   UNL     1      -0.489   1.560  -1.418  0.00  0.00    +0.001 A 
ATOM     13  C   UNL     1       0.866   1.337  -1.532  0.00  0.00    +0.008 A 
ATOM     14  C   UNL     1       1.475   0.338  -0.759  0.00  0.00    -0.019 A 
ATOM     15  C   UNL     1       0.697  -0.424   0.124  0.00  0.00    +0.008 A 
ATOM     16  C   UNL     1      -0.656  -0.187   0.225  0.00  0.00    +0.001 A 
ENDBRANCH   1  14
BRANCH   9  17
ATOM     17  C   UNL     1       3.152  -2.317  -1.385  0.00  0.00    +0.259 C 
ATOM     18  O   UNL     1       2.139  -2.908  -1.074  0.00  0.00    -0.271 OA
ATOM     19  N   UNL     1       3.830  -2.678  -2.493  0.00  0.00    -0.205 N 
ATOM     20  H   UNL     1       4.677  -2.255  -2.702  0.00  0.00    +0.177 HD
BRANCH  19  21
ATOM     21  N   UNL     1       3.311  -3.663  -3.342  0.00  0.00    -0.188 NA
ATOM     22  C   UNL     1       4.013  -4.090  -4.346  0.00  0.00    +0.138 C 
BRANCH  22  23
ATOM     23  C   UNL     1       5.479  -3.937  -4.339  0.00  0.00    -0.004 A 
ATOM     24  C   UNL     1       6.143  -3.591  -3.159  0.00  0.00    +0.009 A 
ATOM     25  C   UNL     1       7.515  -3.449  -3.159  0.00  0.00    +0.002 A 
ATOM     26  C   UNL     1       8.235  -3.648  -4.323  0.00  0.00    +0.015 A 
ATOM     27  C   UNL     1       7.584  -3.991  -5.497  0.00  0.00    +0.018 A 
ATOM     28  C   UNL     1       6.212  -4.142  -5.510  0.00  0.00    +0.024 A 
ATOM     29 BR   UNL     1       8.579  -4.260  -7.082  0.00  0.00    -0.050 Br
ENDBRANCH  22  23
ENDBRANCH  19  21
ENDBRANCH   9  17
BRANCH   4  30
ATOM     30  N   UNL     1       4.866   4.362  -2.612  0.00  0.00    +0.056 N 
ATOM     31  O   UNL     1       3.795   4.922  -2.657  0.00  0.00    -0.126 OA
ATOM     32  O   UNL     1       5.868   4.946  -2.952  0.00  0.00    -0.126 OA
ENDBRANCH   4  30
TORSDOF 5
