REMARK  Name = ZINC35246627
REMARK  7 active torsions:
REMARK  status: ('A' for Active; 'I' for Inactive)
REMARK    1  A    between atoms: C_1  and  C_2
REMARK    2  A    between atoms: C_5  and  N_9
REMARK    3  A    between atoms: C_6  and  C_8
REMARK    4  A    between atoms: N_12  and  C_13
REMARK    5  A    between atoms: N_12  and  C_37
REMARK    6  A    between atoms: C_13  and  C_14
REMARK    7  A    between atoms: C_28  and  C_30
REMARK                            x       y       z     vdW  Elec       q    Type
REMARK                         _______ _______ _______ _____ _____    ______ ____
ROOT
ATOM      1  C   UNL     1       1.329  -7.181  -3.442  0.00  0.00    +0.238 C 
ATOM      2  O   UNL     1       2.350  -6.907  -2.849  0.00  0.00    -0.273 OA
ATOM      3  N   UNL     1       1.389  -7.680  -4.692  0.00  0.00    -0.255 N 
ATOM      4  C   UNL     1       2.632  -7.970  -5.271  0.00  0.00    +0.061 A 
ATOM      5  C   UNL     1       3.761  -7.253  -4.910  0.00  0.00    +0.025 A 
ATOM      6  C   UNL     1       4.983  -7.556  -5.481  0.00  0.00    +0.002 A 
ATOM      7  C   UNL     1       5.088  -8.573  -6.412  0.00  0.00    +0.002 A 
ATOM      8  C   UNL     1       3.966  -9.292  -6.784  0.00  0.00    +0.028 A 
ATOM      9  C   UNL     1       2.741  -8.991  -6.221  0.00  0.00    +0.068 A 
ATOM     10  N   UNL     1       1.571  -9.674  -6.585  0.00  0.00    -0.316 N 
ATOM     11  C   UNL     1       1.413 -10.824  -7.283  0.00  0.00    +0.092 A 
ATOM     12  C   UNL     1       0.089 -11.083  -7.372  0.00  0.00    +0.020 A 
ATOM     13  C   UNL     1      -0.595 -10.046  -6.700  0.00  0.00    +0.025 A 
ATOM     14  C   UNL     1       0.327  -9.198  -6.231  0.00  0.00    +0.049 A 
ATOM     15  C   UNL     1       0.148  -7.926  -5.447  0.00  0.00    +0.159 C 
ENDROOT
BRANCH  15  16
ATOM     16  C   UNL     1      -0.110  -6.780  -6.391  0.00  0.00    -0.021 A 
ATOM     17  C   UNL     1       0.939  -6.206  -7.084  0.00  0.00    +0.007 A 
ATOM     18  C   UNL     1       0.703  -5.155  -7.951  0.00  0.00    +0.020 A 
ATOM     19  C   UNL     1      -0.584  -4.679  -8.125  0.00  0.00    +0.041 A 
ATOM     20  C   UNL     1      -1.634  -5.254  -7.432  0.00  0.00    +0.020 A 
ATOM     21  C   UNL     1      -1.397  -6.308  -6.570  0.00  0.00    +0.007 A 
ATOM     22 CL   UNL     1      -0.882  -3.359  -9.213  0.00  0.00    -0.084 Cl
ENDBRANCH  15  16
BRANCH   1  23
ATOM     23  C   UNL     1      -0.008  -6.965  -2.780  0.00  0.00    +0.205 C 
BRANCH  23  27
ATOM     24  N   UNL     1       0.129  -4.234  -2.430  0.00  0.00    -0.269 N 
ATOM     25  C   UNL     1       0.218  -5.016  -1.336  0.00  0.00    +0.307 C 
ATOM     26  O   UNL     1       0.322  -4.511  -0.235  0.00  0.00    -0.252 OA
ATOM     27  N   UNL     1       0.192  -6.358  -1.462  0.00  0.00    -0.274 N 
ATOM     28  H   UNL     1      -0.018  -4.634  -3.301  0.00  0.00    +0.156 HD
BRANCH  24  33
ATOM     29  C   UNL     1       0.611   1.397  -1.938  0.00  0.00    +0.044 C 
ATOM     30  C   UNL     1       0.483  -0.099  -2.069  0.00  0.00    -0.050 A 
ATOM     31  C   UNL     1      -0.025  -0.842  -1.019  0.00  0.00    +0.005 A 
ATOM     32  C   UNL     1      -0.144  -2.213  -1.135  0.00  0.00    +0.024 A 
ATOM     33  C   UNL     1       0.248  -2.845  -2.309  0.00  0.00    +0.038 A 
ATOM     34  C   UNL     1       0.757  -2.096  -3.361  0.00  0.00    -0.029 A 
ATOM     35  C   UNL     1       0.868  -0.724  -3.240  0.00  0.00    +0.008 A 
ATOM     36  C   UNL     1       1.183  -2.778  -4.635  0.00  0.00    +0.045 C 
ENDBRANCH  24  33
BRANCH  27  37
ATOM     37  C   UNL     1       0.363  -7.208  -0.282  0.00  0.00    +0.078 C 
ATOM     38  C   UNL     1       0.145  -6.566   1.089  0.00  0.00    +0.024 C 
ATOM     39  C   UNL     1       1.560  -6.922   0.627  0.00  0.00    +0.024 C 
ENDBRANCH  27  37
ENDBRANCH  23  27
ENDBRANCH   1  23
TORSDOF 5
