REMARK  Name = ZINC01449952
REMARK  7 active torsions:
REMARK  status: ('A' for Active; 'I' for Inactive)
REMARK    1  A    between atoms: C_1  and  C_2
REMARK    2  A    between atoms: C_2  and  C_3
REMARK    3  A    between atoms: C_3  and  N_4
REMARK    4  A    between atoms: C_8  and  C_9
REMARK    5  A    between atoms: C_10  and  N_21
REMARK    6  A    between atoms: C_13  and  C_20
REMARK    7  A    between atoms: N_24  and  C_27
REMARK                            x       y       z     vdW  Elec       q    Type
REMARK                         _______ _______ _______ _____ _____    ______ ____
ROOT
ATOM      1  C   UNL     1       4.789   0.178   0.111  0.00  0.00    +0.081 A 
ATOM      2  C   UNL     1       4.854   1.545   0.469  0.00  0.00    +0.136 A 
ATOM      3  N   UNL     1       3.737   2.255   0.543  0.00  0.00    -0.213 NA
ATOM      4  C   UNL     1       2.546   1.713   0.287  0.00  0.00    +0.145 A 
ATOM      5  C   UNL     1       1.395   2.516   0.381  0.00  0.00    -0.007 A 
ATOM      6  C   UNL     1       0.172   1.970   0.123  0.00  0.00    +0.008 A 
ATOM      7  C   UNL     1       0.079   0.618  -0.233  0.00  0.00    +0.019 A 
ATOM      8  C   UNL     1       1.196  -0.139  -0.319  0.00  0.00    +0.096 A 
ATOM      9  N   UNL     1       2.424   0.397  -0.063  0.00  0.00    -0.267 N 
ATOM     10  C   UNL     1       3.519  -0.387  -0.158  0.00  0.00    +0.267 A 
ATOM     11  O   UNL     1       3.417  -1.561  -0.469  0.00  0.00    -0.267 OA
ATOM     12  C   UNL     1       1.512   3.968   0.764  0.00  0.00    +0.047 C 
ENDROOT
BRANCH   1  17
ATOM     13  N   UNL     1       9.102  -0.221  -1.827  0.00  0.00    -0.255 N 
ATOM     14  C   UNL     1       8.270  -0.800  -0.979  0.00  0.00    +0.258 C 
ATOM     15  O   UNL     1       8.590  -1.812  -0.380  0.00  0.00    -0.269 OA
ATOM     16  C   UNL     1       6.990  -0.208  -0.784  0.00  0.00    +0.077 C 
ATOM     17  C   UNL     1       5.964  -0.605   0.024  0.00  0.00    +0.037 C 
ATOM     18  S   UNL     1       7.089   1.191  -1.892  0.00  0.00    -0.061 S 
ATOM     19  C   UNL     1       8.747   0.901  -2.491  0.00  0.00    +0.121 C 
ATOM     20  S   UNL     1       9.654   1.811  -3.623  0.00  0.00    -0.027 S 
BRANCH  13  21
ATOM     21  C   UNL     1      10.427  -0.804  -2.050  0.00  0.00    +0.115 C 
BRANCH  21  23
ATOM     22  C   UNL     1      11.739  -2.419  -3.434  0.00  0.00    +0.005 C 
ATOM     23  C   UNL     1      10.355  -1.810  -3.201  0.00  0.00    +0.016 C 
ENDBRANCH  21  23
ENDBRANCH  13  21
ENDBRANCH   1  17
BRANCH   2  24
ATOM     24  N   UNL     1       6.069   2.135   0.740  0.00  0.00    -0.312 N 
ATOM     25  C   UNL     1       6.689   1.540   1.933  0.00  0.00    +0.125 C 
ATOM     26  C   UNL     1       8.068   2.165   2.153  0.00  0.00    +0.124 C 
ATOM     27  N   UNL     1       7.925   3.620   2.307  0.00  0.00    -0.325 N 
ATOM     28  C   UNL     1       7.306   4.214   1.114  0.00  0.00    +0.124 C 
ATOM     29  C   UNL     1       5.926   3.589   0.894  0.00  0.00    +0.125 C 
BRANCH  27  30
ATOM     30  C   UNL     1       9.159   4.218   2.582  0.00  0.00    +0.065 A 
ATOM     31  C   UNL     1       9.229   5.580   2.841  0.00  0.00    +0.026 A 
ATOM     32  C   UNL     1      10.450   6.169   3.112  0.00  0.00    +0.002 A 
ATOM     33  C   UNL     1      11.601   5.403   3.126  0.00  0.00    +0.003 A 
ATOM     34  C   UNL     1      11.536   4.046   2.870  0.00  0.00    +0.040 A 
ATOM     35  C   UNL     1      10.318   3.449   2.602  0.00  0.00    +0.144 A 
ATOM     36  F   UNL     1      10.253   2.122   2.357  0.00  0.00    -0.204 F 
ENDBRANCH  27  30
ENDBRANCH   2  24
TORSDOF 5
