REMARK  Name = ZINC05615917
REMARK  9 active torsions:
REMARK  status: ('A' for Active; 'I' for Inactive)
REMARK    1  A    between atoms: C_1  and  N_2
REMARK    2  A    between atoms: N_2  and  C_3
REMARK    3  A    between atoms: N_2  and  C_4
REMARK    4  A    between atoms: C_7  and  C_12
REMARK    5  A    between atoms: C_8  and  O_10
REMARK    6  A    between atoms: O_10  and  C_11
REMARK    7  A    between atoms: C_12  and  C_32
REMARK    8  A    between atoms: C_32  and  O_34
REMARK    9  A    between atoms: O_34  and  C_35
REMARK                            x       y       z     vdW  Elec       q    Type
REMARK                         _______ _______ _______ _____ _____    ______ ____
ROOT
ATOM      1  C   UNL     1      -4.551   1.295  -1.735  0.00  0.00    +0.136 C 
ATOM      2  C   UNL     1      -3.139   1.853  -2.117  0.00  0.00    +0.031 C 
ATOM      3  C   UNL     1      -2.215   1.402  -1.006  0.00  0.00    -0.026 C 
ATOM      4  C   UNL     1      -0.707   1.418  -1.183  0.00  0.00    -0.000 C 
ATOM      5  C   UNL     1      -0.072   0.926   0.130  0.00  0.00    -0.018 C 
ATOM      6  C   UNL     1      -0.746   1.457   1.405  0.00  0.00    -0.079 C 
ATOM      7  C   UNL     1      -2.417   2.470   0.123  0.00  0.00    -0.075 C 
ATOM      8  C   UNL     1      -3.114   1.905   2.298  0.00  0.00    -0.074 C 
ATOM      9  C   UNL     1      -4.512   1.712   1.602  0.00  0.00    +0.019 C 
ATOM     10  C   UNL     1      -4.439   0.464   0.743  0.00  0.00    -0.019 A 
ATOM     11  C   UNL     1      -4.435   0.301  -0.598  0.00  0.00    +0.042 A 
ATOM     12  N   UNL     1      -4.272  -1.050  -0.875  0.00  0.00    -0.357 N 
ATOM     13  H   UNL     1      -4.153  -1.435  -1.756  0.00  0.00    +0.166 HD
ATOM     14  C   UNL     1      -4.279  -1.785   0.267  0.00  0.00    +0.047 A 
ATOM     15  C   UNL     1      -4.348  -0.869   1.339  0.00  0.00    +0.003 A 
ATOM     16  C   UNL     1      -4.338  -1.298   2.669  0.00  0.00    +0.010 A 
ATOM     17  C   UNL     1      -4.298  -2.656   2.878  0.00  0.00    +0.001 A 
ATOM     18  C   UNL     1      -4.257  -3.561   1.830  0.00  0.00    +0.002 A 
ATOM     19  C   UNL     1      -4.243  -3.158   0.505  0.00  0.00    +0.026 A 
ATOM     20  N   UNL     1      -2.214   1.502   1.141  0.00  0.00    +0.380 N 
ATOM     21  H   UNL     1      -2.507   0.574   0.815  0.00  0.00    -0.082 HD
ENDROOT
BRANCH   1  25
ATOM     22  C   UNL     1      -6.168  -0.696  -5.159  0.00  0.00    +0.033 A 
ATOM     23  C   UNL     1      -4.994   0.040  -5.268  0.00  0.00    +0.023 A 
ATOM     24  C   UNL     1      -4.475   0.682  -4.160  0.00  0.00    +0.010 A 
ATOM     25  C   UNL     1      -5.121   0.594  -2.941  0.00  0.00    +0.017 A 
ATOM     26  C   UNL     1      -6.290  -0.145  -2.825  0.00  0.00    +0.126 A 
ATOM     27  C   UNL     1      -6.817  -0.785  -3.936  0.00  0.00    +0.069 A 
BRANCH  22  29
ATOM     28  C   UNL     1      -6.006  -1.249  -7.570  0.00  0.00    +0.129 C 
ATOM     29  N   UNL     1      -6.693  -1.344  -6.279  0.00  0.00    -0.336 N 
ATOM     30  C   UNL     1      -7.930  -2.120  -6.163  0.00  0.00    +0.129 C 
ENDBRANCH  22  29
BRANCH  26  31
ATOM     31  O   UNL     1      -6.921  -0.234  -1.625  0.00  0.00    -0.495 OA
ATOM     32  C   UNL     1      -8.120  -1.011  -1.579  0.00  0.00    +0.277 C 
ENDBRANCH  26  31
ENDBRANCH   1  25
BRANCH   1  33
ATOM     33  C   UNL     1      -5.498   2.419  -1.395  0.00  0.00    +0.323 C 
ATOM     34  O   UNL     1      -5.118   3.565  -1.442  0.00  0.00    -0.249 OA
BRANCH  33  35
ATOM     35  O   UNL     1      -6.764   2.146  -1.040  0.00  0.00    -0.467 OA
ATOM     36  C   UNL     1      -7.619   3.277  -0.727  0.00  0.00    +0.280 C 
ENDBRANCH  33  35
ENDBRANCH   1  33
TORSDOF 5
