REMARK  Name = ZINC59088027
REMARK  16 active torsions:
REMARK  status: ('A' for Active; 'I' for Inactive)
REMARK    1  A    between atoms: C_1  and  C_2
REMARK    2  A    between atoms: C_2  and  C_33
REMARK    3  A    between atoms: C_4  and  N_10
REMARK    4  A    between atoms: C_6  and  C_8
REMARK    5  A    between atoms: C_6  and  C_9
REMARK    6  A    between atoms: N_10  and  C_11
REMARK    7  A    between atoms: N_10  and  C_20
REMARK    8  A    between atoms: C_11  and  C_12
REMARK    9  A    between atoms: C_17  and  O_18
REMARK   10  A    between atoms: O_18  and  C_19
REMARK   11  A    between atoms: C_20  and  N_22
REMARK   12  A    between atoms: N_22  and  C_23
REMARK   13  A    between atoms: C_25  and  O_31
REMARK   14  A    between atoms: C_28  and  O_29
REMARK   15  A    between atoms: O_29  and  C_30
REMARK   16  A    between atoms: O_31  and  C_32
REMARK                            x       y       z     vdW  Elec       q    Type
REMARK                         _______ _______ _______ _____ _____    ______ ____
ROOT
ATOM      1  N   UNL     1       2.337  -1.221  -2.702  0.00  0.00    -0.305 N 
ENDROOT
BRANCH   1   5
ATOM      2  C   UNL     1      -0.255   1.043   0.046  0.00  0.00    -0.010 C 
ATOM      3  C   UNL     1      -0.392  -0.467  -0.176  0.00  0.00    -0.072 C 
ATOM      4  C   UNL     1       0.235  -0.851  -1.512  0.00  0.00    +0.009 C 
ATOM      5  C   UNL     1       1.760  -0.818  -1.414  0.00  0.00    +0.073 C 
ATOM      6  C   UNL     1       2.190  -1.813  -0.336  0.00  0.00    +0.009 C 
ATOM      7  C   UNL     1       1.578  -1.437   1.009  0.00  0.00    -0.072 C 
ATOM      8  N   UNL     1       0.144  -1.216   0.947  0.00  0.00    +0.386 N 
ATOM      9  C   UNL     1       2.305  -0.218   1.587  0.00  0.00    -0.010 C 
ATOM     10  C   UNL     1       1.831  -2.616   1.978  0.00  0.00    -0.010 C 
ATOM     11  C   UNL     1      -1.904  -0.776  -0.269  0.00  0.00    -0.010 C 
ATOM     12  H   UNL     1      -0.147  -0.749   1.812  0.00  0.00    -0.084 HD
ATOM     13  H   UNL     1      -0.322  -2.128   0.975  0.00  0.00    -0.084 HD
ENDBRANCH   1   5
BRANCH   1  14
ATOM     14  C   UNL     1       2.075  -2.444  -3.205  0.00  0.00    +0.138 C 
ATOM     15  S   UNL     1       1.021  -3.504  -2.371  0.00  0.00    -0.018 S 
BRANCH  14  16
ATOM     16  N   UNL     1       2.642  -2.831  -4.364  0.00  0.00    -0.294 N 
ATOM     17  H   UNL     1       3.352  -3.493  -4.360  0.00  0.00    +0.154 HD
BRANCH  16  18
ATOM     18  C   UNL     1       2.207  -2.279  -5.576  0.00  0.00    +0.078 A 
ATOM     19  C   UNL     1       1.271  -1.256  -5.577  0.00  0.00    +0.072 A 
ATOM     20  C   UNL     1       0.842  -0.711  -6.778  0.00  0.00    +0.122 A 
ATOM     21  C   UNL     1       1.348  -1.190  -7.977  0.00  0.00    +0.049 A 
ATOM     22  C   UNL     1       2.281  -2.210  -7.979  0.00  0.00    +0.051 A 
ATOM     23  C   UNL     1       2.717  -2.753  -6.782  0.00  0.00    +0.141 A 
BRANCH  23  24
ATOM     24  O   UNL     1       3.640  -3.753  -6.785  0.00  0.00    -0.493 OA
ATOM     25  C   UNL     1       4.120  -4.190  -8.058  0.00  0.00    +0.277 C 
ENDBRANCH  23  24
BRANCH  20  26
ATOM     26  O   UNL     1      -0.075   0.292  -6.779  0.00  0.00    -0.495 OA
ATOM     27  C   UNL     1      -0.472   0.806  -8.052  0.00  0.00    +0.277 C 
ENDBRANCH  20  26
ENDBRANCH  16  18
ENDBRANCH  14  16
ENDBRANCH   1  14
BRANCH   1  28
ATOM     28  C   UNL     1       3.197  -0.294  -3.442  0.00  0.00    +0.145 C 
BRANCH  28  29
ATOM     29  C   UNL     1       4.588  -0.328  -2.862  0.00  0.00    +0.011 A 
ATOM     30  C   UNL     1       5.035   0.717  -2.076  0.00  0.00    +0.009 A 
ATOM     31  C   UNL     1       6.311   0.686  -1.544  0.00  0.00    +0.001 A 
ATOM     32  C   UNL     1       7.142  -0.390  -1.796  0.00  0.00    +0.004 A 
ATOM     33  C   UNL     1       6.699  -1.437  -2.580  0.00  0.00    +0.046 A 
ATOM     34  C   UNL     1       5.418  -1.411  -3.111  0.00  0.00    +0.125 A 
BRANCH  34  35
ATOM     35  O   UNL     1       4.978  -2.443  -3.879  0.00  0.00    -0.495 OA
ATOM     36  C   UNL     1       5.843  -3.574  -4.003  0.00  0.00    +0.277 C 
ENDBRANCH  34  35
ENDBRANCH  28  29
ENDBRANCH   1  28
TORSDOF 9
