REMARK  Name = ZINC35886785
REMARK  9 active torsions:
REMARK  status: ('A' for Active; 'I' for Inactive)
REMARK    1  A    between atoms: C_1  and  C_2
REMARK    2  A    between atoms: C_5  and  S_9
REMARK    3  A    between atoms: S_9  and  N_12
REMARK    4  A    between atoms: N_12  and  C_13
REMARK    5  A    between atoms: N_20  and  C_27
REMARK    6  A    between atoms: C_23  and  C_26
REMARK    7  A    between atoms: C_27  and  C_28
REMARK    8  A    between atoms: C_28  and  C_29
REMARK    9  A    between atoms: C_28  and  C_30
REMARK                            x       y       z     vdW  Elec       q    Type
REMARK                         _______ _______ _______ _____ _____    ______ ____
ROOT
ATOM      1  C   UNL     1       2.404  -4.612   1.211  0.00  0.00    +0.049 A 
ATOM      2  C   UNL     1       2.183  -3.433   1.913  0.00  0.00    +0.028 A 
ATOM      3  C   UNL     1       2.930  -3.166   3.029  0.00  0.00    +0.048 A 
ATOM      4  C   UNL     1       3.913  -4.069   3.505  0.00  0.00    +0.126 A 
ATOM      5  C   UNL     1       4.087  -5.230   2.848  0.00  0.00    +0.013 A 
ATOM      6  C   UNL     1       3.350  -5.499   1.683  0.00  0.00    +0.033 A 
ATOM      7  C   UNL     1       4.964  -6.374   3.256  0.00  0.00    +0.146 C 
ATOM      8  N   UNL     1       5.672  -6.296   4.489  0.00  0.00    -0.294 N 
ATOM      9  C   UNL     1       5.702  -5.432   5.420  0.00  0.00    +0.256 C 
ATOM     10  O   UNL     1       6.616  -5.590   6.201  0.00  0.00    -0.272 OA
ATOM     11  C   UNL     1       4.833  -4.255   5.746  0.00  0.00    +0.256 C 
ATOM     12  O   UNL     1       4.547  -3.511   4.579  0.00  0.00    -0.480 OA
ATOM     13  C   UNL     1       3.522  -4.751   6.361  0.00  0.00    +0.062 C 
ENDROOT
BRANCH   1  14
ATOM     14  N   UNL     1       1.676  -4.897   0.051  0.00  0.00    -0.216 N 
ATOM     15  H   UNL     1       2.097  -4.812  -0.819  0.00  0.00    +0.174 HD
BRANCH  14  16
ATOM     16  S   UNL     1       0.096  -5.381   0.162  0.00  0.00    +0.072 S 
ATOM     17  O   UNL     1      -0.341  -5.650  -1.163  0.00  0.00    -0.150 OA
ATOM     18  O   UNL     1      -0.558  -4.441   1.004  0.00  0.00    -0.150 OA
BRANCH  16  23
ATOM     19  C   UNL     1       0.042 -10.651   3.102  0.00  0.00    +0.047 C 
ATOM     20  C   UNL     1       0.056  -9.336   2.368  0.00  0.00    -0.015 A 
ATOM     21  C   UNL     1      -0.148  -8.156   3.058  0.00  0.00    +0.008 A 
ATOM     22  C   UNL     1      -0.136  -6.949   2.385  0.00  0.00    +0.029 A 
ATOM     23  C   UNL     1       0.081  -6.920   1.019  0.00  0.00    +0.111 A 
ATOM     24  C   UNL     1       0.286  -8.098   0.327  0.00  0.00    +0.067 A 
ATOM     25  C   UNL     1       0.279  -9.308   1.002  0.00  0.00    +0.128 A 
ATOM     26  F   UNL     1       0.484 -10.460   0.326  0.00  0.00    -0.205 F 
ENDBRANCH  16  23
ENDBRANCH  14  16
ENDBRANCH   1  14
BRANCH   8  27
ATOM     27  C   UNL     1       6.544  -7.447   4.735  0.00  0.00    +0.111 C 
BRANCH  27  28
ATOM     28  C   UNL     1       7.932  -7.168   4.154  0.00  0.00    +0.000 C 
ATOM     29  C   UNL     1       8.576  -6.004   4.910  0.00  0.00    +0.009 C 
ATOM     30  C   UNL     1       8.806  -8.416   4.300  0.00  0.00    +0.009 C 
ENDBRANCH  27  28
ENDBRANCH   8  27
TORSDOF 5
