REMARK  Name = ZINC12377852
REMARK  5 active torsions:
REMARK  status: ('A' for Active; 'I' for Inactive)
REMARK    1  A    between atoms: C_1  and  C_2
REMARK    2  A    between atoms: C_5  and  C_13
REMARK    3  A    between atoms: C_6  and  C_7
REMARK    4  A    between atoms: C_6  and  C_8
REMARK    5  A    between atoms: N_11  and  O_12
REMARK                            x       y       z     vdW  Elec       q    Type
REMARK                         _______ _______ _______ _____ _____    ______ ____
ROOT
ATOM      1  C   UNL     1      -0.019   1.526   0.010  0.00  0.00    +0.018 C 
ATOM      2  C   UNL     1       0.002  -0.004   0.002  0.00  0.00    +0.016 C 
ATOM      3  C   UNL     1       0.746  -0.667  -1.197  0.00  0.00    +0.014 C 
ATOM      4  C   UNL     1       1.065  -2.101  -0.713  0.00  0.00    +0.020 C 
ATOM      5  C   UNL     1       0.474  -2.165   0.729  0.00  0.00    +0.083 C 
ATOM      6  C   UNL     1       0.727  -0.692   1.212  0.00  0.00    -0.008 C 
ATOM      7  C   UNL     1       0.034  -0.396   2.543  0.00  0.00    +0.013 C 
ATOM      8  C   UNL     1       2.218  -0.351   1.258  0.00  0.00    +0.013 C 
ATOM      9  C   UNL     1      -1.070  -2.124   0.515  0.00  0.00    +0.073 C 
ATOM     10  C   UNL     1      -1.369  -0.692   0.058  0.00  0.00    +0.065 C 
ATOM     11  N   UNL     1      -2.506  -0.182  -0.233  0.00  0.00    -0.096 NA
ENDROOT
BRANCH   5  12
ATOM     12  C   UNL     1       1.007  -3.261   1.615  0.00  0.00    +0.363 C 
ATOM     13  O   UNL     1       1.837  -4.044   1.185  0.00  0.00    -0.246 OA
ATOM     14  O   UNL     1       0.608  -3.366   2.763  0.00  0.00    -0.246 OA
ENDBRANCH   5  12
BRANCH  11  15
ATOM     15  O   UNL     1      -3.681  -0.964  -0.125  0.00  0.00    -0.409 OA
ATOM     16  H   UNL     1      -4.491  -0.493  -0.366  0.00  0.00    +0.328 HD
ENDBRANCH  11  15
TORSDOF 2
