REMARK  Name = ZINC36704495
REMARK  10 active torsions:
REMARK  status: ('A' for Active; 'I' for Inactive)
REMARK    1  A    between atoms: C_1  and  C_2
REMARK    2  A    between atoms: C_7  and  C_8
REMARK    3  A    between atoms: N_12  and  C_13
REMARK    4  A    between atoms: C_13  and  C_14
REMARK    5  A    between atoms: C_14  and  N_15
REMARK    6  A    between atoms: N_15  and  C_16
REMARK    7  A    between atoms: N_15  and  C_17
REMARK    8  A    between atoms: C_18  and  C_20
REMARK    9  A    between atoms: N_25  and  S_26
REMARK   10  A    between atoms: S_26  and  C_29
REMARK                            x       y       z     vdW  Elec       q    Type
REMARK                         _______ _______ _______ _____ _____    ______ ____
ROOT
ATOM      1  C   UNL     1       1.844   1.870   1.893  0.00  0.00    +0.044 C 
ATOM      2  C   UNL     1       1.798   0.396   1.585  0.00  0.00    -0.045 A 
ATOM      3  C   UNL     1       2.207  -0.049   0.336  0.00  0.00    +0.005 A 
ATOM      4  C   UNL     1       2.165  -1.401   0.051  0.00  0.00    +0.017 A 
ATOM      5  C   UNL     1       1.721  -2.281   1.006  0.00  0.00    +0.041 A 
ATOM      6  C   UNL     1       1.297  -1.865   2.289  0.00  0.00    +0.083 A 
ATOM      7  C   UNL     1       1.358  -0.476   2.547  0.00  0.00    -0.021 A 
ATOM      8  C   UNL     1       0.930   0.052   3.892  0.00  0.00    +0.046 C 
ATOM      9  N   UNL     1       0.888  -2.850   3.118  0.00  0.00    -0.224 NA
ATOM     10  C   UNL     1       0.882  -4.114   2.763  0.00  0.00    +0.168 A 
ATOM     11  S   UNL     1       1.502  -4.043   1.089  0.00  0.00    -0.052 S 
ATOM     12  N   UNL     1       0.494  -5.221   3.500  0.00  0.00    -0.251 N 
ATOM     13  C   UNL     1       0.049  -5.068   4.763  0.00  0.00    +0.240 C 
ATOM     14  O   UNL     1      -0.211  -6.043   5.436  0.00  0.00    -0.273 OA
ENDROOT
BRANCH  13  15
ATOM     15  C   UNL     1      -0.126  -3.686   5.338  0.00  0.00    +0.166 C 
ATOM     16  C   UNL     1      -1.442  -3.066   4.825  0.00  0.00    +0.031 C 
ATOM     17  C   UNL     1      -2.434  -3.350   5.984  0.00  0.00    +0.019 C 
ATOM     18  C   UNL     1      -1.517  -3.200   7.223  0.00  0.00    +0.110 C 
ATOM     19  N   UNL     1      -0.217  -3.763   6.804  0.00  0.00    -0.164 NA
BRANCH  19  20
ATOM     20  S   UNL     1       0.943  -4.379   7.812  0.00  0.00    +0.068 S 
ATOM     21  O   UNL     1       0.276  -4.776   9.003  0.00  0.00    -0.152 OA
ATOM     22  O   UNL     1       1.718  -5.282   7.035  0.00  0.00    -0.152 OA
BRANCH  20  23
ATOM     23  C   UNL     1       2.011  -3.049   8.253  0.00  0.00    +0.144 A 
ATOM     24  C   UNL     1       1.921  -2.194   9.301  0.00  0.00    +0.038 A 
ATOM     25  C   UNL     1       2.885  -1.214   9.451  0.00  0.00    +0.030 A 
ATOM     26  C   UNL     1       3.891  -1.137   8.544  0.00  0.00    +0.080 A 
ATOM     27  S   UNL     1       3.495  -2.482   7.439  0.00  0.00    -0.057 S 
ATOM     28 CL   UNL     1       5.222  -0.025   8.479  0.00  0.00    -0.076 Cl
ENDBRANCH  20  23
ENDBRANCH  19  20
ENDBRANCH  13  15
BRANCH  12  29
ATOM     29  C   UNL     1       0.567  -6.558   2.906  0.00  0.00    +0.097 C 
BRANCH  29  30
ATOM     30  C   UNL     1       1.949  -7.158   3.169  0.00  0.00    -0.060 C 
BRANCH  30  31
ATOM     31  N   UNL     1       1.983  -8.543   2.680  0.00  0.00    +0.377 N 
ATOM     32  C   UNL     1       1.828  -8.550   1.219  0.00  0.00    -0.097 C 
ATOM     33  C   UNL     1       3.268  -9.158   3.038  0.00  0.00    -0.097 C 
ATOM     34  H   UNL     1       1.231  -9.067   3.100  0.00  0.00    -0.083 HD
ENDBRANCH  30  31
ENDBRANCH  29  30
ENDBRANCH  12  29
TORSDOF 6
