REMARK  Name = ZINC65260092
REMARK  5 active torsions:
REMARK  status: ('A' for Active; 'I' for Inactive)
REMARK    1  A    between atoms: C_1  and  C_2
REMARK    2  A    between atoms: C_2  and  C_3
REMARK    3  A    between atoms: C_2  and  C_4
REMARK    4  A    between atoms: C_2  and  N_5
REMARK    5  A    between atoms: C_21  and  C_23
REMARK                            x       y       z     vdW  Elec       q    Type
REMARK                         _______ _______ _______ _____ _____    ______ ____
ROOT
ATOM      1  N   UNL     1       0.822  -0.267  -1.173  0.00  0.00    -0.370 N 
ATOM      2  C   UNL     1       1.945   0.323  -1.424  0.00  0.00    +0.098 C 
ATOM      3  N   UNL     1       2.463   1.290  -0.582  0.00  0.00    -0.301 N 
ATOM      4  C   UNL     1       3.116   2.387  -1.170  0.00  0.00    +0.053 A 
ATOM      5  C   UNL     1       3.434   3.495  -0.401  0.00  0.00    +0.025 A 
ATOM      6  C   UNL     1       4.084   4.572  -0.977  0.00  0.00    +0.002 A 
ATOM      7  C   UNL     1       4.417   4.546  -2.319  0.00  0.00    +0.002 A 
ATOM      8  C   UNL     1       4.099   3.446  -3.094  0.00  0.00    +0.025 A 
ATOM      9  C   UNL     1       3.445   2.364  -2.525  0.00  0.00    +0.049 A 
ATOM     10  N   UNL     1       3.107   1.257  -3.318  0.00  0.00    -0.329 N 
ATOM     11  C   UNL     1       2.765  -0.012  -2.652  0.00  0.00    +0.102 C 
ATOM     12  C   UNL     1       4.038  -0.746  -2.238  0.00  0.00    +0.036 C 
ATOM     13  C   UNL     1       4.880  -1.052  -3.479  0.00  0.00    +0.021 C 
ATOM     14  C   UNL     1       4.079  -1.952  -4.426  0.00  0.00    +0.108 C 
ATOM     15  N   UNL     1       2.793  -1.306  -4.719  0.00  0.00    -0.294 N 
ATOM     16  C   UNL     1       1.941  -0.887  -3.596  0.00  0.00    +0.141 C 
ATOM     17  C   UNL     1       2.401  -1.100  -5.992  0.00  0.00    +0.265 C 
ATOM     18  O   UNL     1       1.337  -0.560  -6.221  0.00  0.00    -0.268 OA
ATOM     19  H   UNL     1       0.433  -0.868  -1.829  0.00  0.00    +0.161 HD
ATOM     20  H   UNL     1       3.103   1.325  -4.285  0.00  0.00    +0.147 HD
ATOM     21  H   UNL     1       2.379   1.214   0.382  0.00  0.00    +0.153 HD
ENDROOT
BRANCH  17  22
ATOM     22  C   UNL     1       3.269  -1.532  -7.113  0.00  0.00    +0.126 A 
ATOM     23  C   UNL     1       3.128  -0.937  -8.364  0.00  0.00    +0.033 A 
ATOM     24  C   UNL     1       3.947  -1.353  -9.403  0.00  0.00    +0.004 A 
ATOM     25  C   UNL     1       4.878  -2.349  -9.153  0.00  0.00    +0.020 A 
ATOM     26  C   UNL     1       4.963  -2.896  -7.883  0.00  0.00    +0.111 A 
ATOM     27  N   UNL     1       4.177  -2.480  -6.914  0.00  0.00    -0.250 NA
ENDBRANCH  17  22
BRANCH   1  29
ATOM     28  C   UNL     1      -0.093   1.472   0.282  0.00  0.00    +0.033 C 
ATOM     29  C   UNL     1       0.138  -0.029   0.100  0.00  0.00    +0.031 C 
ATOM     30  C   UNL     1       1.000  -0.556   1.248  0.00  0.00    +0.033 C 
ATOM     31  C   UNL     1      -1.209  -0.756   0.099  0.00  0.00    +0.033 C 
ENDBRANCH   1  29
TORSDOF 2
