REMARK  Name = ZINC22203241
REMARK  15 active torsions:
REMARK  status: ('A' for Active; 'I' for Inactive)
REMARK    1  A    between atoms: C_1  and  C_2
REMARK    2  A    between atoms: C_2  and  C_3
REMARK    3  A    between atoms: C_2  and  N_4
REMARK    4  A    between atoms: N_4  and  C_5
REMARK    5  A    between atoms: N_4  and  C_32
REMARK    6  A    between atoms: C_5  and  C_6
REMARK    7  A    between atoms: C_6  and  N_7
REMARK    8  A    between atoms: C_17  and  S_18
REMARK    9  A    between atoms: S_18  and  C_19
REMARK   10  A    between atoms: C_19  and  C_20
REMARK   11  A    between atoms: N_22  and  C_23
REMARK   12  A    between atoms: C_28  and  C_29
REMARK   13  A    between atoms: C_29  and  C_31
REMARK   14  A    between atoms: C_32  and  C_33
REMARK   15  A    between atoms: C_32  and  C_34
REMARK                            x       y       z     vdW  Elec       q    Type
REMARK                         _______ _______ _______ _____ _____    ______ ____
ROOT
ATOM      1  N   UNL     1       0.717  -2.312  -1.352  0.00  0.00    -0.289 N 
ATOM      2  C   UNL     1       2.025  -2.047  -1.574  0.00  0.00    +0.262 A 
ATOM      3  O   UNL     1       2.886  -2.873  -1.335  0.00  0.00    -0.267 OA
ATOM      4  C   UNL     1       2.367  -0.725  -2.116  0.00  0.00    +0.065 A 
ATOM      5  C   UNL     1       3.685  -0.355  -2.380  0.00  0.00    +0.015 A 
ATOM      6  C   UNL     1       3.948   0.889  -2.883  0.00  0.00    +0.001 A 
ATOM      7  C   UNL     1       2.918   1.786  -3.134  0.00  0.00    +0.002 A 
ATOM      8  C   UNL     1       1.617   1.449  -2.885  0.00  0.00    +0.028 A 
ATOM      9  C   UNL     1       1.315   0.185  -2.370  0.00  0.00    +0.079 A 
ATOM     10  N   UNL     1       0.046  -0.187  -2.109  0.00  0.00    -0.223 NA
ATOM     11  C   UNL     1      -0.236  -1.372  -1.625  0.00  0.00    +0.173 A 
ENDROOT
BRANCH   1  12
ATOM     12  C   UNL     1       0.319  -3.615  -0.812  0.00  0.00    +0.109 C 
BRANCH  12  13
ATOM     13  C   UNL     1       0.305  -3.551   0.716  0.00  0.00    -0.056 C 
BRANCH  13  14
ATOM     14  N   UNL     1      -0.093  -4.858   1.257  0.00  0.00    +0.384 N 
ATOM     15  H   UNL     1       0.550  -5.623   0.799  0.00  0.00    -0.081 HD
BRANCH  14  17
ATOM     16  C   UNL     1       1.555  -5.305   3.012  0.00  0.00    -0.014 C 
ATOM     17  C   UNL     1       0.108  -4.909   2.711  0.00  0.00    -0.074 C 
ATOM     18  C   UNL     1      -0.181  -3.534   3.315  0.00  0.00    -0.014 C 
ENDBRANCH  14  17
BRANCH  14  19
ATOM     19  C   UNL     1      -1.486  -5.170   0.907  0.00  0.00    -0.074 C 
ATOM     20  C   UNL     1      -1.764  -6.647   1.193  0.00  0.00    -0.014 C 
ATOM     21  C   UNL     1      -2.429  -4.302   1.742  0.00  0.00    -0.014 C 
ENDBRANCH  14  19
ENDBRANCH  13  14
ENDBRANCH  12  13
ENDBRANCH   1  12
BRANCH  11  22
ATOM     22  S   UNL     1      -1.924  -1.772  -1.315  0.00  0.00    -0.078 S 
BRANCH  22  23
ATOM     23  C   UNL     1      -2.713  -0.229  -1.836  0.00  0.00    +0.173 C 
BRANCH  23  24
ATOM     24  C   UNL     1      -4.205  -0.342  -1.655  0.00  0.00    +0.228 C 
ATOM     25  O   UNL     1      -4.687  -1.364  -1.216  0.00  0.00    -0.275 OA
ATOM     26  N   UNL     1      -5.004   0.694  -1.980  0.00  0.00    -0.284 N 
ATOM     27  H   UNL     1      -4.575   1.594  -2.445  0.00  0.00    +0.155 HD
BRANCH  26  28
ATOM     28  C   UNL     1      -6.370   0.625  -1.727  0.00  0.00    +0.044 A 
ATOM     29  C   UNL     1      -7.027  -0.597  -1.769  0.00  0.00    +0.024 A 
ATOM     30  C   UNL     1      -8.382  -0.664  -1.513  0.00  0.00    +0.002 A 
ATOM     31  C   UNL     1      -9.100   0.485  -1.223  0.00  0.00    +0.001 A 
ATOM     32  C   UNL     1      -8.469   1.709  -1.181  0.00  0.00    +0.013 A 
ATOM     33  C   UNL     1      -7.095   1.794  -1.434  0.00  0.00    +0.038 A 
BRANCH  33  34
ATOM     34  C   UNL     1      -6.415   3.094  -1.392  0.00  0.00    +0.162 C 
ATOM     35  O   UNL     1      -5.240   3.173  -1.682  0.00  0.00    -0.292 OA
ATOM     36  C   UNL     1      -7.177   4.330  -0.989  0.00  0.00    +0.091 C 
ENDBRANCH  33  34
ENDBRANCH  26  28
ENDBRANCH  23  24
ENDBRANCH  22  23
ENDBRANCH  11  22
TORSDOF 10
