REMARK  Name = ZINC39324958
REMARK  9 active torsions:
REMARK  status: ('A' for Active; 'I' for Inactive)
REMARK    1  A    between atoms: C_1  and  C_2
REMARK    2  A    between atoms: C_7  and  C_14
REMARK    3  A    between atoms: C_14  and  N_15
REMARK    4  A    between atoms: N_15  and  C_16
REMARK    5  A    between atoms: N_15  and  S_26
REMARK    6  A    between atoms: C_16  and  C_17
REMARK    7  A    between atoms: S_26  and  C_29
REMARK    8  A    between atoms: C_32  and  C_35
REMARK    9  A    between atoms: C_35  and  C_37
REMARK                            x       y       z     vdW  Elec       q    Type
REMARK                         _______ _______ _______ _____ _____    ______ ____
ROOT
ATOM      1  N   UNL     1       1.322  -6.480   2.603  0.00  0.00    -0.171 NA
ENDROOT
BRANCH   1   2
ATOM      2  S   UNL     1       2.077  -5.776   3.898  0.00  0.00    +0.061 S 
ATOM      3  O   UNL     1       2.528  -6.836   4.730  0.00  0.00    -0.153 OA
ATOM      4  O   UNL     1       2.958  -4.794   3.370  0.00  0.00    -0.153 OA
BRANCH   2   5
ATOM      5  C   UNL     1       0.845  -4.909   4.811  0.00  0.00    +0.106 A 
ATOM      6  C   UNL     1       0.652  -3.555   4.594  0.00  0.00    +0.029 A 
ATOM      7  C   UNL     1      -0.309  -2.869   5.305  0.00  0.00    +0.013 A 
ATOM      8  C   UNL     1      -1.092  -3.545   6.246  0.00  0.00    +0.017 A 
ATOM      9  C   UNL     1      -0.892  -4.912   6.460  0.00  0.00    +0.013 A 
ATOM     10  C   UNL     1       0.070  -5.585   5.737  0.00  0.00    +0.029 A 
BRANCH   8  11
ATOM     11  C   UNL     1      -2.121  -2.820   7.010  0.00  0.00    +0.160 C 
ATOM     12  O   UNL     1      -2.291  -1.634   6.823  0.00  0.00    -0.292 OA
ATOM     13  C   UNL     1      -2.962  -3.551   8.024  0.00  0.00    +0.091 C 
ENDBRANCH   8  11
ENDBRANCH   2   5
ENDBRANCH   1   2
BRANCH   1  14
ATOM     14  C   UNL     1       1.331  -5.814   1.298  0.00  0.00    +0.126 C 
BRANCH  14  21
ATOM     15  C   UNL     1      -2.373   0.367  -0.772  0.00  0.00    +0.044 C 
ATOM     16  C   UNL     1      -1.760  -1.006  -0.675  0.00  0.00    -0.049 A 
ATOM     17  C   UNL     1      -1.173  -1.559  -1.813  0.00  0.00    +0.004 A 
ATOM     18  C   UNL     1      -0.604  -2.792  -1.788  0.00  0.00    +0.010 A 
ATOM     19  C   UNL     1      -0.612  -3.547  -0.535  0.00  0.00    -0.007 A 
ATOM     20  C   UNL     1      -0.052  -4.788  -0.462  0.00  0.00    -0.003 C 
ATOM     21  C   UNL     1      -0.105  -5.497   0.877  0.00  0.00    +0.114 C 
ATOM     22  C   UNL     1      -0.775  -4.771   2.022  0.00  0.00    +0.225 C 
ATOM     23  O   UNL     1      -0.845  -5.294   3.118  0.00  0.00    -0.275 OA
ATOM     24  N   UNL     1      -1.283  -3.566   1.827  0.00  0.00    -0.284 N 
ATOM     25  C   UNL     1      -1.238  -2.939   0.652  0.00  0.00    +0.041 A 
ATOM     26  C   UNL     1      -1.795  -1.653   0.519  0.00  0.00    +0.027 A 
ATOM     27  H   UNL     1      -1.708  -3.117   2.575  0.00  0.00    +0.155 HD
ENDBRANCH  14  21
ENDBRANCH   1  14
BRANCH   1  28
ATOM     28  C   UNL     1       0.645  -7.769   2.762  0.00  0.00    +0.144 C 
BRANCH  28  29
ATOM     29  C   UNL     1       1.580  -8.881   2.362  0.00  0.00    -0.028 A 
ATOM     30  C   UNL     1       1.614  -9.316   1.050  0.00  0.00    +0.009 A 
ATOM     31  C   UNL     1       2.471 -10.335   0.679  0.00  0.00    +0.050 A 
ATOM     32  C   UNL     1       3.299 -10.924   1.621  0.00  0.00    +0.166 A 
ATOM     33  C   UNL     1       3.264 -10.486   2.943  0.00  0.00    +0.167 A 
ATOM     34  C   UNL     1       2.407  -9.460   3.307  0.00  0.00    +0.054 A 
ATOM     35  O   UNL     1       4.162 -11.215   3.668  0.00  0.00    -0.453 OA
ATOM     36  C   UNL     1       4.450 -12.376   2.866  0.00  0.00    +0.466 C 
ATOM     37  O   UNL     1       4.218 -11.927   1.518  0.00  0.00    -0.453 OA
ENDBRANCH  28  29
ENDBRANCH   1  28
TORSDOF 7
