REMARK  Name = ZINC45593032
REMARK  5 active torsions:
REMARK  status: ('A' for Active; 'I' for Inactive)
REMARK    1  A    between atoms: C_4  and  N_7
REMARK    2  A    between atoms: C_10  and  C_12
REMARK    3  A    between atoms: N_14  and  N_15
REMARK    4  A    between atoms: C_16  and  C_18
REMARK    5  A    between atoms: C_25  and  C_27
REMARK                            x       y       z     vdW  Elec       q    Type
REMARK                         _______ _______ _______ _____ _____    ______ ____
ROOT
ATOM      1  N   UNL     1       8.962   0.988   0.176  0.00  0.00    -0.234 N 
ATOM      2  C   UNL     1       9.446   2.232   0.361  0.00  0.00    +0.234 C 
ATOM      3  O   UNL     1       8.685   3.154   0.566  0.00  0.00    -0.274 OA
ATOM      4  H   UNL     1       9.571   0.250   0.013  0.00  0.00    +0.173 HD
ENDROOT
BRANCH   2   5
ATOM      5  C   UNL     1      10.932   2.478   0.312  0.00  0.00    +0.094 C 
ATOM      6  C   UNL     1      11.211   3.964   0.551  0.00  0.00    +0.016 C 
ATOM      7  C   UNL     1      12.718   4.221   0.469  0.00  0.00    +0.020 C 
ATOM      8  C   UNL     1      13.430   3.413   1.559  0.00  0.00    +0.108 C 
ATOM      9  N   UNL     1      13.050   2.000   1.424  0.00  0.00    -0.297 N 
ATOM     10  C   UNL     1      11.623   1.650   1.399  0.00  0.00    +0.120 C 
ATOM     11  C   UNL     1      13.993   1.042   1.325  0.00  0.00    +0.247 C 
ATOM     12  O   UNL     1      13.668  -0.130   1.291  0.00  0.00    -0.270 OA
BRANCH  11  13
ATOM     13  C   UNL     1      15.418   1.414   1.257  0.00  0.00    +0.045 A 
ATOM     14  C   UNL     1      15.982   2.212   2.242  0.00  0.00    +0.014 A 
ATOM     15  C   UNL     1      17.324   2.566   2.183  0.00  0.00    +0.001 A 
ATOM     16  C   UNL     1      18.122   2.143   1.162  0.00  0.00    +0.008 A 
ATOM     17  C   UNL     1      17.593   1.333   0.143  0.00  0.00    -0.017 A 
ATOM     18  C   UNL     1      16.229   0.957   0.188  0.00  0.00    -0.006 A 
ATOM     19  C   UNL     1      15.703   0.145  -0.827  0.00  0.00    +0.009 A 
ATOM     20  C   UNL     1      16.511  -0.276  -1.840  0.00  0.00    +0.001 A 
ATOM     21  C   UNL     1      17.855   0.088  -1.883  0.00  0.00    +0.001 A 
ATOM     22  C   UNL     1      18.395   0.885  -0.921  0.00  0.00    +0.008 A 
ENDBRANCH  11  13
ENDBRANCH   2   5
BRANCH   1  25
ATOM     23  C   UNL     1       7.098  -0.486   0.038  0.00  0.00    +0.284 C 
ATOM     24  O   UNL     1       7.861  -1.410  -0.168  0.00  0.00    -0.267 OA
ATOM     25  N   UNL     1       7.581   0.759   0.222  0.00  0.00    -0.229 N 
ATOM     26  H   UNL     1       6.972   1.496   0.386  0.00  0.00    +0.173 HD
BRANCH  23  30
ATOM     27  N   UNL     1       3.545  -0.373   0.276  0.00  0.00    -0.235 N 
ATOM     28  C   UNL     1       3.664  -1.708   0.039  0.00  0.00    +0.166 A 
ATOM     29  C   UNL     1       4.990  -1.973  -0.088  0.00  0.00    +0.229 A 
ATOM     30  C   UNL     1       5.643  -0.727   0.086  0.00  0.00    +0.195 A 
ATOM     31  N   UNL     1       4.705   0.178   0.294  0.00  0.00    -0.158 NA
ATOM     32  O   UNL     1       5.569  -3.180  -0.331  0.00  0.00    -0.284 OA
BRANCH  27  36
ATOM     33  C   UNL     1      -0.061   1.637   0.844  0.00  0.00    +0.000 A 
ATOM     34  C   UNL     1       1.131   2.335   0.885  0.00  0.00    +0.002 A 
ATOM     35  C   UNL     1       2.328   1.672   0.697  0.00  0.00    +0.028 A 
ATOM     36  C   UNL     1       2.333   0.302   0.468  0.00  0.00    +0.065 A 
ATOM     37  C   UNL     1       1.133  -0.396   0.427  0.00  0.00    +0.028 A 
ATOM     38  C   UNL     1      -0.060   0.273   0.615  0.00  0.00    +0.002 A 
ENDBRANCH  27  36
ENDBRANCH  23  30
ENDBRANCH   1  25
TORSDOF 5
