REMARK  Name = ZINC40035021
REMARK  8 active torsions:
REMARK  status: ('A' for Active; 'I' for Inactive)
REMARK    1  A    between atoms: C_1  and  C_2
REMARK    2  A    between atoms: C_2  and  C_3
REMARK    3  A    between atoms: C_3  and  C_35
REMARK    4  A    between atoms: N_15  and  C_27
REMARK    5  A    between atoms: N_18  and  N_19
REMARK    6  A    between atoms: C_20  and  C_21
REMARK    7  A    between atoms: C_30  and  O_33
REMARK    8  A    between atoms: O_33  and  C_34
REMARK                            x       y       z     vdW  Elec       q    Type
REMARK                         _______ _______ _______ _____ _____    ______ ____
ROOT
ATOM      1  C   UNL     1      -0.831   0.050   0.574  0.00  0.00    +0.004 C 
ATOM      2  C   UNL     1      -0.418  -1.319   0.041  0.00  0.00    +0.047 C 
ATOM      3  C   UNL     1      -0.256  -2.300   1.171  0.00  0.00    -0.037 A 
ATOM      4  C   UNL     1       0.725  -3.269   1.120  0.00  0.00    +0.004 A 
ATOM      5  C   UNL     1       0.865  -4.168   2.162  0.00  0.00    +0.000 A 
ATOM      6  C   UNL     1       0.026  -4.105   3.260  0.00  0.00    +0.001 A 
ATOM      7  C   UNL     1      -0.958  -3.139   3.324  0.00  0.00    +0.010 A 
ATOM      8  C   UNL     1      -1.101  -2.231   2.279  0.00  0.00    +0.004 A 
ATOM      9  C   UNL     1      -2.141  -1.177   2.324  0.00  0.00    +0.084 A 
ATOM     10  C   UNL     1      -2.012  -0.073   1.493  0.00  0.00    +0.050 A 
ATOM     11  C   UNL     1      -3.001   0.918   1.530  0.00  0.00    +0.264 A 
ATOM     12  O   UNL     1      -2.924   1.903   0.813  0.00  0.00    -0.267 OA
ATOM     13  N   UNL     1      -4.042   0.762   2.376  0.00  0.00    -0.248 N 
ATOM     14  C   UNL     1      -4.117  -0.341   3.175  0.00  0.00    +0.223 A 
ATOM     15  N   UNL     1      -3.191  -1.277   3.145  0.00  0.00    -0.214 NA
ATOM     16  N   UNL     1      -5.181  -0.477   4.031  0.00  0.00    -0.206 N 
ATOM     17  C   UNL     1      -1.199   0.958  -0.602  0.00  0.00    +0.016 C 
ATOM     18  H   UNL     1      -5.906   0.166   4.009  0.00  0.00    +0.177 HD
ENDROOT
BRANCH  13  19
ATOM     19  C   UNL     1      -5.048   1.736   2.433  0.00  0.00    +0.053 A 
ATOM     20  C   UNL     1      -6.150   1.646   1.593  0.00  0.00    +0.030 A 
ATOM     21  C   UNL     1      -7.141   2.605   1.649  0.00  0.00    +0.047 A 
ATOM     22  C   UNL     1      -7.036   3.660   2.545  0.00  0.00    +0.120 A 
ATOM     23  C   UNL     1      -5.935   3.750   3.384  0.00  0.00    +0.047 A 
ATOM     24  C   UNL     1      -4.947   2.788   3.333  0.00  0.00    +0.030 A 
BRANCH  22  25
ATOM     25  O   UNL     1      -8.012   4.604   2.600  0.00  0.00    -0.495 OA
ATOM     26  C   UNL     1      -7.839   5.662   3.545  0.00  0.00    +0.277 C 
ENDBRANCH  22  25
ENDBRANCH  13  19
BRANCH   1  28
ATOM     27  C   UNL     1      -0.056   2.053   1.851  0.00  0.00    +0.005 C 
ATOM     28  C   UNL     1       0.342   0.668   1.339  0.00  0.00    +0.008 C 
ENDBRANCH   1  28
BRANCH  16  29
ATOM     29  N   UNL     1      -5.219  -1.546   4.936  0.00  0.00    -0.188 NA
ATOM     30  C   UNL     1      -6.225  -1.675   5.745  0.00  0.00    +0.138 C 
BRANCH  30  31
ATOM     31  C   UNL     1      -6.266  -2.800   6.697  0.00  0.00    -0.005 A 
ATOM     32  C   UNL     1      -5.220  -3.726   6.735  0.00  0.00    +0.009 A 
ATOM     33  C   UNL     1      -5.264  -4.776   7.629  0.00  0.00    +0.001 A 
ATOM     34  C   UNL     1      -6.342  -4.914   8.486  0.00  0.00    +0.000 A 
ATOM     35  C   UNL     1      -7.382  -4.001   8.454  0.00  0.00    +0.001 A 
ATOM     36  C   UNL     1      -7.347  -2.943   7.570  0.00  0.00    +0.009 A 
ENDBRANCH  30  31
ENDBRANCH  16  29
TORSDOF 5
