REMARK  Name = ZINC46842399
REMARK  8 active torsions:
REMARK  status: ('A' for Active; 'I' for Inactive)
REMARK    1  A    between atoms: C_1  and  C_2
REMARK    2  A    between atoms: C_3  and  C_16
REMARK    3  A    between atoms: N_5  and  C_7
REMARK    4  A    between atoms: C_7  and  C_8
REMARK    5  A    between atoms: N_18  and  C_19
REMARK    6  A    between atoms: C_19  and  C_20
REMARK    7  A    between atoms: C_28  and  C_35
REMARK    8  A    between atoms: C_31  and  C_34
REMARK                            x       y       z     vdW  Elec       q    Type
REMARK                         _______ _______ _______ _____ _____    ______ ____
ROOT
ATOM      1  C   UNL     1      -0.004  -0.345  -2.541  0.00  0.00    +0.249 C 
ATOM      2  O   UNL     1       1.044  -0.160  -3.131  0.00  0.00    -0.270 OA
ATOM      3  N   UNL     1      -1.177  -0.160  -3.177  0.00  0.00    -0.307 N 
ATOM      4  H   UNL     1      -2.013  -0.307  -2.707  0.00  0.00    +0.149 HD
ENDROOT
BRANCH   1   7
ATOM      5  C   UNL     1       0.001   1.579  -0.017  0.00  0.00    +0.068 C 
ATOM      6  C   UNL     1       0.013   0.072   0.002  0.00  0.00    +0.074 A 
ATOM      7  C   UNL     1       0.011  -0.772  -1.132  0.00  0.00    +0.096 A 
ATOM      8  C   UNL     1       0.025  -2.075  -0.669  0.00  0.00    +0.140 A 
ATOM      9  N   UNL     1       0.035  -2.024   0.674  0.00  0.00    -0.248 N 
ATOM     10  N   UNL     1       0.032  -0.681   1.066  0.00  0.00    -0.174 NA
ATOM     11 CL   UNL     1       0.029  -3.513  -1.643  0.00  0.00    -0.062 Cl
BRANCH   9  12
ATOM     12  C   UNL     1       0.051  -3.179   1.574  0.00  0.00    +0.181 C 
BRANCH  12  13
ATOM     13  C   UNL     1       1.477  -3.564   1.873  0.00  0.00    -0.008 A 
ATOM     14  C   UNL     1       2.098  -4.548   1.126  0.00  0.00    +0.007 A 
ATOM     15  C   UNL     1       3.406  -4.902   1.399  0.00  0.00    +0.000 A 
ATOM     16  C   UNL     1       4.094  -4.271   2.420  0.00  0.00    +0.001 A 
ATOM     17  C   UNL     1       3.474  -3.288   3.167  0.00  0.00    +0.020 A 
ATOM     18  C   UNL     1       2.167  -2.929   2.890  0.00  0.00    +0.046 A 
ATOM     19 CL   UNL     1       1.390  -1.689   3.823  0.00  0.00    -0.083 Cl
ENDBRANCH  12  13
ENDBRANCH   9  12
ENDBRANCH   1   7
BRANCH   3  20
ATOM     20  C   UNL     1      -1.192   0.266  -4.579  0.00  0.00    +0.141 C 
BRANCH  20  21
ATOM     21  C   UNL     1      -2.618   0.399  -5.049  0.00  0.00    -0.014 A 
ATOM     22  C   UNL     1      -3.276  -0.687  -5.610  0.00  0.00    +0.010 A 
ATOM     23  C   UNL     1      -4.584  -0.522  -6.028  0.00  0.00    +0.042 A 
ATOM     24  C   UNL     1      -5.192   0.719  -5.873  0.00  0.00    +0.099 A 
ATOM     25  N   UNL     1      -4.531   1.731  -5.333  0.00  0.00    -0.349 N 
ATOM     26  C   UNL     1      -3.284   1.601  -4.920  0.00  0.00    +0.089 A 
ATOM     27  N   UNL     1      -6.506   0.899  -6.290  0.00  0.00    -0.312 N 
ATOM     28  C   UNL     1      -7.226  -0.165  -7.008  0.00  0.00    +0.137 C 
ATOM     29  C   UNL     1      -7.844   0.439  -8.274  0.00  0.00    +0.133 C 
ATOM     30  O   UNL     1      -8.608   1.594  -7.920  0.00  0.00    -0.371 OA
ATOM     31  C   UNL     1      -7.838   2.650  -7.339  0.00  0.00    +0.133 C 
ATOM     32  C   UNL     1      -7.221   2.157  -6.020  0.00  0.00    +0.137 C 
ATOM     33  C   UNL     1      -8.744   3.851  -7.061  0.00  0.00    +0.039 C 
ATOM     34  C   UNL     1      -8.756  -0.594  -8.939  0.00  0.00    +0.039 C 
ATOM     35  H   UNL     1      -4.975   2.588  -5.235  0.00  0.00    +0.167 HD
ENDBRANCH  20  21
ENDBRANCH   3  20
TORSDOF 5
