REMARK  Name = ZINC65861911
REMARK  7 active torsions:
REMARK  status: ('A' for Active; 'I' for Inactive)
REMARK    1  A    between atoms: C_1  and  C_2
REMARK    2  A    between atoms: C_4  and  C_23
REMARK    3  A    between atoms: C_6  and  N_8
REMARK    4  A    between atoms: N_8  and  C_9
REMARK    5  A    between atoms: C_10  and  C_12
REMARK    6  A    between atoms: C_16  and  N_19
REMARK    7  A    between atoms: C_17  and  N_18
REMARK                            x       y       z     vdW  Elec       q    Type
REMARK                         _______ _______ _______ _____ _____    ______ ____
ROOT
ATOM      1  C   UNL     1       0.199  -2.787   4.853  0.00  0.00    +0.063 A 
ATOM      2  C   UNL     1       1.219  -3.733   4.985  0.00  0.00    +0.053 A 
ATOM      3  C   UNL     1       1.384  -4.404   6.178  0.00  0.00    +0.126 A 
ATOM      4  C   UNL     1       0.541  -4.144   7.250  0.00  0.00    +0.073 A 
ATOM      5  C   UNL     1      -0.469  -3.212   7.133  0.00  0.00    +0.150 A 
ATOM      6  C   UNL     1      -0.647  -2.523   5.941  0.00  0.00    +0.068 A 
ATOM      7  F   UNL     1       2.370  -5.319   6.305  0.00  0.00    -0.205 F 
ENDROOT
BRANCH   1  10
ATOM      8  N   UNL     1      -0.078  -2.753   2.424  0.00  0.00    -0.270 N 
ATOM      9  C   UNL     1      -0.100  -4.218   2.442  0.00  0.00    +0.138 C 
ATOM     10  C   UNL     1       0.016  -2.066   3.580  0.00  0.00    +0.253 C 
ATOM     11  O   UNL     1      -0.049  -0.852   3.572  0.00  0.00    -0.270 OA
BRANCH   8  17
ATOM     12  C   UNL     1      -0.544   1.485  -0.023  0.00  0.00    +0.044 C 
ATOM     13  C   UNL     1      -0.380  -0.013  -0.009  0.00  0.00    -0.048 A 
ATOM     14  C   UNL     1      -0.305  -0.712  -1.200  0.00  0.00    +0.006 A 
ATOM     15  C   UNL     1      -0.155  -2.086  -1.191  0.00  0.00    -0.048 A 
ATOM     16  C   UNL     1      -0.080  -2.766   0.009  0.00  0.00    +0.027 A 
ATOM     17  C   UNL     1      -0.154  -2.068   1.207  0.00  0.00    +0.037 A 
ATOM     18  C   UNL     1      -0.299  -0.686   1.194  0.00  0.00    +0.027 A 
ATOM     19  C   UNL     1      -0.075  -2.843  -2.491  0.00  0.00    +0.044 C 
ENDBRANCH   8  17
ENDBRANCH   1  10
BRANCH   6  20
ATOM     20  N   UNL     1      -1.661  -1.579   5.824  0.00  0.00    -0.356 N 
ATOM     21  H   UNL     1      -2.107  -1.450   4.972  0.00  0.00    +0.142 HD
ATOM     22  H   UNL     1      -1.923  -1.051   6.594  0.00  0.00    +0.142 HD
ENDBRANCH   6  20
BRANCH   5  23
ATOM     23  N   UNL     1      -1.363  -2.943   8.283  0.00  0.00    +0.058 N 
ATOM     24  O   UNL     1      -1.139  -3.455   9.355  0.00  0.00    -0.126 OA
ATOM     25  O   UNL     1      -2.315  -2.211   8.149  0.00  0.00    -0.126 OA
ENDBRANCH   5  23
TORSDOF 4
