REMARK  Name = ZINC32283029
REMARK  7 active torsions:
REMARK  status: ('A' for Active; 'I' for Inactive)
REMARK    1  A    between atoms: C_1  and  C_2
REMARK    2  A    between atoms: C_2  and  C_4
REMARK    3  A    between atoms: C_2  and  N_15
REMARK    4  A    between atoms: C_16  and  C_18
REMARK    5  A    between atoms: C_18  and  C_19
REMARK    6  A    between atoms: C_22  and  C_24
REMARK    7  A    between atoms: C_27  and  C_30
REMARK                            x       y       z     vdW  Elec       q    Type
REMARK                         _______ _______ _______ _____ _____    ______ ____
ROOT
ATOM      1  N   UNL     1      -0.288   1.272  -2.443  0.00  0.00    -0.308 N 
ATOM      2  C   UNL     1      -0.742   1.585  -1.213  0.00  0.00    +0.219 C 
ATOM      3  O   UNL     1      -1.736   2.268  -1.088  0.00  0.00    -0.275 OA
ATOM      4  H   UNL     1       0.614   0.653  -2.556  0.00  0.00    +0.149 HD
ENDROOT
BRANCH   1   6
ATOM      5  C   UNL     1      -2.141   0.800  -3.968  0.00  0.00    +0.033 C 
ATOM      6  C   UNL     1      -0.997   1.758  -3.630  0.00  0.00    +0.100 C 
BRANCH   6   7
ATOM      7  C   UNL     1      -0.041   1.828  -4.792  0.00  0.00    -0.024 A 
ATOM      8  C   UNL     1       0.896   0.827  -4.976  0.00  0.00    +0.009 A 
ATOM      9  C   UNL     1       1.778   0.885  -6.040  0.00  0.00    +0.050 A 
ATOM     10  C   UNL     1       1.719   1.950  -6.923  0.00  0.00    +0.162 A 
ATOM     11  C   UNL     1       0.779   2.954  -6.739  0.00  0.00    +0.162 A 
ATOM     12  C   UNL     1      -0.106   2.890  -5.676  0.00  0.00    +0.055 A 
ATOM     13  O   UNL     1       0.729   3.999  -7.615  0.00  0.00    -0.488 OA
ATOM     14  C   UNL     1       0.290   3.686  -8.938  0.00  0.00    +0.232 C 
ATOM     15  C   UNL     1       1.448   3.178  -9.784  0.00  0.00    +0.082 C 
ATOM     16  C   UNL     1       2.003   1.858  -9.272  0.00  0.00    +0.232 C 
ATOM     17  O   UNL     1       2.583   2.020  -7.976  0.00  0.00    -0.488 OA
ENDBRANCH   6   7
ENDBRANCH   1   6
BRANCH   2  18
ATOM     18  C   UNL     1      -0.013   1.086   0.008  0.00  0.00    +0.151 C 
BRANCH  18  19
ATOM     19  C   UNL     1      -0.718   1.572   1.248  0.00  0.00    +0.058 A 
ATOM     20  C   UNL     1      -1.125   0.683   2.193  0.00  0.00    +0.071 A 
ATOM     21  S   UNL     1      -1.870   1.787   3.386  0.00  0.00    -0.075 S 
ATOM     22  C   UNL     1      -1.559   3.308   2.498  0.00  0.00    +0.109 A 
ATOM     23  N   UNL     1      -0.936   2.854   1.420  0.00  0.00    -0.243 NA
BRANCH  22  24
ATOM     24  C   UNL     1      -1.900   4.698   2.870  0.00  0.00    +0.007 A 
ATOM     25  C   UNL     1      -1.557   5.754   2.025  0.00  0.00    +0.011 A 
ATOM     26  C   UNL     1      -1.882   7.048   2.375  0.00  0.00    +0.013 A 
ATOM     27  C   UNL     1      -2.538   7.301   3.567  0.00  0.00    +0.055 A 
ATOM     28  C   UNL     1      -2.876   6.259   4.412  0.00  0.00    +0.013 A 
ATOM     29  C   UNL     1      -2.561   4.960   4.071  0.00  0.00    +0.011 A 
BRANCH  27  30
ATOM     30  C   UNL     1      -2.885   8.718   3.946  0.00  0.00    +0.417 C 
ATOM     31  F   UNL     1      -1.831   9.276   4.677  0.00  0.00    -0.166 F 
ATOM     32  F   UNL     1      -3.100   9.471   2.788  0.00  0.00    -0.166 F 
ATOM     33  F   UNL     1      -4.046   8.720   4.727  0.00  0.00    -0.166 F 
ENDBRANCH  27  30
ENDBRANCH  22  24
ENDBRANCH  18  19
ENDBRANCH   2  18
TORSDOF 6
