REMARK  Name = ZINC20181222
REMARK  9 active torsions:
REMARK  status: ('A' for Active; 'I' for Inactive)
REMARK    1  A    between atoms: C_1  and  N_2
REMARK    2  A    between atoms: N_2  and  C_3
REMARK    3  A    between atoms: N_2  and  C_29
REMARK    4  A    between atoms: C_3  and  C_4
REMARK    5  A    between atoms: C_4  and  C_5
REMARK    6  A    between atoms: C_5  and  N_6
REMARK    7  A    between atoms: C_7  and  C_9
REMARK    8  A    between atoms: C_9  and  N_10
REMARK    9  A    between atoms: C_19  and  C_20
REMARK                            x       y       z     vdW  Elec       q    Type
REMARK                         _______ _______ _______ _____ _____    ______ ____
ROOT
ATOM      1  N   UNL     1      -1.342   0.443 -10.760  0.00  0.00    -0.257 N 
ATOM      2  C   UNL     1      -2.554  -0.201 -10.977  0.00  0.00    +0.051 A 
ATOM      3  C   UNL     1      -3.170  -0.838  -9.899  0.00  0.00    +0.024 A 
ATOM      4  C   UNL     1      -4.377  -1.484 -10.067  0.00  0.00    +0.002 A 
ATOM      5  C   UNL     1      -4.997  -1.505 -11.303  0.00  0.00    +0.001 A 
ATOM      6  C   UNL     1      -4.402  -0.875 -12.380  0.00  0.00    +0.017 A 
ATOM      7  C   UNL     1      -3.189  -0.226 -12.218  0.00  0.00    +0.034 A 
ATOM      8  S   UNL     1      -2.428   0.578 -13.597  0.00  0.00    -0.082 S 
ATOM      9  C   UNL     1      -1.445   1.811 -12.784  0.00  0.00    +0.076 C 
ATOM     10  C   UNL     1      -1.294   3.057 -13.294  0.00  0.00    +0.031 C 
ATOM     11  C   UNL     1      -0.800   1.399 -11.518  0.00  0.00    +0.258 C 
ATOM     12  O   UNL     1       0.234   1.936 -11.165  0.00  0.00    -0.269 OA
ENDROOT
BRANCH  10  13
ATOM     13  C   UNL     1      -1.826   3.376 -14.626  0.00  0.00    +0.011 A 
ATOM     14  C   UNL     1      -1.831   2.404 -15.633  0.00  0.00    +0.011 A 
ATOM     15  C   UNL     1      -2.336   2.710 -16.878  0.00  0.00    +0.001 A 
ATOM     16  C   UNL     1      -2.828   3.977 -17.140  0.00  0.00    +0.003 A 
ATOM     17  C   UNL     1      -2.822   4.947 -16.154  0.00  0.00    +0.039 A 
ATOM     18  C   UNL     1      -2.325   4.657 -14.898  0.00  0.00    +0.131 A 
ATOM     19  F   UNL     1      -2.319   5.605 -13.935  0.00  0.00    -0.205 F 
ENDBRANCH  10  13
BRANCH   1  20
ATOM     20  C   UNL     1      -0.578   0.025  -9.581  0.00  0.00    +0.209 C 
BRANCH  20  22
ATOM     21  N   UNL     1      -0.398   0.666  -7.199  0.00  0.00    -0.314 N 
ATOM     22  C   UNL     1      -0.975   0.872  -8.400  0.00  0.00    +0.231 C 
ATOM     23  O   UNL     1      -1.813   1.739  -8.529  0.00  0.00    -0.274 OA
ATOM     24  H   UNL     1       0.362  -0.120  -7.082  0.00  0.00    +0.149 HD
BRANCH  21  25
ATOM     25  C   UNL     1      -0.784   1.490  -6.050  0.00  0.00    +0.102 C 
BRANCH  25  26
ATOM     26  C   UNL     1       0.014   1.054  -4.820  0.00  0.00    +0.000 C 
BRANCH  26  27
ATOM     27  C   UNL     1      -0.389   1.914  -3.620  0.00  0.00    -0.077 C 
BRANCH  27  29
ATOM     28  C   UNL     1       1.808   1.782  -2.610  0.00  0.00    -0.096 C 
ATOM     29  N   UNL     1       0.377   1.496  -2.438  0.00  0.00    +0.380 N 
ATOM     30  H   UNL     1       0.262   0.407  -2.329  0.00  0.00    -0.082 HD
BRANCH  29  31
ATOM     31  C   UNL     1      -0.145   2.130  -1.221  0.00  0.00    -0.069 C 
ATOM     32  C   UNL     1       0.594   1.577  -0.001  0.00  0.00    -0.015 C 
ATOM     33  C   UNL     1       0.050   2.238   1.268  0.00  0.00    -0.002 C 
ATOM     34  C   UNL     1       0.263   3.751   1.186  0.00  0.00    -0.000 C 
ATOM     35  C   UNL     1      -0.476   4.304  -0.035  0.00  0.00    -0.002 C 
ATOM     36  C   UNL     1       0.068   3.643  -1.303  0.00  0.00    -0.015 C 
ENDBRANCH  29  31
ENDBRANCH  27  29
ENDBRANCH  26  27
ENDBRANCH  25  26
ENDBRANCH  21  25
ENDBRANCH  20  22
ENDBRANCH   1  20
TORSDOF 8
