REMARK  Name = ZINC44003981
REMARK  12 active torsions:
REMARK  status: ('A' for Active; 'I' for Inactive)
REMARK    1  A    between atoms: C_1  and  C_2
REMARK    2  A    between atoms: C_18  and  C_39
REMARK    3  A    between atoms: C_20  and  O_37
REMARK    4  A    between atoms: C_23  and  C_36
REMARK    5  A    between atoms: C_24  and  C_25
REMARK    6  A    between atoms: C_24  and  O_32
REMARK    7  A    between atoms: C_25  and  C_27
REMARK    8  A    between atoms: C_27  and  O_28
REMARK    9  A    between atoms: O_28  and  C_29
REMARK   10  A    between atoms: C_29  and  C_31
REMARK   11  A    between atoms: O_32  and  C_33
REMARK   12  A    between atoms: C_33  and  C_35
REMARK                            x       y       z     vdW  Elec       q    Type
REMARK                         _______ _______ _______ _____ _____    ______ ____
ROOT
ATOM      1  C   UNL     1       0.210   2.061   0.271  0.00  0.00    +0.012 C 
ATOM      2  C   UNL     1       0.254   0.676  -0.377  0.00  0.00    +0.038 C 
ATOM      3  C   UNL     1       1.094   0.724  -1.682  0.00  0.00    +0.012 C 
ATOM      4  C   UNL     1       2.482   0.275  -1.213  0.00  0.00    +0.006 C 
ATOM      5  C   UNL     1       3.398  -0.276  -2.290  0.00  0.00    +0.037 C 
ATOM      6  C   UNL     1       3.699   0.811  -3.323  0.00  0.00    +0.048 C 
ATOM      7  C   UNL     1       4.592   0.238  -4.429  0.00  0.00    +0.194 C 
ATOM      8  C   UNL     1       5.829  -0.352  -3.778  0.00  0.00    -0.020 C 
ATOM      9  C   UNL     1       7.024   0.010  -4.223  0.00  0.00    +0.054 C 
ATOM     10  C   UNL     1       8.246  -0.524  -3.604  0.00  0.00    +0.179 C 
ATOM     11  O   UNL     1       9.344  -0.225  -4.035  0.00  0.00    -0.288 OA
ATOM     12  C   UNL     1       8.111  -1.428  -2.449  0.00  0.00    +0.047 C 
ATOM     13  C   UNL     1       6.908  -1.782  -2.026  0.00  0.00    -0.009 C 
ATOM     14  C   UNL     1       5.635  -1.326  -2.654  0.00  0.00    +0.047 C 
ATOM     15  C   UNL     1       4.694  -0.734  -1.601  0.00  0.00    +0.153 C 
ATOM     16  C   UNL     1       4.418  -1.762  -0.508  0.00  0.00    +0.154 C 
ATOM     17  C   UNL     1       3.387  -1.247   0.508  0.00  0.00    +0.045 C 
ATOM     18  C   UNL     1       2.127  -0.889  -0.249  0.00  0.00    +0.021 C 
ATOM     19  C   UNL     1       0.963  -0.330   0.564  0.00  0.00    +0.182 C 
ATOM     20  C   UNL     1       1.667  -2.107  -1.053  0.00  0.00    +0.016 C 
ATOM     21  F   UNL     1       5.322   0.373  -1.020  0.00  0.00    -0.238 F 
ATOM     22  C   UNL     1       4.925  -2.557  -3.219  0.00  0.00    +0.023 C 
ATOM     23  F   UNL     1       3.901  -0.760  -5.124  0.00  0.00    -0.241 F 
ENDROOT
BRANCH  19  24
ATOM     24  C   UNL     1       0.017  -1.436   0.954  0.00  0.00    +0.214 C 
ATOM     25  O   UNL     1      -0.047  -2.439   0.284  0.00  0.00    -0.289 OA
BRANCH  24  26
ATOM     26  C   UNL     1      -0.848  -1.292   2.179  0.00  0.00    +0.310 C 
BRANCH  26  27
ATOM     27  O   UNL     1      -1.666  -2.454   2.325  0.00  0.00    -0.457 OA
BRANCH  27  28
ATOM     28  C   UNL     1      -2.501  -2.485   3.375  0.00  0.00    +0.304 C 
ATOM     29  O   UNL     1      -2.537  -1.554   4.145  0.00  0.00    -0.251 OA
ATOM     30  C   UNL     1      -3.394  -3.678   3.594  0.00  0.00    +0.136 C 
ENDBRANCH  27  28
ENDBRANCH  26  27
ENDBRANCH  24  26
ENDBRANCH  19  24
BRANCH  16  31
ATOM     31  O   UNL     1       5.639  -2.054   0.175  0.00  0.00    -0.389 OA
ATOM     32  H   UNL     1       5.545  -2.702   0.887  0.00  0.00    +0.210 HD
ENDBRANCH  16  31
BRANCH  19  33
ATOM     33  O   UNL     1       1.448   0.341   1.729  0.00  0.00    -0.450 OA
BRANCH  33  34
ATOM     34  C   UNL     1       1.982  -0.424   2.694  0.00  0.00    +0.305 C 
ATOM     35  O   UNL     1       1.944  -1.628   2.601  0.00  0.00    -0.251 OA
ATOM     36  C   UNL     1       2.629   0.219   3.894  0.00  0.00    +0.136 C 
ENDBRANCH  33  34
ENDBRANCH  19  33
TORSDOF 7
