REMARK  Name = ZINC40812316
REMARK  7 active torsions:
REMARK  status: ('A' for Active; 'I' for Inactive)
REMARK    1  A    between atoms: C_1  and  C_2
REMARK    2  A    between atoms: C_6  and  N_9
REMARK    3  A    between atoms: C_7  and  C_8
REMARK    4  A    between atoms: C_10  and  C_12
REMARK    5  A    between atoms: C_13  and  C_32
REMARK    6  A    between atoms: N_21  and  N_22
REMARK    7  A    between atoms: C_23  and  C_25
REMARK                            x       y       z     vdW  Elec       q    Type
REMARK                         _______ _______ _______ _____ _____    ______ ____
ROOT
ATOM      1  C   UNL     1      -0.126  -4.878   3.650  0.00  0.00    +0.193 A 
ATOM      2  C   UNL     1      -0.210  -6.237   3.779  0.00  0.00    +0.009 A 
ATOM      3  C   UNL     1      -0.281  -6.495   5.154  0.00  0.00    +0.042 A 
ATOM      4  C   UNL     1      -0.239  -5.285   5.804  0.00  0.00    +0.115 A 
ATOM      5  O   UNL     1      -0.139  -4.327   4.885  0.00  0.00    -0.454 OA
ATOM      6  C   UNL     1      -0.299  -5.157   7.305  0.00  0.00    +0.075 C 
ATOM      7  C   UNL     1      -0.910  -6.429   7.899  0.00  0.00    +0.014 C 
ATOM      8  C   UNL     1      -0.170  -7.672   7.394  0.00  0.00    +0.058 C 
ATOM      9  C   UNL     1      -0.382  -7.774   5.891  0.00  0.00    +0.070 C 
ATOM     10  N   UNL     1      -0.633  -8.901   5.298  0.00  0.00    -0.184 NA
ATOM     11  C   UNL     1      -0.224  -7.252   2.666  0.00  0.00    +0.048 C 
ENDROOT
BRANCH   1  13
ATOM     12  N   UNL     1       0.052  -2.797   2.392  0.00  0.00    -0.279 N 
ATOM     13  C   UNL     1      -0.031  -4.142   2.384  0.00  0.00    +0.284 C 
ATOM     14  O   UNL     1      -0.028  -4.746   1.328  0.00  0.00    -0.266 OA
ATOM     15  H   UNL     1       0.130  -2.321   3.233  0.00  0.00    +0.155 HD
BRANCH  12  21
ATOM     16  C   UNL     1       1.207   1.235  -0.172  0.00  0.00    +0.044 C 
ATOM     17  C   UNL     1       0.578  -0.131  -0.085  0.00  0.00    -0.046 A 
ATOM     18  C   UNL     1      -0.027  -0.686  -1.198  0.00  0.00    +0.004 A 
ATOM     19  C   UNL     1      -0.605  -1.940  -1.122  0.00  0.00    +0.002 A 
ATOM     20  C   UNL     1      -0.580  -2.642   0.067  0.00  0.00    +0.023 A 
ATOM     21  C   UNL     1       0.026  -2.088   1.187  0.00  0.00    +0.037 A 
ATOM     22  C   UNL     1       0.610  -0.831   1.106  0.00  0.00    -0.026 A 
ATOM     23  C   UNL     1       1.274  -0.228   2.317  0.00  0.00    +0.046 C 
ENDBRANCH  12  21
ENDBRANCH   1  13
BRANCH  10  24
ATOM     24  N   UNL     1      -0.718 -10.082   6.047  0.00  0.00    -0.203 N 
ATOM     25  C   UNL     1      -0.979 -11.253   5.432  0.00  0.00    +0.266 C 
ATOM     26  O   UNL     1      -1.141 -11.284   4.227  0.00  0.00    -0.268 OA
ATOM     27  H   UNL     1      -0.588 -10.058   7.008  0.00  0.00    +0.178 HD
BRANCH  25  28
ATOM     28  C   UNL     1      -1.068 -12.498   6.221  0.00  0.00    +0.073 A 
ATOM     29  C   UNL     1      -0.887 -12.466   7.605  0.00  0.00    +0.016 A 
ATOM     30  C   UNL     1      -0.972 -13.632   8.336  0.00  0.00    +0.001 A 
ATOM     31  C   UNL     1      -1.235 -14.834   7.702  0.00  0.00    +0.003 A 
ATOM     32  C   UNL     1      -1.415 -14.876   6.332  0.00  0.00    +0.039 A 
ATOM     33  C   UNL     1      -1.339 -13.714   5.586  0.00  0.00    +0.136 A 
ATOM     34  F   UNL     1      -1.520 -13.755   4.248  0.00  0.00    -0.205 F 
ENDBRANCH  25  28
ENDBRANCH  10  24
TORSDOF 4
