REMARK  Name = ZINC32640318
REMARK  8 active torsions:
REMARK  status: ('A' for Active; 'I' for Inactive)
REMARK    1  A    between atoms: C_1  and  C_2
REMARK    2  A    between atoms: C_5  and  N_8
REMARK    3  A    between atoms: C_19  and  S_20
REMARK    4  A    between atoms: S_20  and  C_21
REMARK    5  A    between atoms: C_21  and  C_22
REMARK    6  A    between atoms: N_24  and  C_25
REMARK    7  A    between atoms: C_29  and  C_32
REMARK    8  A    between atoms: C_30  and  C_31
REMARK                            x       y       z     vdW  Elec       q    Type
REMARK                         _______ _______ _______ _____ _____    ______ ____
ROOT
ATOM      1  N   UNL     1       2.009   3.348  -0.599  0.00  0.00    -0.273 N 
ATOM      2  C   UNL     1       1.471   2.111  -0.045  0.00  0.00    +0.128 C 
ATOM      3  C   UNL     1      -0.039   1.859  -0.042  0.00  0.00    +0.191 C 
ATOM      4  S   UNL     1      -0.018   0.004  -0.062  0.00  0.00    -0.027 S 
ATOM      5  O   UNL     1      -0.016  -0.474   1.276  0.00  0.00    -0.174 OA
ATOM      6  O   UNL     1      -1.005  -0.462  -0.972  0.00  0.00    -0.174 OA
ATOM      7  C   UNL     1       1.660  -0.259  -0.802  0.00  0.00    +0.194 C 
ATOM      8  C   UNL     1       2.033   1.159  -1.153  0.00  0.00    +0.151 C 
ATOM      9  N   UNL     1       3.358   1.682  -1.298  0.00  0.00    -0.256 NA
ATOM     10  C   UNL     1       3.295   2.968  -1.012  0.00  0.00    +0.157 C 
ENDROOT
BRANCH   1  15
ATOM     11  C   UNL     1      -0.477   8.432  -0.987  0.00  0.00    +0.044 C 
ATOM     12  C   UNL     1       0.184   7.082  -0.884  0.00  0.00    -0.050 A 
ATOM     13  C   UNL     1       1.472   6.906  -1.354  0.00  0.00    +0.005 A 
ATOM     14  C   UNL     1       2.080   5.670  -1.260  0.00  0.00    +0.024 A 
ATOM     15  C   UNL     1       1.396   4.602  -0.695  0.00  0.00    +0.036 A 
ATOM     16  C   UNL     1       0.100   4.780  -0.229  0.00  0.00    +0.024 A 
ATOM     17  C   UNL     1      -0.500   6.020  -0.320  0.00  0.00    +0.005 A 
ENDBRANCH   1  15
BRANCH  10  18
ATOM     18  S   UNL     1       4.665   4.072  -1.112  0.00  0.00    -0.081 S 
BRANCH  18  19
ATOM     19  C   UNL     1       5.945   2.932  -1.694  0.00  0.00    +0.173 C 
BRANCH  19  20
ATOM     20  C   UNL     1       7.245   3.677  -1.858  0.00  0.00    +0.227 C 
ATOM     21  O   UNL     1       7.300   4.862  -1.605  0.00  0.00    -0.275 OA
ATOM     22  N   UNL     1       8.345   3.027  -2.284  0.00  0.00    -0.285 N 
ATOM     23  H   UNL     1       8.320   1.937  -2.426  0.00  0.00    +0.155 HD
BRANCH  22  24
ATOM     24  C   UNL     1       9.521   3.739  -2.546  0.00  0.00    +0.037 A 
ATOM     25  C   UNL     1       9.459   5.087  -2.875  0.00  0.00    +0.023 A 
ATOM     26  C   UNL     1      10.622   5.789  -3.128  0.00  0.00    +0.002 A 
ATOM     27  C   UNL     1      11.846   5.147  -3.065  0.00  0.00    +0.004 A 
ATOM     28  C   UNL     1      11.910   3.804  -2.744  0.00  0.00    -0.046 A 
ATOM     29  C   UNL     1      10.751   3.098  -2.484  0.00  0.00    -0.026 A 
ATOM     30  C   UNL     1      10.822   1.634  -2.134  0.00  0.00    +0.046 C 
ATOM     31  C   UNL     1      13.245   3.109  -2.676  0.00  0.00    +0.044 C 
ENDBRANCH  22  24
ENDBRANCH  19  20
ENDBRANCH  18  19
ENDBRANCH  10  18
TORSDOF 5
