REMARK  Name = ZINC28724662
REMARK  10 active torsions:
REMARK  status: ('A' for Active; 'I' for Inactive)
REMARK    1  A    between atoms: C_1  and  C_2
REMARK    2  A    between atoms: C_2  and  C_4
REMARK    3  A    between atoms: C_2  and  N_15
REMARK    4  A    between atoms: C_7  and  N_10
REMARK    5  A    between atoms: N_15  and  C_16
REMARK    6  A    between atoms: N_15  and  C_17
REMARK    7  A    between atoms: C_17  and  C_18
REMARK    8  A    between atoms: C_20  and  C_23
REMARK    9  A    between atoms: C_28  and  O_29
REMARK   10  A    between atoms: O_29  and  C_30
REMARK                            x       y       z     vdW  Elec       q    Type
REMARK                         _______ _______ _______ _____ _____    ______ ____
ROOT
ATOM      1  N   UNL     1      -1.398  -0.520   0.082  0.00  0.00    -0.290 NA
ATOM      2  C   UNL     1      -2.129   0.139   1.173  0.00  0.00    +0.106 C 
ENDROOT
BRANCH   1   4
ATOM      3  C   UNL     1       0.696   0.192   1.133  0.00  0.00    +0.029 C 
ATOM      4  C   UNL     1      -0.111   0.142  -0.166  0.00  0.00    +0.084 C 
BRANCH   4   5
ATOM      5  C   UNL     1       0.659  -0.629  -1.207  0.00  0.00    -0.030 A 
ATOM      6  C   UNL     1       1.280   0.043  -2.244  0.00  0.00    +0.007 A 
ATOM      7  C   UNL     1       1.987  -0.661  -3.199  0.00  0.00    +0.028 A 
ATOM      8  C   UNL     1       2.073  -2.045  -3.117  0.00  0.00    +0.067 A 
ATOM      9  C   UNL     1       1.448  -2.716  -2.075  0.00  0.00    +0.028 A 
ATOM     10  C   UNL     1       0.747  -2.006  -1.120  0.00  0.00    +0.007 A 
BRANCH   8  11
ATOM     11  N   UNL     1       2.789  -2.762  -4.086  0.00  0.00    -0.220 N 
ATOM     12  C   UNL     1       2.956  -4.098  -4.143  0.00  0.00    +0.225 A 
ATOM     13  N   UNL     1       3.685  -4.371  -5.194  0.00  0.00    -0.222 NA
ATOM     14  C   UNL     1       4.002  -3.243  -5.830  0.00  0.00    +0.245 A 
ATOM     15  N   UNL     1       3.471  -2.232  -5.193  0.00  0.00    -0.154 NA
ENDBRANCH   8  11
ENDBRANCH   4   5
ENDBRANCH   1   4
BRANCH   1  16
ATOM     16  C   UNL     1      -2.210  -0.569  -1.141  0.00  0.00    +0.183 C 
BRANCH  16  17
ATOM     17  C   UNL     1      -3.403  -1.461  -0.918  0.00  0.00    +0.242 A 
ATOM     18  N   UNL     1      -4.566  -1.080  -0.472  0.00  0.00    -0.190 NA
ATOM     19  C   UNL     1      -5.398  -2.134  -0.395  0.00  0.00    +0.206 A 
ATOM     20  N   UNL     1      -4.757  -3.204  -0.798  0.00  0.00    -0.056 NA
ATOM     21  O   UNL     1      -3.449  -2.780  -1.150  0.00  0.00    -0.336 OA
BRANCH  19  22
ATOM     22  C   UNL     1      -6.806  -2.093   0.069  0.00  0.00    +0.064 A 
ATOM     23  C   UNL     1      -7.377  -0.886   0.468  0.00  0.00    +0.015 A 
ATOM     24  C   UNL     1      -8.687  -0.852   0.898  0.00  0.00    +0.001 A 
ATOM     25  C   UNL     1      -9.439  -2.014   0.935  0.00  0.00    +0.004 A 
ATOM     26  C   UNL     1      -8.883  -3.216   0.542  0.00  0.00    +0.046 A 
ATOM     27  C   UNL     1      -7.570  -3.264   0.102  0.00  0.00    +0.131 A 
BRANCH  27  28
ATOM     28  O   UNL     1      -7.024  -4.444  -0.290  0.00  0.00    -0.494 OA
ATOM     29  C   UNL     1      -7.864  -5.598  -0.230  0.00  0.00    +0.277 C 
ENDBRANCH  27  28
ENDBRANCH  19  22
ENDBRANCH  16  17
ENDBRANCH   1  16
TORSDOF 7
