REMARK  Name = ZINC12244633
REMARK  10 active torsions:
REMARK  status: ('A' for Active; 'I' for Inactive)
REMARK    1  A    between atoms: C_1  and  C_2
REMARK    2  A    between atoms: C_2  and  C_3
REMARK    3  A    between atoms: N_5  and  C_6
REMARK    4  A    between atoms: C_6  and  C_8
REMARK    5  A    between atoms: C_6  and  C_29
REMARK    6  A    between atoms: C_17  and  C_18
REMARK    7  A    between atoms: C_17  and  N_62
REMARK    8  A    between atoms: C_23  and  C_24
REMARK    9  A    between atoms: C_29  and  C_30
REMARK   10  A    between atoms: C_29  and  C_31
REMARK                            x       y       z     vdW  Elec       q    Type
REMARK                         _______ _______ _______ _____ _____    ______ ____
ROOT
ATOM      1  C   UNL     1       1.529   5.580  -2.755  0.00  0.00    +0.154 A 
ATOM      2  N   UNL     1       2.553   5.473  -3.560  0.00  0.00    -0.132 NA
ATOM      3  N   UNL     1       3.256   4.444  -3.235  0.00  0.00    -0.134 NA
ATOM      4  C   UNL     1       2.716   3.855  -2.209  0.00  0.00    +0.132 A 
ATOM      5  N   UNL     1       1.596   4.549  -1.887  0.00  0.00    -0.315 N 
ATOM      6  C   UNL     1       0.653   4.213  -0.820  0.00  0.00    +0.106 C 
ATOM      7  C   UNL     1       1.391   3.450   0.283  0.00  0.00    -0.056 C 
ATOM      8  C   UNL     1       2.032   1.679  -1.258  0.00  0.00    -0.071 C 
ATOM      9  C   UNL     1       3.210   2.632  -1.480  0.00  0.00    +0.058 C 
ATOM     10  N   UNL     1       1.372   1.991   0.029  0.00  0.00    +0.384 N 
ATOM     11  H   UNL     1       1.881   1.517   0.784  0.00  0.00    -0.081 HD
ENDROOT
BRANCH   1  12
ATOM     12  C   UNL     1       0.471   6.653  -2.791  0.00  0.00    +0.144 C 
BRANCH  12  15
ATOM     13  C   UNL     1      -1.186   7.368  -4.428  0.00  0.00    +0.213 C 
ATOM     14  O   UNL     1      -1.932   7.639  -3.511  0.00  0.00    -0.276 OA
ATOM     15  N   UNL     1       0.040   6.868  -4.174  0.00  0.00    -0.305 N 
ATOM     16  H   UNL     1       0.636   6.651  -4.907  0.00  0.00    +0.149 HD
BRANCH  13  18
ATOM     17  C   UNL     1      -3.050   8.159  -5.859  0.00  0.00    +0.013 C 
ATOM     18  C   UNL     1      -1.630   7.589  -5.851  0.00  0.00    +0.092 C 
ENDBRANCH  13  18
ENDBRANCH  12  15
BRANCH  12  19
ATOM     19  C   UNL     1       1.046   7.955  -2.227  0.00  0.00    +0.011 C 
ATOM     20  C   UNL     1      -0.029   9.044  -2.263  0.00  0.00    +0.009 C 
ATOM     21  C   UNL     1       1.496   7.730  -0.782  0.00  0.00    +0.009 C 
ENDBRANCH  12  19
ENDBRANCH   1  12
BRANCH  10  22
ATOM     22  C   UNL     1      -0.018   1.503   0.010  0.00  0.00    -0.042 C 
BRANCH  22  23
ATOM     23  C   UNL     1       0.002  -0.004   0.002  0.00  0.00    -0.053 A 
ATOM     24  C   UNL     1      -0.213  -0.692  -1.175  0.00  0.00    +0.002 A 
ATOM     25  C   UNL     1      -0.190  -2.075  -1.185  0.00  0.00    +0.000 A 
ATOM     26  C   UNL     1       0.038  -2.778  -0.015  0.00  0.00    +0.001 A 
ATOM     27  C   UNL     1       0.249  -2.103   1.169  0.00  0.00    +0.012 A 
ATOM     28  C   UNL     1       0.233  -0.707   1.186  0.00  0.00    +0.019 A 
BRANCH  28  29
ATOM     29  C   UNL     1       0.458   0.023   2.450  0.00  0.00    +0.135 A 
ATOM     30  C   UNL     1      -0.176  -0.209   3.630  0.00  0.00    +0.050 A 
ATOM     31  C   UNL     1       0.345   0.712   4.560  0.00  0.00    +0.042 A 
ATOM     32  C   UNL     1       1.263   1.454   3.909  0.00  0.00    +0.196 A 
ATOM     33  O   UNL     1       1.333   1.031   2.636  0.00  0.00    -0.463 OA
ENDBRANCH  28  29
ENDBRANCH  22  23
ENDBRANCH  10  22
TORSDOF 7
