REMARK  Name = ZINC35933330
REMARK  5 active torsions:
REMARK  status: ('A' for Active; 'I' for Inactive)
REMARK    1  A    between atoms: C_1  and  C_2
REMARK    2  A    between atoms: C_7  and  C_8
REMARK    3  A    between atoms: N_17  and  C_18
REMARK    4  A    between atoms: C_18  and  C_19
REMARK    5  A    between atoms: C_28  and  C_30
REMARK                            x       y       z     vdW  Elec       q    Type
REMARK                         _______ _______ _______ _____ _____    ______ ____
ROOT
ATOM      1  C   UNL     1       2.617  -1.368   4.208  0.00  0.00    +0.199 C 
ATOM      2  O   UNL     1       1.877  -1.761   5.085  0.00  0.00    -0.278 OA
ATOM      3  N   UNL     1       3.853  -1.890   4.086  0.00  0.00    -0.301 N 
ATOM      4  C   UNL     1       4.319  -2.906   4.963  0.00  0.00    +0.109 C 
ATOM      5  C   UNL     1       4.905  -2.381   6.315  0.00  0.00    +0.038 C 
ATOM      6  C   UNL     1       5.689  -1.065   6.001  0.00  0.00    +0.109 C 
ATOM      7  N   UNL     1       6.407  -1.082   4.775  0.00  0.00    -0.296 N 
ATOM      8  C   UNL     1       5.738  -0.478   3.593  0.00  0.00    +0.127 C 
ATOM      9  C   UNL     1       4.786  -1.434   3.024  0.00  0.00    +0.126 C 
ATOM     10  C   UNL     1       7.639  -1.620   4.687  0.00  0.00    +0.247 C 
ATOM     11  O   UNL     1       8.192  -2.040   5.686  0.00  0.00    -0.270 OA
ENDROOT
BRANCH  10  12
ATOM     12  C   UNL     1       8.317  -1.701   3.380  0.00  0.00    +0.045 A 
ATOM     13  C   UNL     1       8.533  -0.554   2.630  0.00  0.00    +0.014 A 
ATOM     14  C   UNL     1       9.171  -0.624   1.398  0.00  0.00    +0.001 A 
ATOM     15  C   UNL     1       9.602  -1.814   0.893  0.00  0.00    +0.008 A 
ATOM     16  C   UNL     1       9.405  -3.001   1.619  0.00  0.00    -0.017 A 
ATOM     17  C   UNL     1       8.762  -2.950   2.879  0.00  0.00    -0.006 A 
ATOM     18  C   UNL     1       8.570  -4.134   3.604  0.00  0.00    +0.009 A 
ATOM     19  C   UNL     1       9.009  -5.317   3.092  0.00  0.00    +0.001 A 
ATOM     20  C   UNL     1       9.648  -5.369   1.855  0.00  0.00    +0.001 A 
ATOM     21  C   UNL     1       9.840  -4.241   1.118  0.00  0.00    +0.008 A 
ENDBRANCH  10  12
BRANCH   1  22
ATOM     22  C   UNL     1       2.154  -0.296   3.255  0.00  0.00    +0.020 C 
BRANCH  22  31
ATOM     23  C   UNL     1       0.293   1.058   2.595  0.00  0.00    -0.005 C 
ATOM     24  C   UNL     1      -1.091   1.546   3.011  0.00  0.00    -0.047 A 
ATOM     25  C   UNL     1      -2.003   2.136   2.142  0.00  0.00    +0.010 A 
ATOM     26  C   UNL     1      -3.213   2.537   2.599  0.00  0.00    +0.045 A 
ATOM     27  S   UNL     1      -3.120   2.090   4.327  0.00  0.00    -0.101 S 
ATOM     28  C   UNL     1      -1.487   1.409   4.308  0.00  0.00    -0.010 A 
ATOM     29  C   UNL     1      -0.688   0.815   5.422  0.00  0.00    +0.024 C 
ATOM     30  C   UNL     1       0.768   0.702   4.938  0.00  0.00    -0.072 C 
ATOM     31  N   UNL     1       0.782   0.103   3.596  0.00  0.00    +0.393 N 
ATOM     32  H   UNL     1       0.189  -0.714   3.593  0.00  0.00    -0.080 HD
BRANCH  23  39
ATOM     33  C   UNL     1       0.439   2.629   0.174  0.00  0.00    +0.044 C 
ATOM     34  C   UNL     1       0.277   1.133   0.093  0.00  0.00    -0.049 A 
ATOM     35  C   UNL     1       0.204   0.511  -1.140  0.00  0.00    +0.003 A 
ATOM     36  C   UNL     1       0.055  -0.861  -1.214  0.00  0.00    +0.000 A 
ATOM     37  C   UNL     1      -0.020  -1.612  -0.056  0.00  0.00    +0.000 A 
ATOM     38  C   UNL     1       0.054  -0.991   1.176  0.00  0.00    +0.002 A 
ATOM     39  C   UNL     1       0.207   0.381   1.251  0.00  0.00    -0.054 A 
ENDBRANCH  23  39
ENDBRANCH  22  31
ENDBRANCH   1  22
TORSDOF 4
