REMARK  Name = ZINC40850033
REMARK  12 active torsions:
REMARK  status: ('A' for Active; 'I' for Inactive)
REMARK    1  A    between atoms: C_1  and  C_2
REMARK    2  A    between atoms: C_4  and  C_36
REMARK    3  A    between atoms: C_9  and  C_33
REMARK    4  A    between atoms: C_11  and  S_13
REMARK    5  A    between atoms: S_13  and  C_14
REMARK    6  A    between atoms: C_14  and  C_15
REMARK    7  A    between atoms: C_15  and  C_16
REMARK    8  A    between atoms: N_18  and  C_19
REMARK    9  A    between atoms: C_24  and  C_25
REMARK   10  A    between atoms: C_25  and  C_27
REMARK   11  A    between atoms: C_33  and  C_34
REMARK   12  A    between atoms: C_33  and  C_35
REMARK                            x       y       z     vdW  Elec       q    Type
REMARK                         _______ _______ _______ _____ _____    ______ ____
ROOT
ATOM      1  C   UNL     1       0.025  -8.154  -1.642  0.00  0.00    +0.107 C 
ENDROOT
BRANCH   1   2
ATOM      2  C   UNL     1       0.060  -7.853  -3.118  0.00  0.00    +0.218 C 
ATOM      3  O   UNL     1       0.051  -6.702  -3.503  0.00  0.00    -0.275 OA
ATOM      4  N   UNL     1       0.100  -8.861  -4.011  0.00  0.00    -0.285 N 
ATOM      5  H   UNL     1       0.194  -9.777  -3.705  0.00  0.00    +0.155 HD
BRANCH   4   6
ATOM      6  C   UNL     1       0.009  -8.589  -5.374  0.00  0.00    +0.044 A 
ATOM      7  C   UNL     1      -0.617  -7.430  -5.813  0.00  0.00    +0.024 A 
ATOM      8  C   UNL     1      -0.707  -7.162  -7.164  0.00  0.00    +0.002 A 
ATOM      9  C   UNL     1      -0.176  -8.044  -8.092  0.00  0.00    +0.001 A 
ATOM     10  C   UNL     1       0.448  -9.200  -7.675  0.00  0.00    +0.013 A 
ATOM     11  C   UNL     1       0.553  -9.482  -6.310  0.00  0.00    +0.043 A 
BRANCH  11  12
ATOM     12  C   UNL     1       1.226 -10.713  -5.857  0.00  0.00    +0.195 C 
ATOM     13  O   UNL     1       0.696 -11.794  -6.029  0.00  0.00    -0.287 OA
BRANCH  12  14
ATOM     14  C   UNL     1       2.544 -10.634  -5.193  0.00  0.00    +0.022 A 
ATOM     15  C   UNL     1       3.201  -9.407  -5.083  0.00  0.00    +0.012 A 
ATOM     16  C   UNL     1       4.431  -9.340  -4.462  0.00  0.00    +0.001 A 
ATOM     17  C   UNL     1       5.013 -10.485  -3.949  0.00  0.00    +0.000 A 
ATOM     18  C   UNL     1       4.368 -11.705  -4.055  0.00  0.00    +0.001 A 
ATOM     19  C   UNL     1       3.135 -11.785  -4.667  0.00  0.00    +0.012 A 
ENDBRANCH  12  14
ENDBRANCH  11  12
ENDBRANCH   4   6
ENDBRANCH   1   2
BRANCH   1  20
ATOM     20  C   UNL     1      -0.017  -6.843  -0.855  0.00  0.00    +0.085 C 
BRANCH  20  21
ATOM     21  S   UNL     1      -0.059  -7.206   0.922  0.00  0.00    -0.105 S 
BRANCH  21  32
ATOM     22  C   UNL     1      -0.172   1.435   0.115  0.00  0.00    +0.067 C 
ATOM     23  C   UNL     1      -0.150  -0.072   0.091  0.00  0.00    +0.061 A 
ATOM     24  C   UNL     1      -0.113  -0.873  -1.056  0.00  0.00    +0.048 A 
ATOM     25  C   UNL     1      -0.104  -2.167  -0.662  0.00  0.00    +0.045 A 
ATOM     26  N   UNL     1      -0.135  -2.183   0.696  0.00  0.00    -0.202 N 
ATOM     27  N   UNL     1      -0.158  -0.854   1.139  0.00  0.00    -0.169 NA
ATOM     28  C   UNL     1      -0.138  -3.319   1.505  0.00  0.00    +0.253 A 
ATOM     29  N   UNL     1      -0.175  -3.174   2.820  0.00  0.00    -0.215 NA
ATOM     30  C   UNL     1      -0.180  -4.229   3.622  0.00  0.00    +0.050 A 
ATOM     31  C   UNL     1      -0.145  -5.496   3.072  0.00  0.00    +0.058 A 
ATOM     32  C   UNL     1      -0.105  -5.617   1.681  0.00  0.00    +0.103 A 
ATOM     33  N   UNL     1      -0.108  -4.513   0.938  0.00  0.00    -0.204 NA
ATOM     34  C   UNL     1      -0.067  -3.372  -1.566  0.00  0.00    +0.066 C 
BRANCH  30  35
ATOM     35  C   UNL     1      -0.222  -4.049   5.117  0.00  0.00    +0.032 C 
ATOM     36  C   UNL     1      -1.671  -4.135   5.601  0.00  0.00    +0.014 C 
ATOM     37  C   UNL     1       0.605  -5.147   5.787  0.00  0.00    +0.014 C 
ENDBRANCH  30  35
ENDBRANCH  21  32
ENDBRANCH  20  21
ENDBRANCH   1  20
TORSDOF 8
