REMARK  Name = ZINC19529636
REMARK  10 active torsions:
REMARK  status: ('A' for Active; 'I' for Inactive)
REMARK    1  A    between atoms: C_1  and  C_2
REMARK    2  A    between atoms: C_2  and  O_3
REMARK    3  A    between atoms: O_3  and  C_4
REMARK    4  A    between atoms: C_4  and  C_6
REMARK    5  A    between atoms: C_6  and  C_32
REMARK    6  A    between atoms: C_11  and  C_14
REMARK    7  A    between atoms: C_17  and  O_20
REMARK    8  A    between atoms: N_23  and  C_26
REMARK    9  A    between atoms: C_32  and  C_33
REMARK   10  A    between atoms: C_36  and  O_39
REMARK                            x       y       z     vdW  Elec       q    Type
REMARK                         _______ _______ _______ _____ _____    ______ ____
ROOT
ATOM      1  C   UNL     1       1.468  -2.353  -2.550  0.00  0.00    +0.133 C 
ATOM      2  C   UNL     1       2.072  -3.707  -2.190  0.00  0.00    +0.121 C 
ATOM      3  C   UNL     1       3.056  -3.814  -3.416  0.00  0.00    +0.111 C 
ATOM      4  C   UNL     1       3.722  -2.506  -3.436  0.00  0.00    +0.098 C 
ATOM      5  N   UNL     1       2.664  -1.545  -2.956  0.00  0.00    -0.293 NA
ATOM      6  C   UNL     1       3.379  -5.221  -3.419  0.00  0.00    +0.232 C 
ATOM      7  O   UNL     1       4.429  -5.737  -3.736  0.00  0.00    -0.274 OA
ATOM      8  N   UNL     1       2.237  -5.848  -2.984  0.00  0.00    -0.210 N 
ATOM      9  C   UNL     1       1.320  -4.978  -2.432  0.00  0.00    +0.232 C 
ATOM     10  O   UNL     1       0.150  -5.188  -2.194  0.00  0.00    -0.274 OA
ATOM     11  H   UNL     1       2.422  -0.876  -3.671  0.00  0.00    +0.124 HD
ENDROOT
BRANCH   4  12
ATOM     12  C   UNL     1       4.918  -2.512  -2.519  0.00  0.00    -0.029 A 
ATOM     13  C   UNL     1       4.743  -2.357  -1.156  0.00  0.00    +0.009 A 
ATOM     14  C   UNL     1       5.837  -2.361  -0.313  0.00  0.00    +0.046 A 
ATOM     15  C   UNL     1       7.113  -2.521  -0.835  0.00  0.00    +0.117 A 
ATOM     16  C   UNL     1       7.286  -2.677  -2.202  0.00  0.00    +0.046 A 
ATOM     17  C   UNL     1       6.188  -2.677  -3.041  0.00  0.00    +0.009 A 
BRANCH  15  18
ATOM     18  O   UNL     1       8.191  -2.525  -0.008  0.00  0.00    -0.507 OA
ATOM     19  H   UNL     1       8.430  -3.402   0.323  0.00  0.00    +0.292 HD
ENDBRANCH  15  18
ENDBRANCH   4  12
BRANCH   8  20
ATOM     20  C   UNL     1       2.027  -7.231  -3.079  0.00  0.00    +0.044 A 
ATOM     21  C   UNL     1       0.840  -7.786  -2.620  0.00  0.00    +0.024 A 
ATOM     22  C   UNL     1       0.635  -9.149  -2.715  0.00  0.00    +0.002 A 
ATOM     23  C   UNL     1       1.611  -9.959  -3.265  0.00  0.00    +0.000 A 
ATOM     24  C   UNL     1       2.794  -9.409  -3.723  0.00  0.00    +0.002 A 
ATOM     25  C   UNL     1       3.002  -8.046  -3.636  0.00  0.00    +0.024 A 
ENDBRANCH   8  20
BRANCH   1  26
ATOM     26  C   UNL     1       0.790  -1.738  -1.353  0.00  0.00    +0.329 C 
ATOM     27  O   UNL     1       0.302  -2.446  -0.504  0.00  0.00    -0.249 OA
BRANCH  26  28
ATOM     28  O   UNL     1       0.729  -0.403  -1.230  0.00  0.00    -0.464 OA
BRANCH  28  30
ATOM     29  C   UNL     1       0.101   1.641  -0.104  0.00  0.00    +0.048 C 
ATOM     30  C   UNL     1       0.071   0.112  -0.070  0.00  0.00    +0.229 C 
ENDBRANCH  28  30
ENDBRANCH  26  28
ENDBRANCH   1  26
BRANCH   1  31
ATOM     31  C   UNL     1       0.486  -2.488  -3.715  0.00  0.00    +0.069 C 
BRANCH  31  32
ATOM     32  C   UNL     1      -0.079  -1.133  -4.056  0.00  0.00    -0.045 A 
ATOM     33  C   UNL     1      -1.230  -0.688  -3.432  0.00  0.00    +0.007 A 
ATOM     34  C   UNL     1      -1.749   0.553  -3.743  0.00  0.00    +0.045 A 
ATOM     35  C   UNL     1      -1.115   1.354  -4.682  0.00  0.00    +0.117 A 
ATOM     36  C   UNL     1       0.040   0.906  -5.306  0.00  0.00    +0.045 A 
ATOM     37  C   UNL     1       0.559  -0.335  -4.987  0.00  0.00    +0.007 A 
BRANCH  35  38
ATOM     38  O   UNL     1      -1.624   2.576  -4.990  0.00  0.00    -0.507 OA
ATOM     39  H   UNL     1      -1.284   3.294  -4.438  0.00  0.00    +0.292 HD
ENDBRANCH  35  38
ENDBRANCH  31  32
ENDBRANCH   1  31
TORSDOF 9
