REMARK  Name = ZINC38583290
REMARK  7 active torsions:
REMARK  status: ('A' for Active; 'I' for Inactive)
REMARK    1  A    between atoms: C_1  and  O_2
REMARK    2  A    between atoms: O_2  and  C_3
REMARK    3  A    between atoms: C_3  and  C_5
REMARK    4  A    between atoms: C_7  and  N_16
REMARK    5  A    between atoms: C_17  and  C_19
REMARK    6  A    between atoms: C_19  and  N_20
REMARK    7  A    between atoms: N_23  and  C_26
REMARK                            x       y       z     vdW  Elec       q    Type
REMARK                         _______ _______ _______ _____ _____    ______ ____
ROOT
ATOM      1  N   UNL     1       2.148  -2.444  -1.168  0.00  0.00    -0.285 N 
ATOM      2  C   UNL     1       3.186  -3.068  -1.758  0.00  0.00    +0.231 C 
ATOM      3  O   UNL     1       3.853  -3.861  -1.129  0.00  0.00    -0.274 OA
ATOM      4  H   UNL     1       1.563  -1.874  -1.692  0.00  0.00    +0.155 HD
ENDROOT
BRANCH   1   6
ATOM      5  C   UNL     1       2.643  -3.553   1.103  0.00  0.00    +0.234 C 
ATOM      6  C   UNL     1       1.919  -2.614   0.164  0.00  0.00    +0.053 C 
ATOM      7  C   UNL     1       0.976  -1.961   0.940  0.00  0.00    +0.019 A 
ATOM      8  C   UNL     1       0.006  -0.975   0.636  0.00  0.00    +0.026 A 
ATOM      9  C   UNL     1      -0.804  -0.504   1.617  0.00  0.00    +0.019 A 
ATOM     10  C   UNL     1      -0.708  -0.969   2.932  0.00  0.00    +0.017 A 
ATOM     11  C   UNL     1       0.196  -1.911   3.294  0.00  0.00    +0.027 A 
ATOM     12  C   UNL     1       1.079  -2.452   2.324  0.00  0.00    +0.045 A 
ATOM     13  N   UNL     1       2.030  -3.361   2.421  0.00  0.00    -0.367 N 
ATOM     14 BR   UNL     1      -2.094   0.813   1.195  0.00  0.00    -0.050 Br
ATOM     15  H   UNL     1       2.284  -3.828   3.233  0.00  0.00    +0.161 HD
BRANCH   5  16
ATOM     16  C   UNL     1       2.463  -4.979   0.650  0.00  0.00    +0.335 C 
ATOM     17  O   UNL     1       1.405  -5.538   0.818  0.00  0.00    -0.248 OA
BRANCH  16  19
ATOM     18  C   UNL     1       3.238  -6.978  -0.344  0.00  0.00    +0.280 C 
ATOM     19  O   UNL     1       3.479  -5.629   0.060  0.00  0.00    -0.466 OA
ENDBRANCH  16  19
ENDBRANCH   5  16
ENDBRANCH   1   6
BRANCH   2  20
ATOM     20  C   UNL     1       3.518  -2.780  -3.200  0.00  0.00    +0.180 C 
BRANCH  20  21
ATOM     21  N   UNL     1       4.683  -3.580  -3.603  0.00  0.00    -0.291 NA
ATOM     22  C   UNL     1       5.886  -3.165  -2.870  0.00  0.00    +0.104 C 
ATOM     23  C   UNL     1       7.030  -4.135  -3.183  0.00  0.00    +0.120 C 
ATOM     24  N   UNL     1       7.189  -4.216  -4.643  0.00  0.00    -0.327 N 
ATOM     25  C   UNL     1       5.996  -4.492  -5.458  0.00  0.00    +0.120 C 
ATOM     26  C   UNL     1       4.892  -3.508  -5.056  0.00  0.00    +0.104 C 
BRANCH  24  27
ATOM     27  C   UNL     1       8.439  -4.034  -5.240  0.00  0.00    +0.030 A 
ATOM     28  C   UNL     1       9.531  -3.661  -4.468  0.00  0.00    +0.024 A 
ATOM     29  C   UNL     1      10.766  -3.483  -5.060  0.00  0.00    +0.022 A 
ATOM     30  C   UNL     1      10.915  -3.674  -6.423  0.00  0.00    +0.041 A 
ATOM     31  C   UNL     1       9.828  -4.045  -7.195  0.00  0.00    +0.022 A 
ATOM     32  C   UNL     1       8.592  -4.231  -6.606  0.00  0.00    +0.024 A 
ATOM     33 CL   UNL     1      12.468  -3.447  -7.165  0.00  0.00    -0.084 Cl
ENDBRANCH  24  27
ENDBRANCH  20  21
ENDBRANCH   2  20
TORSDOF 6
