REMARK  Name = ZINC15979940
REMARK  15 active torsions:
REMARK  status: ('A' for Active; 'I' for Inactive)
REMARK    1  A    between atoms: C_1  and  C_2
REMARK    2  A    between atoms: C_2  and  C_3
REMARK    3  A    between atoms: C_2  and  N_66
REMARK    4  A    between atoms: C_4  and  C_5
REMARK    5  A    between atoms: C_4  and  N_66
REMARK    6  A    between atoms: C_5  and  N_6
REMARK    7  A    between atoms: C_10  and  C_11
REMARK    8  A    between atoms: C_14  and  O_17
REMARK    9  A    between atoms: O_17  and  C_18
REMARK   10  A    between atoms: N_23  and  C_24
REMARK   11  A    between atoms: C_27  and  O_30
REMARK   12  A    between atoms: O_30  and  C_31
REMARK   13  A    between atoms: C_32  and  C_33
REMARK   14  A    between atoms: C_32  and  C_34
REMARK   15  A    between atoms: C_32  and  N_66
REMARK                            x       y       z     vdW  Elec       q    Type
REMARK                         _______ _______ _______ _____ _____    ______ ____
ROOT
ATOM      1  N   UNL     1       2.792   2.469  -1.077  0.00  0.00    -0.248 N 
ATOM      2  C   UNL     1       1.602   2.184  -0.575  0.00  0.00    +0.259 C 
ATOM      3  O   UNL     1       1.453   1.300   0.248  0.00  0.00    -0.269 OA
ATOM      4  C   UNL     1       0.462   2.987  -1.058  0.00  0.00    +0.078 C 
ATOM      5  C   UNL     1      -0.850   2.913  -0.717  0.00  0.00    +0.028 C 
ATOM      6  S   UNL     1       1.274   4.086  -2.210  0.00  0.00    -0.049 S 
ATOM      7  C   UNL     1       2.939   3.474  -2.008  0.00  0.00    +0.168 C 
ATOM      8  N   UNL     1       4.037   3.882  -2.603  0.00  0.00    -0.225 NA
ENDROOT
BRANCH   5   9
ATOM      9  C   UNL     1      -1.793   3.930  -1.200  0.00  0.00    -0.024 A 
ATOM     10  C   UNL     1      -1.317   5.153  -1.690  0.00  0.00    +0.011 A 
ATOM     11  C   UNL     1      -2.205   6.101  -2.146  0.00  0.00    +0.046 A 
ATOM     12  C   UNL     1      -3.572   5.850  -2.111  0.00  0.00    +0.127 A 
ATOM     13  C   UNL     1      -4.050   4.640  -1.620  0.00  0.00    +0.046 A 
ATOM     14  C   UNL     1      -3.171   3.683  -1.167  0.00  0.00    +0.011 A 
BRANCH  12  15
ATOM     15  O   UNL     1      -4.444   6.791  -2.557  0.00  0.00    -0.434 OA
BRANCH  15  16
ATOM     16  C   UNL     1      -3.886   8.011  -3.047  0.00  0.00    +0.541 C 
ATOM     17  F   UNL     1      -3.153   8.631  -2.030  0.00  0.00    -0.166 F 
ATOM     18  F   UNL     1      -3.043   7.737  -4.130  0.00  0.00    -0.166 F 
ENDBRANCH  15  16
ENDBRANCH  12  15
ENDBRANCH   5   9
BRANCH   8  19
ATOM     19  C   UNL     1       3.983   4.907  -3.510  0.00  0.00    +0.067 A 
ATOM     20  C   UNL     1       2.985   4.927  -4.486  0.00  0.00    +0.031 A 
ATOM     21  C   UNL     1       2.933   5.963  -5.395  0.00  0.00    +0.048 A 
ATOM     22  C   UNL     1       3.877   6.979  -5.347  0.00  0.00    +0.120 A 
ATOM     23  C   UNL     1       4.874   6.961  -4.381  0.00  0.00    +0.048 A 
ATOM     24  C   UNL     1       4.931   5.932  -3.465  0.00  0.00    +0.031 A 
BRANCH  22  25
ATOM     25  O   UNL     1       3.825   7.996  -6.248  0.00  0.00    -0.495 OA
ATOM     26  C   UNL     1       2.773   7.953  -7.215  0.00  0.00    +0.277 C 
ENDBRANCH  22  25
ENDBRANCH   8  19
BRANCH   1  27
ATOM     27  C   UNL     1       3.964   1.708  -0.639  0.00  0.00    +0.097 C 
BRANCH  27  28
ATOM     28  C   UNL     1       4.152   0.491  -1.548  0.00  0.00    -0.058 C 
BRANCH  28  29
ATOM     29  N   UNL     1       5.422  -0.174  -1.192  0.00  0.00    +0.384 N 
ATOM     30  H   UNL     1       6.136   0.542  -1.016  0.00  0.00    -0.081 HD
BRANCH  29  32
ATOM     31  C   UNL     1       5.535  -0.102   1.246  0.00  0.00    -0.014 C 
ATOM     32  C   UNL     1       5.243  -0.984   0.031  0.00  0.00    -0.074 C 
ATOM     33  C   UNL     1       3.809  -1.511   0.116  0.00  0.00    -0.014 C 
ENDBRANCH  29  32
BRANCH  29  34
ATOM     34  C   UNL     1       5.870  -1.036  -2.307  0.00  0.00    -0.074 C 
ATOM     35  C   UNL     1       7.312  -1.475  -2.041  0.00  0.00    -0.014 C 
ATOM     36  C   UNL     1       4.974  -2.270  -2.424  0.00  0.00    -0.014 C 
ENDBRANCH  29  34
ENDBRANCH  28  29
ENDBRANCH  27  28
ENDBRANCH   1  27
TORSDOF 10
