REMARK  Name = ZINC38743026
REMARK  6 active torsions:
REMARK  status: ('A' for Active; 'I' for Inactive)
REMARK    1  A    between atoms: C_1  and  C_2
REMARK    2  A    between atoms: C_2  and  C_3
REMARK    3  A    between atoms: C_3  and  C_5
REMARK    4  A    between atoms: C_3  and  C_11
REMARK    5  A    between atoms: C_15  and  C_20
REMARK    6  A    between atoms: C_23  and  C_26
REMARK                            x       y       z     vdW  Elec       q    Type
REMARK                         _______ _______ _______ _____ _____    ______ ____
ROOT
ATOM      1  C   UNL     1       2.230  -0.292  -1.091  0.00  0.00    +0.160 C 
ATOM      2  N   UNL     1       2.955  -0.650  -2.339  0.00  0.00    -0.267 N 
ATOM      3  N   UNL     1       3.052   0.354  -3.257  0.00  0.00    -0.222 N 
ATOM      4  C   UNL     1       3.282   0.468  -4.616  0.00  0.00    +0.181 A 
ATOM      5  N   UNL     1       3.303   1.734  -4.915  0.00  0.00    -0.129 NA
ATOM      6  N   UNL     1       3.089   2.439  -3.860  0.00  0.00    -0.121 NA
ATOM      7  C   UNL     1       2.914   1.654  -2.844  0.00  0.00    +0.210 A 
ATOM      8  S   UNL     1       2.544   1.527  -1.105  0.00  0.00    -0.060 S 
ATOM      9  H   UNL     1       3.863  -1.038  -2.131  0.00  0.00    +0.168 HD
ENDROOT
BRANCH   4  10
ATOM     10  C   UNL     1       3.475  -0.673  -5.582  0.00  0.00    +0.222 C 
ATOM     11  C   UNL     1       4.928  -0.770  -6.013  0.00  0.00    +0.039 C 
ATOM     12  C   UNL     1       4.883  -0.571  -7.345  0.00  0.00    +0.091 C 
ATOM     13  N   UNL     1       3.602  -0.370  -7.751  0.00  0.00    -0.153 NA
ATOM     14  N   UNL     1       2.763  -0.412  -6.844  0.00  0.00    -0.171 NA
BRANCH  12  15
ATOM     15  C   UNL     1       6.065  -0.570  -8.241  0.00  0.00    +0.002 A 
ATOM     16  C   UNL     1       7.338  -0.791  -7.719  0.00  0.00    +0.010 A 
ATOM     17  C   UNL     1       8.435  -0.789  -8.557  0.00  0.00    +0.001 A 
ATOM     18  C   UNL     1       8.272  -0.568  -9.913  0.00  0.00    +0.000 A 
ATOM     19  C   UNL     1       7.011  -0.348 -10.436  0.00  0.00    +0.001 A 
ATOM     20  C   UNL     1       5.906  -0.353  -9.608  0.00  0.00    +0.010 A 
ENDBRANCH  12  15
ENDBRANCH   4  10
BRANCH   1  21
ATOM     21  C   UNL     1       0.737  -0.607  -1.197  0.00  0.00    +0.051 C 
BRANCH  21  22
ATOM     22  C   UNL     1       0.553  -2.072  -1.497  0.00  0.00    -0.042 A 
ATOM     23  C   UNL     1       1.028  -3.023  -0.614  0.00  0.00    +0.004 A 
ATOM     24  C   UNL     1       0.859  -4.367  -0.889  0.00  0.00    +0.000 A 
ATOM     25  C   UNL     1       0.214  -4.760  -2.047  0.00  0.00    +0.000 A 
ATOM     26  C   UNL     1      -0.262  -3.808  -2.930  0.00  0.00    +0.000 A 
ATOM     27  C   UNL     1      -0.097  -2.464  -2.653  0.00  0.00    +0.004 A 
ENDBRANCH  21  22
BRANCH  21  29
ATOM     28  C   UNL     1      -1.463  -0.450  -0.023  0.00  0.00    +0.004 C 
ATOM     29  C   UNL     1       0.049  -0.267   0.126  0.00  0.00    +0.007 C 
ENDBRANCH  21  29
ENDBRANCH   1  21
TORSDOF 5
