REMARK  Name = ZINC35938493
REMARK  6 active torsions:
REMARK  status: ('A' for Active; 'I' for Inactive)
REMARK    1  A    between atoms: C_1  and  C_2
REMARK    2  A    between atoms: C_5  and  C_8
REMARK    3  A    between atoms: N_17  and  C_18
REMARK    4  A    between atoms: C_18  and  C_19
REMARK    5  A    between atoms: C_25  and  C_28
REMARK    6  A    between atoms: C_29  and  C_31
REMARK                            x       y       z     vdW  Elec       q    Type
REMARK                         _______ _______ _______ _____ _____    ______ ____
ROOT
ATOM      1  C   UNL     1      -3.061  -4.766   1.947  0.00  0.00    +0.199 C 
ATOM      2  O   UNL     1      -2.580  -5.318   2.914  0.00  0.00    -0.278 OA
ATOM      3  N   UNL     1      -4.386  -4.523   1.900  0.00  0.00    -0.300 N 
ATOM      4  C   UNL     1      -4.984  -3.861   0.732  0.00  0.00    +0.126 C 
ATOM      5  C   UNL     1      -5.754  -2.623   1.211  0.00  0.00    +0.127 C 
ATOM      6  N   UNL     1      -6.626  -3.016   2.327  0.00  0.00    -0.292 N 
ATOM      7  C   UNL     1      -6.028  -3.678   3.494  0.00  0.00    +0.091 C 
ATOM      8  C   UNL     1      -5.259  -4.920   3.013  0.00  0.00    +0.130 C 
ATOM      9  C   UNL     1      -5.071  -2.713   4.197  0.00  0.00    +0.029 C 
ATOM     10  C   UNL     1      -7.951  -2.772   2.280  0.00  0.00    +0.248 C 
ATOM     11  O   UNL     1      -8.678  -3.192   3.160  0.00  0.00    -0.270 OA
ENDROOT
BRANCH  10  12
ATOM     12  C   UNL     1      -8.519  -1.997   1.162  0.00  0.00    +0.045 A 
ATOM     13  C   UNL     1      -8.018  -0.741   0.853  0.00  0.00    +0.014 A 
ATOM     14  C   UNL     1      -8.549  -0.005  -0.199  0.00  0.00    +0.001 A 
ATOM     15  C   UNL     1      -9.572  -0.494  -0.956  0.00  0.00    +0.008 A 
ATOM     16  C   UNL     1     -10.111  -1.762  -0.679  0.00  0.00    -0.017 A 
ATOM     17  C   UNL     1      -9.579  -2.530   0.386  0.00  0.00    -0.006 A 
ATOM     18  C   UNL     1     -10.113  -3.796   0.657  0.00  0.00    +0.009 A 
ATOM     19  C   UNL     1     -11.132  -4.277  -0.109  0.00  0.00    +0.001 A 
ATOM     20  C   UNL     1     -11.653  -3.527  -1.161  0.00  0.00    +0.001 A 
ATOM     21  C   UNL     1     -11.166  -2.287  -1.445  0.00  0.00    +0.008 A 
ENDBRANCH  10  12
BRANCH   1  22
ATOM     22  C   UNL     1      -2.178  -4.353   0.798  0.00  0.00    +0.020 C 
BRANCH  22  31
ATOM     23  C   UNL     1       0.083  -4.216   0.024  0.00  0.00    -0.005 C 
ATOM     24  C   UNL     1       1.509  -4.696   0.280  0.00  0.00    -0.047 A 
ATOM     25  C   UNL     1       2.641  -4.109  -0.278  0.00  0.00    +0.010 A 
ATOM     26  C   UNL     1       3.869  -4.601   0.007  0.00  0.00    +0.045 A 
ATOM     27  S   UNL     1       3.479  -5.954   1.108  0.00  0.00    -0.101 S 
ATOM     28  C   UNL     1       1.719  -5.763   1.102  0.00  0.00    -0.010 A 
ATOM     29  C   UNL     1       0.671  -6.558   1.810  0.00  0.00    +0.024 C 
ATOM     30  C   UNL     1      -0.688  -6.190   1.189  0.00  0.00    -0.072 C 
ATOM     31  N   UNL     1      -0.788  -4.727   1.090  0.00  0.00    +0.393 N 
ATOM     32  H   UNL     1      -0.512  -4.316   1.969  0.00  0.00    -0.080 HD
BRANCH  23  37
ATOM     33  C   UNL     1      -0.048   1.561   0.018  0.00  0.00    +0.044 C 
ATOM     34  C   UNL     1      -0.013   0.054   0.019  0.00  0.00    -0.050 A 
ATOM     35  C   UNL     1       0.002  -0.638  -1.177  0.00  0.00    +0.003 A 
ATOM     36  C   UNL     1       0.033  -2.020  -1.175  0.00  0.00    +0.002 A 
ATOM     37  C   UNL     1       0.050  -2.710   0.022  0.00  0.00    -0.057 A 
ATOM     38  C   UNL     1       0.035  -2.017   1.219  0.00  0.00    +0.002 A 
ATOM     39  C   UNL     1       0.008  -0.635   1.217  0.00  0.00    +0.003 A 
ENDBRANCH  23  37
ENDBRANCH  22  31
ENDBRANCH   1  22
TORSDOF 4
