REMARK  Name = ZINC05595902
REMARK  4 active torsions:
REMARK  status: ('A' for Active; 'I' for Inactive)
REMARK    1  A    between atoms: C_4  and  C_8
REMARK    2  A    between atoms: C_11  and  C_22
REMARK    3  A    between atoms: C_17  and  N_21
REMARK    4  A    between atoms: C_18  and  C_19
REMARK                            x       y       z     vdW  Elec       q    Type
REMARK                         _______ _______ _______ _____ _____    ______ ____
ROOT
ATOM      1  C   UNL     1       3.713  -0.710  -0.038  0.00  0.00    +0.106 C 
ATOM      2  C   UNL     1       3.816  -1.595   1.178  0.00  0.00    +0.054 A 
ATOM      3  C   UNL     1       4.019  -1.241   2.515  0.00  0.00    +0.100 A 
ATOM      4  N   UNL     1       4.038  -2.350   3.230  0.00  0.00    -0.171 NA
ATOM      5  N   UNL     1       3.847  -3.438   2.363  0.00  0.00    -0.246 N 
ATOM      6  H   UNL     1       3.815  -4.373   2.620  0.00  0.00    +0.192 HD
ATOM      7  C   UNL     1       3.713  -2.954   1.111  0.00  0.00    +0.223 A 
ATOM      8  O   UNL     1       3.514  -3.617  -0.056  0.00  0.00    -0.423 OA
ATOM      9  C   UNL     1       3.690  -2.930  -1.203  0.00  0.00    +0.200 C 
ATOM     10  C   UNL     1       3.792  -1.583  -1.265  0.00  0.00    +0.098 C 
ENDROOT
BRANCH   3  11
ATOM     11  C   UNL     1       4.185   0.138   3.038  0.00  0.00    +0.006 A 
ATOM     12  C   UNL     1       4.845   1.099   2.275  0.00  0.00    +0.014 A 
ATOM     13  C   UNL     1       4.999   2.381   2.761  0.00  0.00    +0.050 A 
ATOM     14  C   UNL     1       4.498   2.717   4.010  0.00  0.00    +0.166 A 
ATOM     15  C   UNL     1       3.838   1.760   4.778  0.00  0.00    +0.167 A 
ATOM     16  C   UNL     1       3.677   0.475   4.290  0.00  0.00    +0.059 A 
ATOM     17  O   UNL     1       3.446   2.336   5.951  0.00  0.00    -0.453 OA
ATOM     18  C   UNL     1       4.228   3.539   6.069  0.00  0.00    +0.466 C 
ATOM     19  O   UNL     1       4.519   3.893   4.704  0.00  0.00    -0.453 OA
ENDBRANCH   3  11
BRANCH   1  23
ATOM     20  C   UNL     1      -0.017   1.378   0.010  0.00  0.00    +0.004 A 
ATOM     21  C   UNL     1       1.170   2.086   0.002  0.00  0.00    +0.039 A 
ATOM     22  C   UNL     1       2.379   1.411  -0.013  0.00  0.00    +0.129 A 
ATOM     23  C   UNL     1       2.398   0.026  -0.021  0.00  0.00    +0.019 A 
ATOM     24  C   UNL     1       1.209  -0.680  -0.013  0.00  0.00    +0.048 A 
ATOM     25  C   UNL     1       0.002  -0.004   0.002  0.00  0.00    +0.020 A 
ATOM     26 CL   UNL     1       1.232  -2.416  -0.022  0.00  0.00    -0.083 Cl
ATOM     27  F   UNL     1       3.539   2.103  -0.021  0.00  0.00    -0.205 F 
ENDBRANCH   1  23
BRANCH   9  28
ATOM     28  N   UNL     1       3.770  -3.639  -2.375  0.00  0.00    -0.328 N 
ATOM     29  H   UNL     1       3.701  -4.606  -2.363  0.00  0.00    +0.145 HD
ATOM     30  H   UNL     1       3.896  -3.172  -3.216  0.00  0.00    +0.145 HD
ENDBRANCH   9  28
BRANCH  10  31
ATOM     31  C   UNL     1       3.981  -0.962  -2.542  0.00  0.00    +0.101 C 
ATOM     32  N   UNL     1       4.131  -0.470  -3.555  0.00  0.00    -0.191 NA
ENDBRANCH  10  31
TORSDOF 4
