REMARK  Name = ZINC15000395
REMARK  9 active torsions:
REMARK  status: ('A' for Active; 'I' for Inactive)
REMARK    1  A    between atoms: C_3  and  C_12
REMARK    2  A    between atoms: C_5  and  O_7
REMARK    3  A    between atoms: O_7  and  C_8
REMARK    4  A    between atoms: C_12  and  N_13
REMARK    5  A    between atoms: C_14  and  C_20
REMARK    6  A    between atoms: C_20  and  C_21
REMARK    7  A    between atoms: C_21  and  N_53
REMARK    8  A    between atoms: C_22  and  C_23
REMARK    9  A    between atoms: C_22  and  N_53
REMARK                            x       y       z     vdW  Elec       q    Type
REMARK                         _______ _______ _______ _____ _____    ______ ____
ROOT
ATOM      1  N   UNL     1      -6.115   2.544  -1.842  0.00  0.00    -0.294 N 
ATOM      2  C   UNL     1      -5.222   3.284  -2.742  0.00  0.00    +0.075 C 
ATOM      3  C   UNL     1      -5.864   3.173  -4.143  0.00  0.00    +0.031 C 
ATOM      4  C   UNL     1      -6.678   1.865  -4.014  0.00  0.00    +0.098 C 
ATOM      5  C   UNL     1      -6.940   1.736  -2.530  0.00  0.00    +0.216 C 
ATOM      6  O   UNL     1      -7.772   1.008  -2.032  0.00  0.00    -0.276 OA
ENDROOT
BRANCH   1   7
ATOM      7  C   UNL     1      -6.108   2.671  -0.383  0.00  0.00    +0.143 C 
BRANCH   7  10
ATOM      8  C   UNL     1      -9.403   4.163   0.702  0.00  0.00    +0.004 A 
ATOM      9  C   UNL     1      -8.441   3.248   0.313  0.00  0.00    +0.005 A 
ATOM     10  C   UNL     1      -7.154   3.670   0.040  0.00  0.00    -0.027 A 
ATOM     11  C   UNL     1      -6.823   5.007   0.158  0.00  0.00    +0.051 A 
ATOM     12  C   UNL     1      -7.788   5.927   0.543  0.00  0.00    +0.130 A 
ATOM     13  C   UNL     1      -9.079   5.501   0.818  0.00  0.00    +0.046 A 
BRANCH  12  14
ATOM     14  O   UNL     1      -7.466   7.242   0.657  0.00  0.00    -0.406 OA
BRANCH  14  15
ATOM     15  C   UNL     1      -8.508   8.132   1.063  0.00  0.00    +0.575 C 
ATOM     16  F   UNL     1      -8.981   7.750   2.324  0.00  0.00    -0.133 F 
ATOM     17  F   UNL     1      -8.008   9.437   1.129  0.00  0.00    -0.133 F 
ATOM     18  F   UNL     1      -9.555   8.079   0.137  0.00  0.00    -0.133 F 
ENDBRANCH  14  15
ENDBRANCH  12  14
ENDBRANCH   7  10
ENDBRANCH   1   7
BRANCH   2  19
ATOM     19  C   UNL     1      -3.830   2.649  -2.746  0.00  0.00    +0.003 C 
BRANCH  19  20
ATOM     20  C   UNL     1      -3.154   2.894  -1.395  0.00  0.00    -0.080 C 
BRANCH  20  21
ATOM     21  N   UNL     1      -1.764   2.401  -1.454  0.00  0.00    +0.382 N 
ATOM     22  H   UNL     1      -1.258   2.902  -2.193  0.00  0.00    -0.085 HD
ATOM     23  H   UNL     1      -1.770   1.396  -1.664  0.00  0.00    -0.085 HD
BRANCH  21  24
ATOM     24  C   UNL     1      -1.087   2.625  -0.163  0.00  0.00    -0.045 C 
BRANCH  24  25
ATOM     25  C   UNL     1       0.328   2.112  -0.252  0.00  0.00    -0.042 A 
ATOM     26  C   UNL     1       1.378   3.004  -0.371  0.00  0.00    +0.052 A 
ATOM     27  C   UNL     1       2.678   2.535  -0.459  0.00  0.00    +0.167 A 
ATOM     28  C   UNL     1       2.925   1.165  -0.428  0.00  0.00    +0.168 A 
ATOM     29  C   UNL     1       1.869   0.277  -0.309  0.00  0.00    +0.069 A 
ATOM     30  C   UNL     1       0.572   0.751  -0.221  0.00  0.00    +0.046 A 
ATOM     31 CL   UNL     1      -0.750  -0.363  -0.072  0.00  0.00    -0.083 Cl
ATOM     32  O   UNL     1       4.271   0.962  -0.531  0.00  0.00    -0.453 OA
ATOM     33  C   UNL     1       4.877   2.229  -0.214  0.00  0.00    +0.466 C 
ATOM     34  O   UNL     1       3.870   3.191  -0.581  0.00  0.00    -0.453 OA
ENDBRANCH  24  25
ENDBRANCH  21  24
ENDBRANCH  20  21
ENDBRANCH  19  20
ENDBRANCH   2  19
TORSDOF 9
