REMARK  Name = ZINC12571742
REMARK  14 active torsions:
REMARK  status: ('A' for Active; 'I' for Inactive)
REMARK    1  A    between atoms: C_1  and  C_2
REMARK    2  A    between atoms: C_2  and  N_3
REMARK    3  A    between atoms: N_3  and  C_4
REMARK    4  A    between atoms: N_3  and  S_6
REMARK    5  A    between atoms: C_4  and  C_5
REMARK    6  A    between atoms: S_6  and  C_9
REMARK    7  A    between atoms: C_10  and  C_28
REMARK    8  A    between atoms: C_17  and  C_18
REMARK    9  A    between atoms: C_17  and  N_62
REMARK   10  A    between atoms: C_19  and  C_20
REMARK   11  A    between atoms: C_23  and  O_26
REMARK   12  A    between atoms: O_26  and  C_27
REMARK   13  A    between atoms: C_28  and  O_30
REMARK   14  A    between atoms: O_30  and  C_31
REMARK                            x       y       z     vdW  Elec       q    Type
REMARK                         _______ _______ _______ _____ _____    ______ ____
ROOT
ATOM      1  C   UNL     1       8.185   4.546  -4.204  0.00  0.00    +0.157 A 
ATOM      2  C   UNL     1       8.458   3.227  -3.910  0.00  0.00    +0.096 A 
ATOM      3  C   UNL     1       7.652   2.582  -2.893  0.00  0.00    -0.025 A 
ATOM      4  C   UNL     1       6.698   3.363  -2.332  0.00  0.00    -0.021 A 
ATOM      5  S   UNL     1       6.870   4.927  -3.139  0.00  0.00    -0.074 S 
ATOM      6  C   UNL     1       5.730   2.955  -1.267  0.00  0.00    -0.035 C 
ATOM      7  C   UNL     1       7.110   0.971  -1.095  0.00  0.00    -0.073 C 
ATOM      8  C   UNL     1       7.816   1.135  -2.444  0.00  0.00    +0.018 C 
ATOM      9  N   UNL     1       5.725   1.473  -1.202  0.00  0.00    +0.385 N 
ATOM     10  H   UNL     1       5.300   1.103  -2.060  0.00  0.00    -0.081 HD
ENDROOT
BRANCH   1  11
ATOM     11  S   UNL     1       8.981   5.593  -5.376  0.00  0.00    +0.068 S 
ATOM     12  O   UNL     1      10.311   5.783  -4.914  0.00  0.00    -0.152 OA
ATOM     13  O   UNL     1       8.689   5.060  -6.661  0.00  0.00    -0.152 OA
BRANCH  11  14
ATOM     14  N   UNL     1       8.237   7.071  -5.297  0.00  0.00    -0.177 NA
BRANCH  14  16
ATOM     15  C   UNL     1       9.697   9.024  -5.112  0.00  0.00    +0.022 C 
ATOM     16  C   UNL     1       8.735   8.093  -4.373  0.00  0.00    +0.106 C 
ENDBRANCH  14  16
BRANCH  14  17
ATOM     17  C   UNL     1       7.082   7.356  -6.152  0.00  0.00    +0.106 C 
ATOM     18  C   UNL     1       5.793   7.074  -5.378  0.00  0.00    +0.022 C 
ENDBRANCH  14  17
ENDBRANCH  11  14
ENDBRANCH   1  11
BRANCH   2  19
ATOM     19  C   UNL     1       9.530   2.499  -4.606  0.00  0.00    +0.342 C 
ATOM     20  O   UNL     1       9.287   1.893  -5.630  0.00  0.00    -0.245 OA
BRANCH  19  21
ATOM     21  O   UNL     1      10.782   2.505  -4.106  0.00  0.00    -0.464 OA
ATOM     22  C   UNL     1      11.789   1.765  -4.845  0.00  0.00    +0.280 C 
ENDBRANCH  19  21
ENDBRANCH   2  19
BRANCH   9  23
ATOM     23  C   UNL     1       4.932   1.021  -0.039  0.00  0.00    -0.051 C 
BRANCH  23  24
ATOM     24  C   UNL     1       3.615   1.754  -0.023  0.00  0.00    -0.045 C 
ATOM     25  C   UNL     1       2.477   1.073  -0.015  0.00  0.00    +0.002 C 
BRANCH  25  26
ATOM     26  C   UNL     1       1.186   1.791   0.000  0.00  0.00    -0.025 A 
ATOM     27  C   UNL     1      -0.013   1.076   0.008  0.00  0.00    +0.011 A 
ATOM     28  C   UNL     1      -1.215   1.750   0.017  0.00  0.00    +0.046 A 
ATOM     29  C   UNL     1      -1.235   3.138   0.031  0.00  0.00    +0.120 A 
ATOM     30  C   UNL     1      -0.045   3.853   0.023  0.00  0.00    +0.046 A 
ATOM     31  C   UNL     1       1.162   3.187   0.008  0.00  0.00    +0.011 A 
BRANCH  29  32
ATOM     32  O   UNL     1      -2.422   3.799   0.047  0.00  0.00    -0.495 OA
ATOM     33  C   UNL     1      -3.608   3.002   0.054  0.00  0.00    +0.277 C 
ENDBRANCH  29  32
ENDBRANCH  25  26
ENDBRANCH  23  24
ENDBRANCH   9  23
TORSDOF 10
