REMARK  Name = ZINC47137442
REMARK  8 active torsions:
REMARK  status: ('A' for Active; 'I' for Inactive)
REMARK    1  A    between atoms: C_1  and  O_2
REMARK    2  A    between atoms: O_2  and  C_3
REMARK    3  A    between atoms: C_5  and  C_10
REMARK    4  A    between atoms: C_8  and  O_9
REMARK    5  A    between atoms: N_11  and  N_12
REMARK    6  A    between atoms: N_14  and  C_28
REMARK    7  A    between atoms: C_18  and  C_19
REMARK    8  A    between atoms: C_28  and  C_29
REMARK                            x       y       z     vdW  Elec       q    Type
REMARK                         _______ _______ _______ _____ _____    ______ ____
ROOT
ATOM      1  N   UNL     1       4.234  -1.659  -4.592  0.00  0.00    -0.126 NA
ATOM      2  C   UNL     1       4.654  -2.217  -5.710  0.00  0.00    +0.190 C 
ATOM      3  N   UNL     1       5.357  -1.639  -6.744  0.00  0.00    -0.237 N 
ATOM      4  C   UNL     1       5.703  -2.350  -7.804  0.00  0.00    +0.259 C 
ATOM      5  O   UNL     1       6.324  -1.855  -8.727  0.00  0.00    -0.269 OA
ATOM      6  C   UNL     1       5.302  -3.771  -7.817  0.00  0.00    +0.078 C 
ATOM      7  C   UNL     1       5.521  -4.719  -8.763  0.00  0.00    +0.029 C 
ATOM      8  S   UNL     1       4.458  -3.908  -6.248  0.00  0.00    -0.047 S 
ENDROOT
BRANCH   7   9
ATOM      9  C   UNL     1       5.188  -6.123  -8.487  0.00  0.00    -0.004 A 
ATOM     10  C   UNL     1       4.997  -6.555  -7.169  0.00  0.00    +0.009 A 
ATOM     11  C   UNL     1       4.684  -7.874  -6.918  0.00  0.00    +0.002 A 
ATOM     12  C   UNL     1       4.558  -8.772  -7.964  0.00  0.00    +0.021 A 
ATOM     13  C   UNL     1       4.744  -8.354  -9.271  0.00  0.00    +0.060 A 
ATOM     14  C   UNL     1       5.053  -7.035  -9.541  0.00  0.00    +0.066 A 
ATOM     15 CL   UNL     1       5.279  -6.511 -11.180  0.00  0.00    -0.081 Cl
ATOM     16 CL   UNL     1       4.584  -9.490 -10.574  0.00  0.00    -0.082 Cl
ENDBRANCH   7   9
BRANCH   1  18
ATOM     17  C   UNL     1       4.052   0.143  -3.259  0.00  0.00    +0.143 C 
ATOM     18  N   UNL     1       4.468  -0.411  -4.367  0.00  0.00    -0.155 NA
BRANCH  17  21
ATOM     19  C   UNL     1       2.377  -0.880  -0.061  0.00  0.00    +0.162 A 
ATOM     20  C   UNL     1       3.031  -0.114  -1.006  0.00  0.00    +0.059 A 
ATOM     21  C   UNL     1       3.356  -0.668  -2.248  0.00  0.00    -0.002 A 
ATOM     22  C   UNL     1       3.015  -1.996  -2.527  0.00  0.00    +0.013 A 
ATOM     23  C   UNL     1       2.362  -2.753  -1.579  0.00  0.00    +0.050 A 
ATOM     24  C   UNL     1       2.045  -2.204  -0.344  0.00  0.00    +0.158 A 
BRANCH  19  26
ATOM     25  C   UNL     1       2.429   1.017   1.371  0.00  0.00    +0.277 C 
ATOM     26  O   UNL     1       2.060  -0.345   1.149  0.00  0.00    -0.491 OA
ENDBRANCH  19  26
BRANCH  24  27
ATOM     27  O   UNL     1       1.406  -2.958   0.589  0.00  0.00    -0.503 OA
ATOM     28  H   UNL     1       0.442  -2.912   0.538  0.00  0.00    +0.292 HD
ENDBRANCH  24  27
ENDBRANCH  17  21
ENDBRANCH   1  18
BRANCH   3  29
ATOM     29  C   UNL     1       5.724  -0.223  -6.669  0.00  0.00    +0.190 C 
BRANCH  29  30
ATOM     30  C   UNL     1       7.072  -0.088  -6.009  0.00  0.00    +0.123 A 
ATOM     31  C   UNL     1       8.260  -0.086  -6.641  0.00  0.00    +0.046 A 
ATOM     32  C   UNL     1       9.253   0.063  -5.645  0.00  0.00    +0.041 A 
ATOM     33  C   UNL     1       8.612   0.143  -4.465  0.00  0.00    +0.195 A 
ATOM     34  O   UNL     1       7.292   0.057  -4.692  0.00  0.00    -0.466 OA
ENDBRANCH  29  30
ENDBRANCH   3  29
TORSDOF 7
