REMARK  Name = ZINC12053966
REMARK  11 active torsions:
REMARK  status: ('A' for Active; 'I' for Inactive)
REMARK    1  A    between atoms: C_1  and  C_2
REMARK    2  A    between atoms: C_3  and  C_14
REMARK    3  A    between atoms: C_4  and  C_13
REMARK    4  A    between atoms: N_5  and  C_7
REMARK    5  A    between atoms: C_14  and  C_15
REMARK    6  A    between atoms: N_17  and  C_18
REMARK    7  A    between atoms: C_21  and  C_32
REMARK    8  A    between atoms: C_24  and  C_25
REMARK    9  A    between atoms: C_24  and  N_63
REMARK   10  A    between atoms: C_32  and  O_34
REMARK   11  A    between atoms: O_34  and  C_35
REMARK                            x       y       z     vdW  Elec       q    Type
REMARK                         _______ _______ _______ _____ _____    ______ ____
ROOT
ATOM      1  C   UNL     1      -1.131   4.522   5.142  0.00  0.00    +0.218 C 
ATOM      2  O   UNL     1       0.072   4.655   5.079  0.00  0.00    -0.275 OA
ATOM      3  N   UNL     1      -1.724   3.466   4.551  0.00  0.00    -0.314 N 
ATOM      4  H   UNL     1      -2.687   3.359   4.601  0.00  0.00    +0.149 HD
ENDROOT
BRANCH   3   5
ATOM      5  C   UNL     1      -0.915   2.480   3.831  0.00  0.00    +0.055 C 
ATOM      6  C   UNL     1      -1.670   1.135   3.728  0.00  0.00    +0.016 C 
ATOM      7  C   UNL     1      -1.324   0.652   2.297  0.00  0.00    +0.045 C 
ATOM      8  C   UNL     1      -0.695   2.930   2.374  0.00  0.00    -0.055 C 
ATOM      9  N   UNL     1      -1.323   1.905   1.533  0.00  0.00    +0.393 N 
ATOM     10  H   UNL     1      -2.289   2.179   1.316  0.00  0.00    -0.080 HD
BRANCH   7  11
ATOM     11  C   UNL     1      -2.380  -0.294   1.785  0.00  0.00    +0.293 C 
ATOM     12  O   UNL     1      -3.076   0.025   0.851  0.00  0.00    -0.253 OA
BRANCH  11  13
ATOM     13  O   UNL     1      -2.547  -1.492   2.368  0.00  0.00    -0.469 OA
ATOM     14  C   UNL     1      -3.582  -2.352   1.823  0.00  0.00    +0.280 C 
ENDBRANCH  11  13
ENDBRANCH   7  11
BRANCH   9  15
ATOM     15  C   UNL     1      -0.561   1.743   0.259  0.00  0.00    -0.040 C 
BRANCH  15  16
ATOM     16  C   UNL     1      -1.188   0.651  -0.569  0.00  0.00    -0.046 A 
ATOM     17  C   UNL     1      -0.657  -0.625  -0.546  0.00  0.00    +0.003 A 
ATOM     18  C   UNL     1      -1.228  -1.626  -1.310  0.00  0.00    +0.000 A 
ATOM     19  C   UNL     1      -2.331  -1.351  -2.097  0.00  0.00    +0.001 A 
ATOM     20  C   UNL     1      -2.862  -0.076  -2.121  0.00  0.00    +0.020 A 
ATOM     21  C   UNL     1      -2.291   0.926  -1.357  0.00  0.00    +0.042 A 
ATOM     22 CL   UNL     1      -2.958   2.529  -1.387  0.00  0.00    -0.083 Cl
ENDBRANCH  15  16
ENDBRANCH   9  15
ENDBRANCH   3   5
BRANCH   1  23
ATOM     23  C   UNL     1      -1.964   5.536   5.883  0.00  0.00    +0.134 C 
BRANCH  23  26
ATOM     24  C   UNL     1      -0.601   5.508   8.743  0.00  0.00    +0.068 C 
ATOM     25  C   UNL     1      -0.464   6.596   7.710  0.00  0.00    +0.064 A 
ATOM     26  C   UNL     1      -1.066   6.607   6.447  0.00  0.00    +0.005 A 
ATOM     27  C   UNL     1      -0.705   7.753   5.824  0.00  0.00    +0.046 A 
ATOM     28  N   UNL     1       0.103   8.440   6.662  0.00  0.00    -0.236 N 
ATOM     29  N   UNL     1       0.241   7.691   7.838  0.00  0.00    -0.171 NA
ATOM     30  C   UNL     1      -1.128   8.185   4.443  0.00  0.00    +0.066 C 
BRANCH  28  31
ATOM     31  C   UNL     1       0.698   9.683   6.401  0.00  0.00    +0.066 A 
ATOM     32  C   UNL     1       2.016   9.914   6.769  0.00  0.00    +0.028 A 
ATOM     33  C   UNL     1       2.602  11.137   6.505  0.00  0.00    +0.002 A 
ATOM     34  C   UNL     1       1.872  12.134   5.886  0.00  0.00    +0.000 A 
ATOM     35  C   UNL     1       0.556  11.909   5.523  0.00  0.00    +0.002 A 
ATOM     36  C   UNL     1      -0.032  10.687   5.779  0.00  0.00    +0.028 A 
ENDBRANCH  28  31
ENDBRANCH  23  26
ENDBRANCH   1  23
TORSDOF 8
