REMARK  Name = ZINC38592702
REMARK  3 active torsions:
REMARK  status: ('A' for Active; 'I' for Inactive)
REMARK    1  A    between atoms: C_4  and  N_7
REMARK    2  A    between atoms: C_8  and  C_19
REMARK    3  A    between atoms: C_20  and  C_21
REMARK                            x       y       z     vdW  Elec       q    Type
REMARK                         _______ _______ _______ _____ _____    ______ ____
ROOT
ATOM      1  N   UNL     1       3.619  -0.668  -0.182  0.00  0.00    -0.261 N 
ATOM      2  C   UNL     1       3.642  -2.022   0.054  0.00  0.00    +0.141 A 
ATOM      3  N   UNL     1       4.755  -2.705   0.184  0.00  0.00    -0.229 NA
ATOM      4  C   UNL     1       5.960  -2.117   0.093  0.00  0.00    +0.079 A 
ATOM      5  C   UNL     1       7.144  -2.850   0.232  0.00  0.00    +0.029 A 
ATOM      6  C   UNL     1       8.351  -2.217   0.133  0.00  0.00    +0.016 A 
ATOM      7  C   UNL     1       8.424  -0.850  -0.104  0.00  0.00    +0.014 A 
ATOM      8  C   UNL     1       7.274  -0.100  -0.245  0.00  0.00    +0.029 A 
ATOM      9  C   UNL     1       6.033  -0.724  -0.148  0.00  0.00    +0.066 A 
ATOM     10  C   UNL     1       4.776   0.025  -0.297  0.00  0.00    +0.267 A 
ATOM     11  O   UNL     1       4.776   1.223  -0.511  0.00  0.00    -0.267 OA
ATOM     12  I   UNL     1      10.295   0.080  -0.247  0.00  0.00    -0.044 I 
ENDROOT
BRANCH   1  16
ATOM     13  C   UNL     1      -0.028   1.310  -0.562  0.00  0.00    +0.000 A 
ATOM     14  C   UNL     1       0.575   1.207   0.678  0.00  0.00    +0.002 A 
ATOM     15  C   UNL     1       1.783   0.552   0.808  0.00  0.00    +0.026 A 
ATOM     16  C   UNL     1       2.394  -0.004  -0.309  0.00  0.00    +0.051 A 
ATOM     17  C   UNL     1       1.786   0.102  -1.554  0.00  0.00    +0.026 A 
ATOM     18  C   UNL     1       0.577   0.759  -1.677  0.00  0.00    +0.002 A 
ENDBRANCH   1  16
BRANCH   2  19
ATOM     19  C   UNL     1       2.368  -2.733   0.167  0.00  0.00    +0.047 C 
ATOM     20  C   UNL     1       2.356  -4.081   0.360  0.00  0.00    +0.009 C 
BRANCH  20  21
ATOM     21  C   UNL     1       1.135  -4.762   0.468  0.00  0.00    -0.019 C 
ATOM     22  C   UNL     1       0.948  -6.126   0.671  0.00  0.00    +0.003 A 
ATOM     23  C   UNL     1       1.851  -7.202   0.826  0.00  0.00    +0.010 A 
ATOM     24  C   UNL     1       1.375  -8.457   1.014  0.00  0.00    +0.001 A 
ATOM     25  C   UNL     1       0.001  -8.723   1.060  0.00  0.00    +0.002 A 
ATOM     26  C   UNL     1      -0.922  -7.744   0.920  0.00  0.00    +0.026 A 
ATOM     27  C   UNL     1      -0.501  -6.400   0.719  0.00  0.00    +0.043 A 
ATOM     28  N   UNL     1      -1.184  -5.289   0.558  0.00  0.00    -0.380 N 
ATOM     29  C   UNL     1      -0.254  -4.168   0.394  0.00  0.00    +0.149 C 
ATOM     30  H   UNL     1      -2.152  -5.221   0.552  0.00  0.00    +0.160 HD
ENDBRANCH  20  21
ENDBRANCH   2  19
TORSDOF 3
