REMARK  Name = ZINC09314819
REMARK  11 active torsions:
REMARK  status: ('A' for Active; 'I' for Inactive)
REMARK    1  A    between atoms: C_1  and  C_2
REMARK    2  A    between atoms: C_2  and  O_3
REMARK    3  A    between atoms: O_3  and  C_4
REMARK    4  A    between atoms: C_7  and  S_23
REMARK    5  A    between atoms: C_9  and  N_10
REMARK    6  A    between atoms: C_11  and  C_13
REMARK    7  A    between atoms: C_13  and  N_61
REMARK    8  A    between atoms: C_14  and  C_16
REMARK    9  A    between atoms: C_14  and  C_17
REMARK   10  A    between atoms: C_14  and  N_61
REMARK   11  A    between atoms: S_23  and  N_26
REMARK                            x       y       z     vdW  Elec       q    Type
REMARK                         _______ _______ _______ _____ _____    ______ ____
ROOT
ATOM      1  C   UNL     1       4.833  -1.814  -2.679  0.00  0.00    +0.142 A 
ATOM      2  C   UNL     1       3.925  -2.639  -2.035  0.00  0.00    +0.049 A 
ATOM      3  C   UNL     1       3.489  -2.325  -0.761  0.00  0.00    +0.032 A 
ATOM      4  C   UNL     1       3.948  -1.183  -0.131  0.00  0.00    +0.107 A 
ATOM      5  C   UNL     1       4.853  -0.355  -0.767  0.00  0.00    +0.055 A 
ATOM      6  C   UNL     1       5.300  -0.666  -2.043  0.00  0.00    +0.077 A 
ENDROOT
BRANCH   6   7
ATOM      7  N   UNL     1       6.218   0.171  -2.689  0.00  0.00    -0.284 N 
ATOM      8  C   UNL     1       7.038   0.959  -1.965  0.00  0.00    +0.200 C 
ATOM      9  O   UNL     1       7.052   0.870  -0.756  0.00  0.00    -0.278 OA
ATOM     10  H   UNL     1       6.264   0.184  -3.658  0.00  0.00    +0.155 HD
BRANCH   8  11
ATOM     11  C   UNL     1       7.937   1.950  -2.659  0.00  0.00    +0.016 C 
BRANCH  11  12
ATOM     12  N   UNL     1       8.724   2.679  -1.646  0.00  0.00    +0.389 N 
ATOM     13  H   UNL     1       9.290   2.010  -1.111  0.00  0.00    -0.084 HD
ATOM     14  H   UNL     1       8.086   3.172  -1.012  0.00  0.00    -0.084 HD
BRANCH  12  15
ATOM     15  C   UNL     1       9.615   3.657  -2.298  0.00  0.00    -0.043 C 
ATOM     16  C   UNL     1      10.914   2.965  -2.718  0.00  0.00    -0.009 C 
BRANCH  15  17
ATOM     17  C   UNL     1       9.929   4.765  -1.325  0.00  0.00    -0.062 A 
ATOM     18  C   UNL     1      10.156   4.471   0.006  0.00  0.00    +0.002 A 
ATOM     19  C   UNL     1      10.448   5.487   0.898  0.00  0.00    +0.000 A 
ATOM     20  C   UNL     1      10.503   6.797   0.459  0.00  0.00    +0.000 A 
ATOM     21  C   UNL     1      10.270   7.091  -0.871  0.00  0.00    +0.000 A 
ATOM     22  C   UNL     1       9.982   6.075  -1.763  0.00  0.00    +0.002 A 
ENDBRANCH  15  17
ENDBRANCH  12  15
ENDBRANCH  11  12
ENDBRANCH   8  11
ENDBRANCH   6   7
BRANCH   4  23
ATOM     23  S   UNL     1       3.382  -0.786   1.490  0.00  0.00    +0.061 S 
ATOM     24  O   UNL     1       4.379   0.038   2.078  0.00  0.00    -0.153 OA
ATOM     25  O   UNL     1       2.956  -2.006   2.082  0.00  0.00    -0.153 OA
BRANCH  23  26
ATOM     26  N   UNL     1       2.030   0.154   1.320  0.00  0.00    -0.177 NA
ATOM     27  C   UNL     1       0.696  -0.458   1.245  0.00  0.00    +0.109 C 
ATOM     28  C   UNL     1      -0.008   0.046  -0.019  0.00  0.00    +0.017 C 
ATOM     29  C   UNL     1      -0.019   1.576  -0.015  0.00  0.00    +0.003 C 
ATOM     30  C   UNL     1       1.420   2.098  -0.023  0.00  0.00    +0.017 C 
ATOM     31  C   UNL     1       2.140   1.617   1.240  0.00  0.00    +0.109 C 
ENDBRANCH  23  26
ENDBRANCH   4  23
BRANCH   1  32
ATOM     32  O   UNL     1       5.266  -2.124  -3.930  0.00  0.00    -0.490 OA
BRANCH  32  34
ATOM     33  C   UNL     1       5.343  -3.498  -5.917  0.00  0.00    +0.048 C 
ATOM     34  C   UNL     1       4.745  -3.316  -4.521  0.00  0.00    +0.226 C 
ENDBRANCH  32  34
ENDBRANCH   1  32
TORSDOF 9
