REMARK  Name = ZINC12790755
REMARK  4 active torsions:
REMARK  status: ('A' for Active; 'I' for Inactive)
REMARK    1  A    between atoms: C_3  and  S_10
REMARK    2  A    between atoms: C_6  and  C_7
REMARK    3  A    between atoms: S_10  and  N_13
REMARK    4  A    between atoms: C_17  and  C_19
REMARK                            x       y       z     vdW  Elec       q    Type
REMARK                         _______ _______ _______ _____ _____    ______ ____
ROOT
ATOM      1  N   UNL     1       2.406   5.529  -4.312  0.00  0.00    -0.169 NA
ATOM      2  C   UNL     1       2.089   6.633  -5.236  0.00  0.00    +0.110 C 
ATOM      3  C   UNL     1       1.259   5.976  -6.367  0.00  0.00    +0.019 C 
ATOM      4  C   UNL     1       0.421   4.937  -5.577  0.00  0.00    +0.027 C 
ATOM      5  C   UNL     1       1.397   4.472  -4.476  0.00  0.00    +0.110 C 
ENDROOT
BRANCH   5   6
ATOM      6  C   UNL     1       0.652   4.269  -3.182  0.00  0.00    -0.025 A 
ATOM      7  C   UNL     1       0.299   5.362  -2.412  0.00  0.00    +0.009 A 
ATOM      8  C   UNL     1      -0.385   5.184  -1.223  0.00  0.00    +0.050 A 
ATOM      9  C   UNL     1      -0.717   3.906  -0.807  0.00  0.00    +0.162 A 
ATOM     10  C   UNL     1      -0.361   2.809  -1.579  0.00  0.00    +0.162 A 
ATOM     11  C   UNL     1       0.324   2.991  -2.768  0.00  0.00    +0.054 A 
ATOM     12  O   UNL     1      -0.692   1.553  -1.159  0.00  0.00    -0.488 OA
ATOM     13  C   UNL     1      -0.013   1.086   0.008  0.00  0.00    +0.232 C 
ATOM     14  C   UNL     1      -0.712   1.570   1.269  0.00  0.00    +0.082 C 
ATOM     15  C   UNL     1      -0.662   3.083   1.414  0.00  0.00    +0.232 C 
ATOM     16  O   UNL     1      -1.394   3.716   0.363  0.00  0.00    -0.488 OA
ENDBRANCH   5   6
BRANCH   1  17
ATOM     17  S   UNL     1       3.687   5.486  -3.263  0.00  0.00    +0.061 S 
ATOM     18  O   UNL     1       4.051   6.837  -3.012  0.00  0.00    -0.153 OA
ATOM     19  O   UNL     1       3.329   4.588  -2.222  0.00  0.00    -0.153 OA
BRANCH  17  22
ATOM     20  C   UNL     1       6.976   4.978  -5.509  0.00  0.00    +0.015 A 
ATOM     21  C   UNL     1       5.915   5.547  -4.836  0.00  0.00    +0.029 A 
ATOM     22  C   UNL     1       5.039   4.751  -4.120  0.00  0.00    +0.106 A 
ATOM     23  C   UNL     1       5.223   3.381  -4.070  0.00  0.00    +0.029 A 
ATOM     24  C   UNL     1       6.277   2.798  -4.743  0.00  0.00    +0.015 A 
ATOM     25  C   UNL     1       7.165   3.595  -5.467  0.00  0.00    +0.037 A 
BRANCH  25  26
ATOM     26  C   UNL     1       8.300   2.979  -6.186  0.00  0.00    +0.242 C 
ATOM     27  O   UNL     1       9.071   3.675  -6.816  0.00  0.00    -0.270 OA
ATOM     28  N   UNL     1       8.479   1.643  -6.144  0.00  0.00    -0.325 N 
ATOM     29  H   UNL     1       7.863   1.087  -5.641  0.00  0.00    +0.145 HD
ATOM     30  H   UNL     1       9.223   1.239  -6.616  0.00  0.00    +0.145 HD
ENDBRANCH  25  26
ENDBRANCH  17  22
ENDBRANCH   1  17
TORSDOF 4
