REMARK  Name = ZINC25461984
REMARK  4 active torsions:
REMARK  status: ('A' for Active; 'I' for Inactive)
REMARK    1  A    between atoms: C_1  and  C_2
REMARK    2  A    between atoms: C_2  and  C_4
REMARK    3  A    between atoms: C_2  and  N_17
REMARK    4  A    between atoms: N_6  and  C_7
REMARK                            x       y       z     vdW  Elec       q    Type
REMARK                         _______ _______ _______ _____ _____    ______ ____
ROOT
ATOM      1  C   UNL     1       0.036   1.528   0.040  0.00  0.00    +0.034 C 
ATOM      2  C   UNL     1       0.034  -0.002   0.019  0.00  0.00    +0.140 C 
ENDROOT
BRANCH   2   3
ATOM      3  N   UNL     1       0.706  -0.477  -1.198  0.00  0.00    -0.289 NA
ATOM      4  C   UNL     1       2.092   0.006  -1.256  0.00  0.00    +0.104 C 
ATOM      5  C   UNL     1       2.810  -0.654  -2.438  0.00  0.00    +0.122 C 
ATOM      6  N   UNL     1       2.018  -0.420  -3.656  0.00  0.00    -0.314 N 
ATOM      7  C   UNL     1       0.585  -0.752  -3.628  0.00  0.00    +0.122 C 
ATOM      8  C   UNL     1      -0.045  -0.089  -2.399  0.00  0.00    +0.104 C 
ATOM      9  C   UNL     1       2.608   0.101  -4.801  0.00  0.00    +0.099 A 
ATOM     10  C   UNL     1       3.934   0.519  -4.765  0.00  0.00    +0.042 A 
ATOM     11  C   UNL     1       4.508   1.035  -5.912  0.00  0.00    +0.005 A 
ATOM     12  C   UNL     1       3.734   1.117  -7.062  0.00  0.00    +0.018 A 
ATOM     13  C   UNL     1       2.424   0.683  -7.027  0.00  0.00    +0.084 A 
ATOM     14  N   UNL     1       1.904   0.190  -5.919  0.00  0.00    -0.350 N 
ATOM     15  H   UNL     1       0.982  -0.111  -5.923  0.00  0.00    +0.166 HD
ENDBRANCH   2   3
BRANCH   2  16
ATOM     16  C   UNL     1       0.763  -0.522   1.231  0.00  0.00    +0.230 C 
ATOM     17  O   UNL     1       1.746  -1.219   1.094  0.00  0.00    -0.274 OA
ATOM     18  N   UNL     1       0.323  -0.212   2.467  0.00  0.00    -0.308 N 
ATOM     19  H   UNL     1      -0.463   0.345   2.576  0.00  0.00    +0.149 HD
BRANCH  18  20
ATOM     20  C   UNL     1       1.032  -0.718   3.645  0.00  0.00    +0.035 C 
ATOM     21  C   UNL     1       2.476  -0.210   3.628  0.00  0.00    +0.029 C 
ATOM     22  C   UNL     1       3.216  -0.737   4.858  0.00  0.00    -0.008 C 
ATOM     23  C   UNL     1       2.516  -0.243   6.126  0.00  0.00    +0.007 C 
ATOM     24  C   UNL     1       1.073  -0.751   6.143  0.00  0.00    -0.008 C 
ATOM     25  C   UNL     1       0.333  -0.223   4.912  0.00  0.00    +0.029 C 
ATOM     26  C   UNL     1       1.071  -2.281   6.122  0.00  0.00    +0.007 C 
ATOM     27  C   UNL     1       1.771  -2.775   4.855  0.00  0.00    -0.008 C 
ATOM     28  C   UNL     1       3.214  -2.267   4.838  0.00  0.00    +0.007 C 
ATOM     29  C   UNL     1       1.030  -2.247   3.624  0.00  0.00    +0.029 C 
ENDBRANCH  18  20
ENDBRANCH   2  16
TORSDOF 3
