REMARK  Name = ZINC22226677
REMARK  9 active torsions:
REMARK  status: ('A' for Active; 'I' for Inactive)
REMARK    1  A    between atoms: C_1  and  N_2
REMARK    2  A    between atoms: C_3  and  C_5
REMARK    3  A    between atoms: N_14  and  C_16
REMARK    4  A    between atoms: C_16  and  N_17
REMARK    5  A    between atoms: N_17  and  C_18
REMARK    6  A    between atoms: N_17  and  C_19
REMARK    7  A    between atoms: C_19  and  C_20
REMARK    8  A    between atoms: N_22  and  C_31
REMARK    9  A    between atoms: C_24  and  C_25
REMARK                            x       y       z     vdW  Elec       q    Type
REMARK                         _______ _______ _______ _____ _____    ______ ____
ROOT
ATOM      1  N   UNL     1      -0.096   1.422  -0.113  0.00  0.00    +0.394 N 
ATOM      2  C   UNL     1      -0.853   1.716  -1.336  0.00  0.00    -0.093 C 
ATOM      3  H   UNL     1      -0.632   1.875   0.734  0.00  0.00    -0.079 HD
ENDROOT
BRANCH   1   4
ATOM      4  C   UNL     1       1.246   2.017  -0.168  0.00  0.00    +0.073 C 
BRANCH   4  14
ATOM      5  C   UNL     1       0.916   4.967   1.875  0.00  0.00    +0.153 A 
ATOM      6  C   UNL     1       1.011   6.089   0.928  0.00  0.00    +0.020 A 
ATOM      7  C   UNL     1       0.929   7.419   1.325  0.00  0.00    +0.011 A 
ATOM      8  C   UNL     1       1.027   8.416   0.378  0.00  0.00    +0.001 A 
ATOM      9  C   UNL     1       1.205   8.106  -0.964  0.00  0.00    +0.001 A 
ATOM     10  C   UNL     1       1.289   6.794  -1.380  0.00  0.00    +0.014 A 
ATOM     11  C   UNL     1       1.192   5.774  -0.439  0.00  0.00    +0.050 A 
ATOM     12  C   UNL     1       1.276   4.350  -0.793  0.00  0.00    +0.273 A 
ATOM     13  O   UNL     1       1.437   4.005  -1.950  0.00  0.00    -0.266 OA
ATOM     14  N   UNL     1       1.167   3.435   0.191  0.00  0.00    -0.245 N 
ATOM     15  N   UNL     1       1.003   3.739   1.423  0.00  0.00    -0.165 NA
BRANCH   5  18
ATOM     16  C   UNL     1       0.451   4.438   5.608  0.00  0.00    +0.128 C 
ATOM     17  N   UNL     1       0.640   4.186   4.177  0.00  0.00    -0.313 N 
ATOM     18  C   UNL     1       0.726   5.220   3.317  0.00  0.00    +0.264 C 
ATOM     19  O   UNL     1       0.647   6.362   3.728  0.00  0.00    -0.268 OA
ATOM     20  H   UNL     1       0.712   3.154   3.805  0.00  0.00    +0.149 HD
ENDBRANCH   5  18
ENDBRANCH   4  14
ENDBRANCH   1   4
BRANCH   1  21
ATOM     21  C   UNL     1      -0.020  -0.026   0.124  0.00  0.00    -0.037 C 
BRANCH  21  22
ATOM     22  C   UNL     1      -1.374  -0.537   0.545  0.00  0.00    -0.018 A 
ATOM     23  C   UNL     1      -2.467   0.216   0.790  0.00  0.00    +0.116 A 
ATOM     24  N   UNL     1      -3.480  -0.620   1.138  0.00  0.00    -0.239 N 
ATOM     25  N   UNL     1      -2.987  -1.931   1.115  0.00  0.00    -0.166 NA
ATOM     26  C   UNL     1      -1.721  -1.886   0.759  0.00  0.00    +0.094 A 
BRANCH  26  27
ATOM     27  C   UNL     1      -0.816  -3.053   0.609  0.00  0.00    +0.002 A 
ATOM     28  C   UNL     1       0.060  -3.124  -0.472  0.00  0.00    +0.010 A 
ATOM     29  C   UNL     1       0.903  -4.209  -0.603  0.00  0.00    +0.001 A 
ATOM     30  C   UNL     1       0.871  -5.230   0.329  0.00  0.00    +0.000 A 
ATOM     31  C   UNL     1      -0.001  -5.167   1.401  0.00  0.00    +0.001 A 
ATOM     32  C   UNL     1      -0.844  -4.084   1.545  0.00  0.00    +0.010 A 
ENDBRANCH  26  27
BRANCH  24  33
ATOM     33  C   UNL     1      -4.787  -0.237   1.468  0.00  0.00    +0.065 A 
ATOM     34  C   UNL     1      -5.143   1.105   1.456  0.00  0.00    +0.028 A 
ATOM     35  C   UNL     1      -6.434   1.479   1.776  0.00  0.00    +0.002 A 
ATOM     36  C   UNL     1      -7.368   0.518   2.119  0.00  0.00    +0.000 A 
ATOM     37  C   UNL     1      -7.015  -0.818   2.137  0.00  0.00    +0.002 A 
ATOM     38  C   UNL     1      -5.728  -1.199   1.812  0.00  0.00    +0.028 A 
ENDBRANCH  24  33
ENDBRANCH  21  22
ENDBRANCH   1  21
TORSDOF 7
