REMARK  Name = ZINC16734186
REMARK  3 active torsions:
REMARK  status: ('A' for Active; 'I' for Inactive)
REMARK    1  A    between atoms: C_9  and  C_12
REMARK    2  A    between atoms: C_20  and  C_21
REMARK    3  A    between atoms: C_24  and  C_26
REMARK                            x       y       z     vdW  Elec       q    Type
REMARK                         _______ _______ _______ _____ _____    ______ ____
ROOT
ATOM      1  C   UNL     1       7.634  -1.976  -0.485  0.00  0.00    +0.196 A 
ATOM      2  N   UNL     1       6.945  -3.118  -0.503  0.00  0.00    -0.201 NA
ATOM      3  C   UNL     1       5.674  -2.856  -0.390  0.00  0.00    +0.200 A 
ATOM      4  N   UNL     1       5.492  -1.505  -0.292  0.00  0.00    -0.169 N 
ATOM      5  N   UNL     1       6.809  -0.975  -0.360  0.00  0.00    -0.142 NA
ATOM      6  C   UNL     1       4.244  -1.036  -0.174  0.00  0.00    +0.288 A 
ATOM      7  O   UNL     1       4.040   0.162  -0.091  0.00  0.00    -0.265 OA
ATOM      8  C   UNL     1       3.161  -1.955  -0.142  0.00  0.00    +0.085 A 
ATOM      9  C   UNL     1       1.812  -1.712  -0.024  0.00  0.00    +0.067 C 
ATOM     10  S   UNL     1       4.024  -3.512  -0.304  0.00  0.00    -0.044 S 
ENDROOT
BRANCH   1  19
ATOM     11  C   UNL     1      13.581  -2.951  -2.479  0.00  0.00    +0.004 A 
ATOM     12  C   UNL     1      12.755  -2.717  -3.563  0.00  0.00    +0.004 A 
ATOM     13  C   UNL     1      11.408  -2.475  -3.368  0.00  0.00    +0.049 A 
ATOM     14  C   UNL     1      10.882  -2.466  -2.085  0.00  0.00    +0.163 A 
ATOM     15  C   UNL     1      11.713  -2.698  -0.996  0.00  0.00    +0.162 A 
ATOM     16  C   UNL     1      13.063  -2.942  -1.198  0.00  0.00    +0.049 A 
ATOM     17  O   UNL     1      11.218  -2.689   0.272  0.00  0.00    -0.484 OA
ATOM     18  C   UNL     1       9.798  -2.814   0.410  0.00  0.00    +0.281 C 
ATOM     19  C   UNL     1       9.133  -1.861  -0.592  0.00  0.00    +0.280 C 
ATOM     20  O   UNL     1       9.553  -2.232  -1.910  0.00  0.00    -0.474 OA
ENDBRANCH   1  19
BRANCH   9  21
ATOM     21  C   UNL     1       1.353  -0.413   0.275  0.00  0.00    +0.130 A 
ATOM     22  C   UNL     1       0.031  -0.001   0.286  0.00  0.00    +0.050 A 
ATOM     23  C   UNL     1       0.033   1.352   0.632  0.00  0.00    +0.050 A 
ATOM     24  C   UNL     1       1.346   1.718   0.820  0.00  0.00    +0.136 A 
ATOM     25  O   UNL     1       2.126   0.644   0.601  0.00  0.00    -0.455 OA
BRANCH  24  26
ATOM     26  C   UNL     1       1.820   3.064   1.198  0.00  0.00    +0.018 A 
ATOM     27  C   UNL     1       0.904   4.101   1.391  0.00  0.00    +0.011 A 
ATOM     28  C   UNL     1       1.353   5.355   1.749  0.00  0.00    +0.002 A 
ATOM     29  C   UNL     1       2.708   5.591   1.906  0.00  0.00    +0.015 A 
ATOM     30  C   UNL     1       3.621   4.569   1.710  0.00  0.00    +0.019 A 
ATOM     31  C   UNL     1       3.186   3.308   1.357  0.00  0.00    +0.026 A 
ATOM     32 BR   UNL     1       5.470   4.903   1.927  0.00  0.00    -0.050 Br
ENDBRANCH  24  26
ENDBRANCH   9  21
TORSDOF 3
