REMARK  Name = ZINC57980740
REMARK  6 active torsions:
REMARK  status: ('A' for Active; 'I' for Inactive)
REMARK    1  A    between atoms: C_1  and  C_2
REMARK    2  A    between atoms: N_11  and  C_15
REMARK    3  A    between atoms: C_15  and  C_16
REMARK    4  A    between atoms: N_18  and  C_19
REMARK    5  A    between atoms: C_24  and  C_25
REMARK    6  A    between atoms: N_27  and  C_28
REMARK                            x       y       z     vdW  Elec       q    Type
REMARK                         _______ _______ _______ _____ _____    ______ ____
ROOT
ATOM      1  C   UNL     1       0.894   1.503   4.348  0.00  0.00    +0.214 C 
ENDROOT
BRANCH   1  11
ATOM      2  C   UNL     1      -0.035   1.513   0.013  0.00  0.00    +0.010 C 
ATOM      3  C   UNL     1       0.004  -0.017   0.004  0.00  0.00    +0.018 C 
ATOM      4  C   UNL     1      -1.426  -0.563   0.016  0.00  0.00    +0.006 C 
ATOM      5  C   UNL     1      -1.386  -2.093   0.028  0.00  0.00    +0.000 C 
ATOM      6  C   UNL     1      -0.656  -2.575   1.283  0.00  0.00    +0.003 C 
ATOM      7  C   UNL     1       0.777  -2.037   1.276  0.00  0.00    +0.035 C 
ATOM      8  C   UNL     1       0.750  -0.513   1.238  0.00  0.00    +0.115 C 
ATOM      9  C   UNL     1       0.116   0.037   2.495  0.00  0.00    +0.247 C 
ATOM     10  O   UNL     1      -1.016  -0.149   2.887  0.00  0.00    -0.273 OA
ATOM     11  N   UNL     1       1.075   0.777   3.088  0.00  0.00    -0.215 N 
ATOM     12  C   UNL     1       2.212   0.768   2.382  0.00  0.00    +0.310 C 
ATOM     13  O   UNL     1       3.219   1.362   2.715  0.00  0.00    -0.252 OA
ATOM     14  N   UNL     1       2.116   0.026   1.263  0.00  0.00    -0.285 N 
ATOM     15  H   UNL     1       2.812  -0.124   0.604  0.00  0.00    +0.151 HD
ENDBRANCH   1  11
BRANCH   1  16
ATOM     16  C   UNL     1       1.269   0.608   5.501  0.00  0.00    +0.235 C 
ATOM     17  O   UNL     1       1.650  -0.524   5.291  0.00  0.00    -0.274 OA
ATOM     18  N   UNL     1       1.181   1.065   6.766  0.00  0.00    -0.284 N 
ATOM     19  H   UNL     1       0.954   1.994   6.931  0.00  0.00    +0.155 HD
BRANCH  18  20
ATOM     20  C   UNL     1       1.415   0.205   7.835  0.00  0.00    +0.046 A 
ATOM     21  C   UNL     1       1.224  -1.162   7.686  0.00  0.00    +0.024 A 
ATOM     22  C   UNL     1       1.457  -2.013   8.748  0.00  0.00    +0.002 A 
ATOM     23  C   UNL     1       1.883  -1.512   9.968  0.00  0.00    +0.001 A 
ATOM     24  C   UNL     1       2.078  -0.158  10.134  0.00  0.00    +0.015 A 
ATOM     25  C   UNL     1       1.852   0.715   9.067  0.00  0.00    +0.058 A 
BRANCH  25  26
ATOM     26  C   UNL     1       2.065   2.165   9.237  0.00  0.00    +0.246 C 
ATOM     27  O   UNL     1       1.777   2.931   8.337  0.00  0.00    -0.270 OA
ATOM     28  N   UNL     1       2.579   2.640  10.388  0.00  0.00    -0.314 N 
ATOM     29  C   UNL     1       2.790   4.080  10.556  0.00  0.00    +0.128 C 
ATOM     30  H   UNL     1       2.808   2.029  11.106  0.00  0.00    +0.149 HD
ENDBRANCH  25  26
ENDBRANCH  18  20
ENDBRANCH   1  16
TORSDOF 4
