REMARK  Name = ZINC06443691
REMARK  13 active torsions:
REMARK  status: ('A' for Active; 'I' for Inactive)
REMARK    1  A    between atoms: C_1  and  C_2
REMARK    2  A    between atoms: C_12  and  C_14
REMARK    3  A    between atoms: C_14  and  C_16
REMARK    4  A    between atoms: C_14  and  N_67
REMARK    5  A    between atoms: N_20  and  C_21
REMARK    6  A    between atoms: C_21  and  C_22
REMARK    7  A    between atoms: C_22  and  O_23
REMARK    8  A    between atoms: O_23  and  C_24
REMARK    9  A    between atoms: C_25  and  C_26
REMARK   10  A    between atoms: C_25  and  N_67
REMARK   11  A    between atoms: C_26  and  C_27
REMARK   12  A    between atoms: C_33  and  C_34
REMARK   13  A    between atoms: C_33  and  N_67
REMARK                            x       y       z     vdW  Elec       q    Type
REMARK                         _______ _______ _______ _____ _____    ______ ____
ROOT
ATOM      1  C   UNL     1       0.064  -2.188   4.740  0.00  0.00    +0.039 C 
ENDROOT
BRANCH   1  13
ATOM      2  C   UNL     1      -1.491   2.347   0.244  0.00  0.00    +0.046 C 
ATOM      3  C   UNL     1      -1.063   0.909   0.100  0.00  0.00    -0.026 A 
ATOM      4  C   UNL     1      -0.950   0.342  -1.151  0.00  0.00    +0.005 A 
ATOM      5  C   UNL     1      -0.551  -0.979  -1.297  0.00  0.00    +0.001 A 
ATOM      6  C   UNL     1      -0.275  -1.747  -0.201  0.00  0.00    +0.010 A 
ATOM      7  C   UNL     1      -0.388  -1.194   1.079  0.00  0.00    -0.001 A 
ATOM      8  C   UNL     1      -0.786   0.147   1.230  0.00  0.00    +0.052 A 
ATOM      9  N   UNL     1      -0.896   0.687   2.494  0.00  0.00    -0.322 N 
ATOM     10  H   UNL     1      -1.171   1.612   2.597  0.00  0.00    +0.169 HD
ATOM     11  C   UNL     1      -0.629  -0.050   3.587  0.00  0.00    +0.251 A 
ATOM     12  O   UNL     1      -0.736   0.460   4.688  0.00  0.00    -0.268 OA
ATOM     13  C   UNL     1      -0.226  -1.399   3.489  0.00  0.00    +0.011 A 
ATOM     14  C   UNL     1      -0.099  -1.988   2.275  0.00  0.00    +0.017 A 
ENDBRANCH   1  13
BRANCH   1  15
ATOM     15  C   UNL     1       1.261  -1.599   5.440  0.00  0.00    +0.143 A 
ATOM     16  N   UNL     1       1.294  -0.486   6.133  0.00  0.00    -0.115 NA
ATOM     17  N   UNL     1       2.494  -0.326   6.572  0.00  0.00    -0.023 NA
ATOM     18  N   UNL     1       3.230  -1.304   6.171  0.00  0.00    -0.044 NA
ATOM     19  N   UNL     1       2.506  -2.109   5.470  0.00  0.00    -0.228 N 
BRANCH  19  20
ATOM     20  C   UNL     1       2.955  -3.347   4.828  0.00  0.00    +0.175 C 
BRANCH  20  21
ATOM     21  C   UNL     1       3.443  -3.038   3.411  0.00  0.00    +0.183 C 
BRANCH  21  22
ATOM     22  O   UNL     1       3.881  -4.246   2.784  0.00  0.00    -0.381 OA
ATOM     23  C   UNL     1       4.359  -4.068   1.450  0.00  0.00    +0.194 C 
ENDBRANCH  21  22
ENDBRANCH  20  21
ENDBRANCH  19  20
ENDBRANCH   1  15
BRANCH   1  24
ATOM     24  N   UNL     1      -1.105  -2.107   5.641  0.00  0.00    +0.392 N 
ATOM     25  H   UNL     1      -1.259  -1.125   5.901  0.00  0.00    -0.080 HD
BRANCH  24  26
ATOM     26  C   UNL     1      -0.855  -2.894   6.867  0.00  0.00    -0.072 C 
BRANCH  26  27
ATOM     27  C   UNL     1      -0.585  -4.359   6.517  0.00  0.00    +0.016 C 
BRANCH  27  28
ATOM     28  C   UNL     1      -0.234  -5.118   7.771  0.00  0.00    -0.049 A 
ATOM     29  C   UNL     1       1.085  -5.217   8.172  0.00  0.00    +0.003 A 
ATOM     30  C   UNL     1       1.407  -5.909   9.325  0.00  0.00    +0.000 A 
ATOM     31  C   UNL     1       0.411  -6.511  10.070  0.00  0.00    +0.000 A 
ATOM     32  C   UNL     1      -0.907  -6.417   9.666  0.00  0.00    +0.000 A 
ATOM     33  C   UNL     1      -1.230  -5.720   8.517  0.00  0.00    +0.003 A 
ENDBRANCH  27  28
ENDBRANCH  26  27
ENDBRANCH  24  26
BRANCH  24  34
ATOM     34  C   UNL     1      -2.310  -2.615   4.952  0.00  0.00    -0.034 C 
BRANCH  34  35
ATOM     35  C   UNL     1      -3.527  -2.211   5.743  0.00  0.00    -0.027 A 
ATOM     36  C   UNL     1      -4.211  -1.041   5.720  0.00  0.00    +0.009 A 
ATOM     37  C   UNL     1      -5.312  -0.892   6.542  0.00  0.00    +0.008 A 
ATOM     38  C   UNL     1      -5.676  -1.919   7.348  0.00  0.00    +0.045 A 
ATOM     39  S   UNL     1      -4.448  -3.152   6.949  0.00  0.00    -0.103 S 
ENDBRANCH  34  35
ENDBRANCH  24  34
ENDBRANCH   1  24
TORSDOF 11
