REMARK  Name = ZINC10764072
REMARK  8 active torsions:
REMARK  status: ('A' for Active; 'I' for Inactive)
REMARK    1  A    between atoms: C_3  and  S_8
REMARK    2  A    between atoms: S_8  and  N_11
REMARK    3  A    between atoms: C_15  and  C_18
REMARK    4  A    between atoms: C_18  and  O_20
REMARK    5  A    between atoms: O_20  and  C_21
REMARK    6  A    between atoms: C_21  and  C_22
REMARK    7  A    between atoms: N_24  and  C_25
REMARK    8  A    between atoms: C_28  and  N_32
REMARK                            x       y       z     vdW  Elec       q    Type
REMARK                         _______ _______ _______ _____ _____    ______ ____
ROOT
ATOM      1  C   UNL     1       4.817   0.914   0.086  0.00  0.00    +0.312 C 
ATOM      2  O   UNL     1       4.873  -0.289   0.185  0.00  0.00    -0.250 OA
ENDROOT
BRANCH   1   7
ATOM      3  N   UNL     1       8.516   1.605   0.221  0.00  0.00    -0.176 NA
ATOM      4  C   UNL     1       8.605   2.640   1.260  0.00  0.00    +0.109 C 
ATOM      5  C   UNL     1       7.380   3.554   1.151  0.00  0.00    +0.018 C 
ATOM      6  C   UNL     1       6.107   2.707   1.215  0.00  0.00    +0.017 C 
ATOM      7  C   UNL     1       6.085   1.726   0.040  0.00  0.00    +0.113 C 
ATOM      8  C   UNL     1       7.295   0.791   0.136  0.00  0.00    +0.124 C 
BRANCH   3   9
ATOM      9  S   UNL     1       9.768   1.360  -0.835  0.00  0.00    +0.061 S 
ATOM     10  O   UNL     1      10.940   1.843  -0.194  0.00  0.00    -0.153 OA
ATOM     11  O   UNL     1       9.650   0.022  -1.301  0.00  0.00    -0.153 OA
BRANCH   9  14
ATOM     12  C   UNL     1       9.779   4.509  -3.331  0.00  0.00    +0.040 A 
ATOM     13  C   UNL     1       9.998   3.689  -2.240  0.00  0.00    +0.031 A 
ATOM     14  C   UNL     1       9.488   2.404  -2.227  0.00  0.00    +0.106 A 
ATOM     15  C   UNL     1       8.762   1.936  -3.306  0.00  0.00    +0.031 A 
ATOM     16  C   UNL     1       8.538   2.756  -4.396  0.00  0.00    +0.040 A 
ATOM     17  C   UNL     1       9.049   4.043  -4.410  0.00  0.00    +0.124 A 
ATOM     18  F   UNL     1       8.834   4.843  -5.477  0.00  0.00    -0.205 F 
ENDBRANCH   9  14
ENDBRANCH   3   9
ENDBRANCH   1   7
BRANCH   1  19
ATOM     19  O   UNL     1       3.625   1.526   0.018  0.00  0.00    -0.455 OA
BRANCH  19  20
ATOM     20  C   UNL     1       2.445   0.681   0.069  0.00  0.00    +0.328 C 
BRANCH  20  21
ATOM     21  C   UNL     1       1.209   1.538  -0.020  0.00  0.00    +0.255 C 
ATOM     22  O   UNL     1       1.312   2.743  -0.117  0.00  0.00    -0.272 OA
ATOM     23  N   UNL     1      -0.011   0.966   0.007  0.00  0.00    -0.281 N 
ATOM     24  H   UNL     1      -0.093  -0.001   0.019  0.00  0.00    +0.155 HD
BRANCH  23  25
ATOM     25  C   UNL     1      -1.159   1.766   0.013  0.00  0.00    +0.052 A 
ATOM     26  C   UNL     1      -1.176   2.964  -0.688  0.00  0.00    +0.027 A 
ATOM     27  C   UNL     1      -2.311   3.752  -0.680  0.00  0.00    +0.034 A 
ATOM     28  C   UNL     1      -3.430   3.349   0.025  0.00  0.00    +0.128 A 
ATOM     29  C   UNL     1      -3.418   2.156   0.725  0.00  0.00    +0.054 A 
ATOM     30  C   UNL     1      -2.287   1.360   0.716  0.00  0.00    +0.064 A 
ATOM     31 CL   UNL     1      -2.274  -0.141   1.589  0.00  0.00    -0.082 Cl
BRANCH  28  32
ATOM     32  N   UNL     1      -4.644   4.195   0.030  0.00  0.00    +0.056 N 
ATOM     33  O   UNL     1      -4.657   5.246  -0.586  0.00  0.00    -0.126 OA
ATOM     34  O   UNL     1      -5.631   3.841   0.651  0.00  0.00    -0.126 OA
ENDBRANCH  28  32
ENDBRANCH  23  25
ENDBRANCH  20  21
ENDBRANCH  19  20
ENDBRANCH   1  19
TORSDOF 8
