REMARK  Name = ZINC67266688
REMARK  4 active torsions:
REMARK  status: ('A' for Active; 'I' for Inactive)
REMARK    1  A    between atoms: C_4  and  C_7
REMARK    2  A    between atoms: C_7  and  C_9
REMARK    3  A    between atoms: C_7  and  N_16
REMARK    4  A    between atoms: C_17  and  C_19
REMARK                            x       y       z     vdW  Elec       q    Type
REMARK                         _______ _______ _______ _____ _____    ______ ____
ROOT
ATOM      1  N   UNL     1       3.611  -1.865  -0.930  0.00  0.00    -0.304 N 
ATOM      2  C   UNL     1       3.825  -1.716  -2.253  0.00  0.00    +0.217 C 
ATOM      3  O   UNL     1       4.099  -0.624  -2.704  0.00  0.00    -0.275 OA
ATOM      4  H   UNL     1       3.392  -2.738  -0.569  0.00  0.00    +0.150 HD
ENDROOT
BRANCH   2   5
ATOM      5  C   UNL     1       3.722  -2.906  -3.171  0.00  0.00    +0.075 C 
ATOM      6  C   UNL     1       4.742  -3.966  -2.748  0.00  0.00    +0.015 C 
ATOM      7  C   UNL     1       4.629  -5.179  -3.674  0.00  0.00    +0.036 C 
ATOM      8  C   UNL     1       4.884  -4.750  -5.114  0.00  0.00    +0.112 C 
ATOM      9  C   UNL     1       3.891  -3.675  -5.542  0.00  0.00    +0.036 C 
ATOM     10  C   UNL     1       4.007  -2.468  -4.609  0.00  0.00    +0.015 C 
ATOM     11  C   UNL     1       6.302  -4.251  -5.273  0.00  0.00    +0.244 C 
ATOM     12  O   UNL     1       6.814  -3.305  -4.713  0.00  0.00    -0.273 OA
ATOM     13  N   UNL     1       6.878  -5.080  -6.168  0.00  0.00    -0.238 N 
ATOM     14  C   UNL     1       6.024  -6.021  -6.588  0.00  0.00    +0.307 C 
ATOM     15  O   UNL     1       6.312  -6.883  -7.396  0.00  0.00    -0.252 OA
ATOM     16  N   UNL     1       4.811  -5.906  -6.016  0.00  0.00    -0.285 N 
ATOM     17  H   UNL     1       7.797  -5.003  -6.469  0.00  0.00    +0.159 HD
ATOM     18  H   UNL     1       4.040  -6.475  -6.170  0.00  0.00    +0.151 HD
ENDBRANCH   2   5
BRANCH   1  19
ATOM     19  C   UNL     1       3.711  -0.707  -0.038  0.00  0.00    +0.134 C 
BRANCH  19  20
ATOM     20  C   UNL     1       4.044  -1.175   1.356  0.00  0.00    -0.023 A 
ATOM     21  C   UNL     1       3.455  -2.320   1.859  0.00  0.00    +0.008 A 
ATOM     22  C   UNL     1       3.760  -2.750   3.137  0.00  0.00    +0.038 A 
ATOM     23  C   UNL     1       4.655  -2.033   3.913  0.00  0.00    +0.123 A 
ATOM     24  C   UNL     1       5.244  -0.886   3.408  0.00  0.00    +0.038 A 
ATOM     25  C   UNL     1       4.942  -0.461   2.128  0.00  0.00    +0.008 A 
ATOM     26  F   UNL     1       4.953  -2.452   5.162  0.00  0.00    -0.205 F 
ENDBRANCH  19  20
BRANCH  19  30
ATOM     27  C   UNL     1      -0.017   1.378   0.010  0.00  0.00    +0.000 A 
ATOM     28  C   UNL     1       1.171   2.086   0.002  0.00  0.00    +0.000 A 
ATOM     29  C   UNL     1       2.377   1.411  -0.013  0.00  0.00    +0.006 A 
ATOM     30  C   UNL     1       2.396   0.029  -0.020  0.00  0.00    -0.023 A 
ATOM     31  C   UNL     1       1.208  -0.679  -0.012  0.00  0.00    +0.006 A 
ATOM     32  C   UNL     1       0.002  -0.004   0.002  0.00  0.00    +0.000 A 
ENDBRANCH  19  30
ENDBRANCH   1  19
TORSDOF 4
