REMARK  Name = ZINC33810112
REMARK  7 active torsions:
REMARK  status: ('A' for Active; 'I' for Inactive)
REMARK    1  A    between atoms: C_1  and  C_2
REMARK    2  A    between atoms: C_2  and  C_3
REMARK    3  A    between atoms: C_6  and  C_9
REMARK    4  A    between atoms: C_14  and  S_18
REMARK    5  A    between atoms: S_18  and  C_19
REMARK    6  A    between atoms: C_19  and  C_20
REMARK    7  A    between atoms: C_19  and  C_21
REMARK                            x       y       z     vdW  Elec       q    Type
REMARK                         _______ _______ _______ _____ _____    ______ ____
ROOT
ATOM      1  C   UNL     1      -0.013   1.086   0.008  0.00  0.00    +0.092 C 
ATOM      2  C   UNL     1      -0.778   1.573  -1.186  0.00  0.00    +0.069 A 
ATOM      3  C   UNL     1      -0.334   2.629  -1.920  0.00  0.00    +0.135 A 
ATOM      4  N   UNL     1      -1.064   3.052  -2.999  0.00  0.00    -0.208 NA
ATOM      5  C   UNL     1      -2.223   2.415  -3.331  0.00  0.00    +0.171 A 
ATOM      6  N   UNL     1      -2.661   1.389  -2.632  0.00  0.00    -0.302 N 
ATOM      7  C   UNL     1      -1.981   0.938  -1.567  0.00  0.00    +0.258 A 
ATOM      8  O   UNL     1      -2.400  -0.017  -0.929  0.00  0.00    -0.267 OA
ATOM      9  N   UNL     1       0.838   3.264  -1.579  0.00  0.00    -0.302 N 
ATOM     10  C   UNL     1       1.760   2.644  -0.780  0.00  0.00    +0.017 C 
ATOM     11  C   UNL     1       1.405   1.599  -0.003  0.00  0.00    +0.024 C 
ATOM     12  C   UNL     1       2.345   0.958   0.823  0.00  0.00    +0.162 C 
ATOM     13  O   UNL     1       1.998   0.008   1.497  0.00  0.00    -0.292 OA
ATOM     14  C   UNL     1       3.774   1.425   0.887  0.00  0.00    +0.080 C 
ATOM     15  C   UNL     1       3.822   2.925   0.576  0.00  0.00    +0.014 C 
ATOM     16  C   UNL     1       3.179   3.156  -0.793  0.00  0.00    +0.051 C 
ATOM     17  H   UNL     1       1.040   4.280  -1.948  0.00  0.00    +0.153 HD
ATOM     18  H   UNL     1      -3.598   0.889  -2.918  0.00  0.00    +0.171 HD
ENDROOT
BRANCH   1  22
ATOM     19  C   UNL     1      -1.961   2.438   3.561  0.00  0.00    -0.048 A 
ATOM     20  C   UNL     1      -1.818   1.083   3.324  0.00  0.00    +0.004 A 
ATOM     21  C   UNL     1      -1.188   0.646   2.174  0.00  0.00    +0.005 A 
ATOM     22  C   UNL     1      -0.700   1.563   1.261  0.00  0.00    -0.035 A 
ATOM     23  C   UNL     1      -0.839   2.917   1.501  0.00  0.00    +0.005 A 
ATOM     24  C   UNL     1      -1.474   3.354   2.648  0.00  0.00    +0.004 A 
BRANCH  19  26
ATOM     25  C   UNL     1      -1.614   3.089   5.928  0.00  0.00    +0.009 C 
ATOM     26  C   UNL     1      -2.648   2.915   4.815  0.00  0.00    +0.032 C 
ENDBRANCH  19  26
ENDBRANCH   1  22
BRANCH   5  27
ATOM     27  S   UNL     1      -3.150   2.975  -4.721  0.00  0.00    -0.085 S 
BRANCH  27  28
ATOM     28  C   UNL     1      -4.525   1.800  -4.675  0.00  0.00    +0.048 C 
ATOM     29  C   UNL     1      -5.338   2.016  -3.397  0.00  0.00    +0.019 C 
ATOM     30  C   UNL     1      -5.424   2.019  -5.894  0.00  0.00    +0.019 C 
ENDBRANCH  27  28
ENDBRANCH   5  27
TORSDOF 4
