REMARK  Name = ZINC63683825
REMARK  7 active torsions:
REMARK  status: ('A' for Active; 'I' for Inactive)
REMARK    1  A    between atoms: C_1  and  C_2
REMARK    2  A    between atoms: C_2  and  O_3
REMARK    3  A    between atoms: O_3  and  C_4
REMARK    4  A    between atoms: C_9  and  N_10
REMARK    5  A    between atoms: C_11  and  O_35
REMARK    6  A    between atoms: C_14  and  O_34
REMARK    7  A    between atoms: C_15  and  C_19
REMARK                            x       y       z     vdW  Elec       q    Type
REMARK                         _______ _______ _______ _____ _____    ______ ____
ROOT
ATOM      1  N   UNL     1      -4.001  -1.491  -0.156  0.00  0.00    -0.222 N 
ATOM      2  C   UNL     1      -4.633  -0.963  -1.356  0.00  0.00    +0.339 C 
ATOM      3  N   UNL     1      -5.419   0.229  -1.081  0.00  0.00    -0.204 NA
ATOM      4  C   UNL     1      -5.854   0.551   0.074  0.00  0.00    +0.200 C 
ATOM      5  C   UNL     1      -5.597  -0.275   1.301  0.00  0.00    +0.179 C 
ATOM      6  C   UNL     1      -4.435  -1.200   1.077  0.00  0.00    +0.237 C 
ATOM      7  O   UNL     1      -3.875  -1.691   2.034  0.00  0.00    -0.274 OA
ENDROOT
BRANCH   5   8
ATOM      8  C   UNL     1      -6.841  -1.106   1.621  0.00  0.00    +0.101 C 
ATOM      9  C   UNL     1      -6.630  -1.866   2.933  0.00  0.00    +0.124 C 
ATOM     10  C   UNL     1      -7.831  -2.792   3.087  0.00  0.00    -0.036 C 
ATOM     11  C   UNL     1      -8.352  -2.535   4.279  0.00  0.00    -0.001 A 
ATOM     12  C   UNL     1      -9.460  -3.158   5.021  0.00  0.00    +0.010 A 
ATOM     13  C   UNL     1      -9.741  -2.623   6.239  0.00  0.00    +0.001 A 
ATOM     14  C   UNL     1      -9.040  -1.543   6.786  0.00  0.00    +0.002 A 
ATOM     15  C   UNL     1      -8.005  -0.913   6.176  0.00  0.00    +0.026 A 
ATOM     16  C   UNL     1      -7.611  -1.390   4.892  0.00  0.00    +0.043 A 
ATOM     17  N   UNL     1      -6.636  -0.986   4.100  0.00  0.00    -0.376 N 
ATOM     18  C   UNL     1      -8.281  -3.699   1.968  0.00  0.00    +0.048 C 
ATOM     19  C   UNL     1      -8.328  -2.826   0.700  0.00  0.00    +0.085 C 
ATOM     20  N   UNL     1      -7.071  -2.087   0.549  0.00  0.00    -0.310 NA
ATOM     21  H   UNL     1      -7.015  -1.650  -0.359  0.00  0.00    +0.122 HD
ATOM     22  H   UNL     1      -6.033  -0.242   4.253  0.00  0.00    +0.160 HD
ENDBRANCH   5   8
BRANCH   1  28
ATOM     23  C   UNL     1      -1.608  -1.815  -0.332  0.00  0.00    +0.142 A 
ATOM     24  C   UNL     1      -0.520  -2.663  -0.466  0.00  0.00    +0.047 A 
ATOM     25  C   UNL     1      -0.715  -4.027  -0.571  0.00  0.00    +0.004 A 
ATOM     26  C   UNL     1      -1.994  -4.551  -0.542  0.00  0.00    +0.002 A 
ATOM     27  C   UNL     1      -3.085  -3.713  -0.408  0.00  0.00    +0.027 A 
ATOM     28  C   UNL     1      -2.897  -2.343  -0.297  0.00  0.00    +0.082 A 
BRANCH  23  29
ATOM     29  O   UNL     1      -1.418  -0.473  -0.229  0.00  0.00    -0.490 OA
BRANCH  29  31
ATOM     30  C   UNL     1      -0.054   1.521  -0.142  0.00  0.00    +0.048 C 
ATOM     31  C   UNL     1      -0.069  -0.004  -0.272  0.00  0.00    +0.226 C 
ENDBRANCH  29  31
ENDBRANCH  23  29
ENDBRANCH   1  28
BRANCH   4  32
ATOM     32  O   UNL     1      -6.576   1.684   0.199  0.00  0.00    -0.495 OA
ATOM     33  H   UNL     1      -6.701   2.164  -0.631  0.00  0.00    +0.293 HD
ENDBRANCH   4  32
BRANCH   2  34
ATOM     34  O   UNL     1      -5.490  -1.964  -1.909  0.00  0.00    -0.356 OA
ATOM     35  H   UNL     1      -5.950  -1.688  -2.713  0.00  0.00    +0.214 HD
ENDBRANCH   2  34
TORSDOF 6
