REMARK  Name = ZINC58294433
REMARK  6 active torsions:
REMARK  status: ('A' for Active; 'I' for Inactive)
REMARK    1  A    between atoms: C_1  and  N_2
REMARK    2  A    between atoms: C_6  and  C_7
REMARK    3  A    between atoms: C_7  and  C_9
REMARK    4  A    between atoms: C_7  and  N_16
REMARK    5  A    between atoms: N_16  and  C_17
REMARK    6  A    between atoms: C_17  and  C_18
REMARK                            x       y       z     vdW  Elec       q    Type
REMARK                         _______ _______ _______ _____ _____    ______ ____
ROOT
ATOM      1  C   UNL     1       0.030  -0.354   2.521  0.00  0.00    +0.149 C 
ENDROOT
BRANCH   1   7
ATOM      2  C   UNL     1      -0.018   1.461   0.010  0.00  0.00    +0.150 C 
ATOM      3  N   UNL     1       0.002  -0.004   0.002  0.00  0.00    -0.337 N 
ATOM      4  C   UNL     1       0.009  -0.810  -1.104  0.00  0.00    +0.104 A 
ATOM      5  C   UNL     1       0.029  -2.081  -0.660  0.00  0.00    +0.102 A 
ATOM      6  N   UNL     1       0.034  -2.052   0.681  0.00  0.00    -0.348 N 
ATOM      7  C   UNL     1       0.023  -0.811   1.085  0.00  0.00    +0.109 A 
ATOM      8  H   UNL     1       0.048  -2.831   1.260  0.00  0.00    +0.166 HD
ENDBRANCH   1   7
BRANCH   1   9
ATOM      9  C   UNL     1       1.183   0.591   2.742  0.00  0.00    -0.023 A 
ATOM     10  C   UNL     1       2.459   0.092   2.925  0.00  0.00    +0.008 A 
ATOM     11  C   UNL     1       3.517   0.958   3.127  0.00  0.00    +0.038 A 
ATOM     12  C   UNL     1       3.298   2.325   3.147  0.00  0.00    +0.123 A 
ATOM     13  C   UNL     1       2.019   2.823   2.964  0.00  0.00    +0.038 A 
ATOM     14  C   UNL     1       0.964   1.956   2.756  0.00  0.00    +0.008 A 
ATOM     15  F   UNL     1       4.331   3.173   3.345  0.00  0.00    -0.205 F 
ENDBRANCH   1   9
BRANCH   1  16
ATOM     16  N   UNL     1       0.175  -1.519   3.404  0.00  0.00    -0.303 NA
ATOM     17  H   UNL     1       0.822  -2.189   3.016  0.00  0.00    +0.123 HD
BRANCH  16  18
ATOM     18  C   UNL     1      -1.128  -2.141   3.674  0.00  0.00    +0.088 C 
BRANCH  18  19
ATOM     19  C   UNL     1      -0.937  -3.347   4.595  0.00  0.00    +0.040 C 
ATOM     20  C   UNL     1      -2.276  -4.067   4.784  0.00  0.00    +0.090 C 
ATOM     21  N   UNL     1      -2.062  -5.333   5.500  0.00  0.00    -0.391 NA
ATOM     22  C   UNL     1      -1.333  -5.092   6.668  0.00  0.00    +0.101 A 
ATOM     23  C   UNL     1      -1.236  -5.894   7.750  0.00  0.00    +0.063 A 
ATOM     24  C   UNL     1      -0.405  -5.261   8.682  0.00  0.00    +0.136 A 
ATOM     25  N   UNL     1      -0.016  -4.117   8.175  0.00  0.00    -0.178 NA
ATOM     26  N   UNL     1      -0.587  -3.990   6.907  0.00  0.00    -0.252 N 
ATOM     27  C   UNL     1      -0.430  -2.874   5.966  0.00  0.00    +0.151 C 
ATOM     28  H   UNL     1      -2.954  -5.739   5.739  0.00  0.00    +0.125 HD
ATOM     29  H   UNL     1      -1.550  -5.971   4.910  0.00  0.00    +0.125 HD
ENDBRANCH  18  19
ENDBRANCH  16  18
ENDBRANCH   1  16
TORSDOF 5
