REMARK  Name = ZINC08949986
REMARK  11 active torsions:
REMARK  status: ('A' for Active; 'I' for Inactive)
REMARK    1  A    between atoms: C_1  and  C_2
REMARK    2  A    between atoms: C_2  and  C_3
REMARK    3  A    between atoms: C_3  and  C_4
REMARK    4  A    between atoms: C_4  and  O_5
REMARK    5  A    between atoms: O_5  and  C_6
REMARK    6  A    between atoms: C_6  and  C_8
REMARK    7  A    between atoms: C_11  and  N_14
REMARK    8  A    between atoms: C_15  and  C_17
REMARK    9  A    between atoms: C_17  and  S_18
REMARK   10  A    between atoms: S_18  and  C_19
REMARK   11  A    between atoms: C_31  and  C_35
REMARK                            x       y       z     vdW  Elec       q    Type
REMARK                         _______ _______ _______ _____ _____    ______ ____
ROOT
ATOM      1  C   UNL     1       2.139  -5.494  -5.064  0.00  0.00    +0.173 C 
ENDROOT
BRANCH   1   3
ATOM      2  N   UNL     1       3.398  -6.784  -6.758  0.00  0.00    -0.285 N 
ATOM      3  C   UNL     1       2.370  -6.734  -5.888  0.00  0.00    +0.227 C 
ATOM      4  O   UNL     1       1.631  -7.689  -5.768  0.00  0.00    -0.275 OA
ATOM      5  H   UNL     1       3.943  -5.996  -6.910  0.00  0.00    +0.155 HD
BRANCH   2   9
ATOM      6  C   UNL     1       4.238 -10.321  -8.792  0.00  0.00    +0.059 A 
ATOM      7  C   UNL     1       4.460  -9.087  -9.410  0.00  0.00    +0.017 A 
ATOM      8  C   UNL     1       4.182  -7.920  -8.735  0.00  0.00    +0.024 A 
ATOM      9  C   UNL     1       3.679  -7.968  -7.439  0.00  0.00    +0.033 A 
ATOM     10  C   UNL     1       3.462  -9.194  -6.817  0.00  0.00    +0.024 A 
ATOM     11  C   UNL     1       3.733 -10.364  -7.489  0.00  0.00    +0.017 A 
BRANCH   6  12
ATOM     12  C   UNL     1       4.535 -11.573  -9.512  0.00  0.00    +0.339 C 
ATOM     13  O   UNL     1       4.973 -11.533 -10.644  0.00  0.00    -0.245 OA
BRANCH  12  14
ATOM     14  O   UNL     1       4.320 -12.761  -8.914  0.00  0.00    -0.461 OA
BRANCH  14  15
ATOM     15  C   UNL     1       4.635 -13.952  -9.682  0.00  0.00    +0.232 C 
BRANCH  15  16
ATOM     16  C   UNL     1       4.328 -15.195  -8.845  0.00  0.00    +0.041 C 
BRANCH  16  18
ATOM     17  C   UNL     1       4.352 -17.693  -8.817  0.00  0.00    +0.004 C 
ATOM     18  C   UNL     1       4.659 -16.450  -9.655  0.00  0.00    -0.000 C 
ENDBRANCH  16  18
ENDBRANCH  15  16
ENDBRANCH  14  15
ENDBRANCH  12  14
ENDBRANCH   6  12
ENDBRANCH   2   9
ENDBRANCH   1   3
BRANCH   1  19
ATOM     19  S   UNL     1       0.694  -5.736  -4.001  0.00  0.00    -0.078 S 
BRANCH  19  20
ATOM     20  C   UNL     1       0.657  -4.180  -3.176  0.00  0.00    +0.170 A 
ATOM     21  N   UNL     1      -0.321  -3.952  -2.256  0.00  0.00    -0.301 N 
ATOM     22  H   UNL     1      -0.966  -4.654  -2.083  0.00  0.00    +0.171 HD
ATOM     23  C   UNL     1      -0.432  -2.789  -1.571  0.00  0.00    +0.261 A 
ATOM     24  O   UNL     1      -1.314  -2.603  -0.751  0.00  0.00    -0.267 OA
ATOM     25  C   UNL     1       0.552  -1.790  -1.870  0.00  0.00    +0.075 A 
ATOM     26  C   UNL     1       0.654  -0.467  -1.278  0.00  0.00    -0.023 A 
ATOM     27  C   UNL     1       1.669   0.315  -1.712  0.00  0.00    -0.004 A 
ATOM     28  S   UNL     1       2.528  -0.663  -2.918  0.00  0.00    -0.073 S 
ATOM     29  C   UNL     1       1.529  -2.116  -2.839  0.00  0.00    +0.117 A 
ATOM     30  N   UNL     1       1.582  -3.278  -3.476  0.00  0.00    -0.216 NA
ATOM     31  C   UNL     1       1.995   1.708  -1.267  0.00  0.00    +0.046 C 
ATOM     32  C   UNL     1       1.230   1.996   0.032  0.00  0.00    -0.009 C 
ATOM     33  C   UNL     1      -0.229   1.568  -0.154  0.00  0.00    +0.008 C 
ATOM     34  C   UNL     1      -0.319   0.043  -0.218  0.00  0.00    +0.037 C 
ATOM     35  C   UNL     1       1.290   3.493   0.343  0.00  0.00    +0.008 C 
ENDBRANCH  19  20
ENDBRANCH   1  19
TORSDOF 9
