REMARK  Name = ZINC39940842
REMARK  6 active torsions:
REMARK  status: ('A' for Active; 'I' for Inactive)
REMARK    1  A    between atoms: C_1  and  C_2
REMARK    2  A    between atoms: C_2  and  C_4
REMARK    3  A    between atoms: C_2  and  S_15
REMARK    4  A    between atoms: C_4  and  C_6
REMARK    5  A    between atoms: S_15  and  C_16
REMARK    6  A    between atoms: N_21  and  C_32
REMARK                            x       y       z     vdW  Elec       q    Type
REMARK                         _______ _______ _______ _____ _____    ______ ____
ROOT
ATOM      1  C   UNL     1      -0.222  -0.148   2.657  0.00  0.00    +0.221 C 
ATOM      2  N   UNL     1      -0.453   1.292   2.488  0.00  0.00    -0.300 N 
ATOM      3  C   UNL     1      -1.357   1.634   1.476  0.00  0.00    +0.153 C 
ATOM      4  N   UNL     1      -1.512   2.647   0.708  0.00  0.00    -0.156 NA
ATOM      5  N   UNL     1      -2.639   2.489  -0.111  0.00  0.00    -0.155 N 
ATOM      6  C   UNL     1      -3.236   1.298   0.138  0.00  0.00    +0.275 C 
ATOM      7  O   UNL     1      -4.246   0.858  -0.386  0.00  0.00    -0.268 OA
ATOM      8  C   UNL     1      -2.429   0.656   1.154  0.00  0.00    +0.097 C 
ATOM      9  C   UNL     1      -2.478  -0.584   1.765  0.00  0.00    +0.024 C 
ATOM     10  N   UNL     1      -1.461  -0.943   2.551  0.00  0.00    -0.306 N 
ATOM     11  C   UNL     1      -1.461  -2.192   3.324  0.00  0.00    +0.107 C 
ATOM     12  C   UNL     1      -1.769  -3.392   2.430  0.00  0.00    +0.019 C 
ATOM     13  C   UNL     1      -3.273  -3.668   2.491  0.00  0.00    +0.002 C 
ATOM     14  C   UNL     1      -4.013  -2.340   2.669  0.00  0.00    +0.006 C 
ATOM     15  C   UNL     1      -3.685  -1.441   1.485  0.00  0.00    +0.051 C 
ATOM     16  H   UNL     1      -0.011   1.958   3.037  0.00  0.00    +0.150 HD
ENDROOT
BRANCH   5  17
ATOM     17  C   UNL     1      -3.083   3.427  -1.050  0.00  0.00    +0.060 A 
ATOM     18  C   UNL     1      -4.219   3.169  -1.807  0.00  0.00    +0.025 A 
ATOM     19  C   UNL     1      -4.654   4.096  -2.733  0.00  0.00    +0.002 A 
ATOM     20  C   UNL     1      -3.961   5.280  -2.908  0.00  0.00    +0.000 A 
ATOM     21  C   UNL     1      -2.829   5.539  -2.156  0.00  0.00    +0.002 A 
ATOM     22  C   UNL     1      -2.392   4.619  -1.224  0.00  0.00    +0.025 A 
ENDBRANCH   5  17
BRANCH   1  23
ATOM     23  S   UNL     1       0.942  -0.708   1.383  0.00  0.00    -0.108 S 
BRANCH  23  25
ATOM     24  C   UNL     1       2.986  -0.650   3.199  0.00  0.00    +0.027 C 
ATOM     25  C   UNL     1       2.529   0.006   1.895  0.00  0.00    +0.117 C 
BRANCH  25  26
ATOM     26  C   UNL     1       3.559  -0.238   0.822  0.00  0.00    +0.174 C 
ATOM     27  O   UNL     1       3.430  -1.173   0.058  0.00  0.00    -0.291 OA
BRANCH  26  28
ATOM     28  C   UNL     1       4.673   0.620   0.705  0.00  0.00    +0.024 C 
ATOM     29  C   UNL     1       5.697   0.539  -0.221  0.00  0.00    +0.006 A 
ATOM     30  C   UNL     1       5.966  -0.355  -1.284  0.00  0.00    +0.010 A 
ATOM     31  C   UNL     1       7.069  -0.195  -2.047  0.00  0.00    +0.001 A 
ATOM     32  C   UNL     1       7.989   0.845  -1.834  0.00  0.00    +0.002 A 
ATOM     33  C   UNL     1       7.826   1.751  -0.846  0.00  0.00    +0.026 A 
ATOM     34  C   UNL     1       6.649   1.649   0.033  0.00  0.00    +0.043 A 
ATOM     35  N   UNL     1       6.251   2.370   1.041  0.00  0.00    -0.380 N 
ATOM     36  C   UNL     1       4.994   1.825   1.562  0.00  0.00    +0.152 C 
ATOM     37  H   UNL     1       6.712   3.149   1.390  0.00  0.00    +0.160 HD
ENDBRANCH  26  28
ENDBRANCH  25  26
ENDBRANCH  23  25
ENDBRANCH   1  23
TORSDOF 5
