REMARK  Name = ZINC13976240
REMARK  9 active torsions:
REMARK  status: ('A' for Active; 'I' for Inactive)
REMARK    1  A    between atoms: C_1  and  C_2
REMARK    2  A    between atoms: C_7  and  O_8
REMARK    3  A    between atoms: O_8  and  C_9
REMARK    4  A    between atoms: C_9  and  C_10
REMARK    5  A    between atoms: N_12  and  C_13
REMARK    6  A    between atoms: C_13  and  N_15
REMARK    7  A    between atoms: N_15  and  N_16
REMARK    8  A    between atoms: C_17  and  C_19
REMARK    9  A    between atoms: C_22  and  C_25
REMARK                            x       y       z     vdW  Elec       q    Type
REMARK                         _______ _______ _______ _____ _____    ______ ____
ROOT
ATOM      1  N   UNL     1      -1.271   7.787   0.051  0.00  0.00    -0.245 N 
ATOM      2  H   UNL     1      -0.438   8.283   0.045  0.00  0.00    +0.172 HD
ENDROOT
BRANCH   1   3
ATOM      3  N   UNL     1      -1.252   6.386   0.045  0.00  0.00    -0.231 N 
ATOM      4  C   UNL     1      -0.076   5.728   0.031  0.00  0.00    +0.260 C 
ATOM      5  O   UNL     1       0.969   6.350   0.023  0.00  0.00    -0.269 OA
ATOM      6  H   UNL     1      -2.085   5.890   0.051  0.00  0.00    +0.173 HD
BRANCH   4   7
ATOM      7  C   UNL     1      -0.056   4.251   0.024  0.00  0.00    +0.038 A 
ATOM      8  C   UNL     1       1.163   3.568   0.009  0.00  0.00    +0.014 A 
ATOM      9  C   UNL     1       1.181   2.192   0.003  0.00  0.00    +0.009 A 
ATOM     10  C   UNL     1      -0.018   1.479   0.010  0.00  0.00    -0.018 A 
ATOM     11  C   UNL     1      -1.236   2.159   0.020  0.00  0.00    +0.009 A 
ATOM     12  C   UNL     1      -1.256   3.535   0.032  0.00  0.00    +0.014 A 
BRANCH  10  13
ATOM     13  C   UNL     1       0.002  -0.004   0.002  0.00  0.00    -0.018 A 
ATOM     14  C   UNL     1       1.217  -0.687  -0.019  0.00  0.00    +0.008 A 
ATOM     15  C   UNL     1       1.230  -2.067  -0.022  0.00  0.00    +0.001 A 
ATOM     16  C   UNL     1       0.040  -2.772  -0.015  0.00  0.00    +0.000 A 
ATOM     17  C   UNL     1      -1.169  -2.100   0.002  0.00  0.00    +0.001 A 
ATOM     18  C   UNL     1      -1.194  -0.720   0.010  0.00  0.00    +0.008 A 
ENDBRANCH  10  13
ENDBRANCH   4   7
ENDBRANCH   1   3
BRANCH   1  19
ATOM     19  C   UNL     1      -2.447   8.445   0.066  0.00  0.00    +0.153 C 
ATOM     20  S   UNL     1      -2.470  10.156   0.073  0.00  0.00    -0.017 S 
BRANCH  19  23
ATOM     21  C   UNL     1      -4.781   8.413   0.088  0.00  0.00    +0.256 C 
ATOM     22  O   UNL     1      -4.798   9.625   0.094  0.00  0.00    -0.272 OA
ATOM     23  N   UNL     1      -3.605   7.755   0.074  0.00  0.00    -0.264 N 
ATOM     24  H   UNL     1      -3.592   6.785   0.070  0.00  0.00    +0.157 HD
BRANCH  21  25
ATOM     25  C   UNL     1      -6.076   7.642   0.097  0.00  0.00    +0.325 C 
BRANCH  25  26
ATOM     26  O   UNL     1      -7.174   8.556   0.112  0.00  0.00    -0.482 OA
BRANCH  26  33
ATOM     27  C   UNL     1      -9.360  10.345   0.154  0.00  0.00    +0.047 C 
ATOM     28  C   UNL     1      -9.535   8.848   0.142  0.00  0.00    -0.008 A 
ATOM     29  C   UNL     1     -10.804   8.300   0.147  0.00  0.00    +0.022 A 
ATOM     30  C   UNL     1     -10.965   6.927   0.142  0.00  0.00    +0.018 A 
ATOM     31  C   UNL     1      -9.857   6.098   0.127  0.00  0.00    +0.019 A 
ATOM     32  C   UNL     1      -8.587   6.641   0.117  0.00  0.00    +0.047 A 
ATOM     33  C   UNL     1      -8.423   8.019   0.122  0.00  0.00    +0.124 A 
ATOM     34 BR   UNL     1     -12.703   6.180   0.156  0.00  0.00    -0.050 Br
ENDBRANCH  26  33
ENDBRANCH  25  26
ENDBRANCH  21  25
ENDBRANCH  19  23
ENDBRANCH   1  19
TORSDOF 8
