REMARK  Name = ZINC09955469
REMARK  13 active torsions:
REMARK  status: ('A' for Active; 'I' for Inactive)
REMARK    1  A    between atoms: C_1  and  C_2
REMARK    2  A    between atoms: C_2  and  C_3
REMARK    3  A    between atoms: C_3  and  N_4
REMARK    4  A    between atoms: N_4  and  C_5
REMARK    5  A    between atoms: C_6  and  N_21
REMARK    6  A    between atoms: N_7  and  C_14
REMARK    7  A    between atoms: C_14  and  C_15
REMARK    8  A    between atoms: C_22  and  C_24
REMARK    9  A    between atoms: C_24  and  C_26
REMARK   10  A    between atoms: C_24  and  N_29
REMARK   11  A    between atoms: C_26  and  C_27
REMARK   12  A    between atoms: C_26  and  C_28
REMARK   13  A    between atoms: C_30  and  C_32
REMARK                            x       y       z     vdW  Elec       q    Type
REMARK                         _______ _______ _______ _____ _____    ______ ____
ROOT
ATOM      1  N   UNL     1       0.994  -1.641  -1.404  0.00  0.00    -0.263 N 
ATOM      2  C   UNL     1       1.549  -2.749  -0.869  0.00  0.00    +0.241 C 
ATOM      3  O   UNL     1       2.174  -2.674   0.168  0.00  0.00    -0.273 OA
ENDROOT
BRANCH   1   4
ATOM      4  C   UNL     1       0.168  -1.746  -2.543  0.00  0.00    +0.140 A 
ATOM      5  C   UNL     1       0.567  -1.210  -3.751  0.00  0.00    +0.128 A 
ATOM      6  N   UNL     1      -0.260  -1.328  -4.844  0.00  0.00    -0.276 N 
ATOM      7  C   UNL     1      -1.444  -1.958  -4.736  0.00  0.00    +0.331 A 
ATOM      8  O   UNL     1      -2.162  -2.051  -5.714  0.00  0.00    -0.246 OA
ATOM      9  N   UNL     1      -1.849  -2.486  -3.568  0.00  0.00    -0.273 N 
ATOM     10  H   UNL     1      -2.707  -2.936  -3.517  0.00  0.00    +0.173 HD
ATOM     11  C   UNL     1      -1.074  -2.404  -2.469  0.00  0.00    +0.277 A 
ATOM     12  O   UNL     1      -1.448  -2.890  -1.415  0.00  0.00    -0.266 OA
BRANCH   5  13
ATOM     13  N   UNL     1       1.776  -0.566  -3.861  0.00  0.00    -0.343 N 
ATOM     14  H   UNL     1       2.390  -0.557  -3.110  0.00  0.00    +0.144 HD
ATOM     15  H   UNL     1       2.015  -0.120  -4.688  0.00  0.00    +0.144 HD
ENDBRANCH   5  13
BRANCH   6  16
ATOM     16  C   UNL     1       0.150  -0.764  -6.132  0.00  0.00    +0.163 C 
BRANCH  16  17
ATOM     17  C   UNL     1       0.915  -1.801  -6.913  0.00  0.00    -0.028 A 
ATOM     18  C   UNL     1       2.287  -1.898  -6.775  0.00  0.00    +0.005 A 
ATOM     19  C   UNL     1       2.989  -2.849  -7.492  0.00  0.00    +0.000 A 
ATOM     20  C   UNL     1       2.318  -3.703  -8.347  0.00  0.00    +0.000 A 
ATOM     21  C   UNL     1       0.946  -3.607  -8.485  0.00  0.00    +0.000 A 
ATOM     22  C   UNL     1       0.244  -2.658  -7.765  0.00  0.00    +0.005 A 
ENDBRANCH  16  17
ENDBRANCH   6  16
ENDBRANCH   1   4
BRANCH   1  23
ATOM     23  C   UNL     1       1.250  -0.330  -0.803  0.00  0.00    +0.114 C 
BRANCH  23  25
ATOM     24  C   UNL     1       0.435   1.335   0.872  0.00  0.00    +0.005 C 
ATOM     25  C   UNL     1       0.244  -0.080   0.322  0.00  0.00    +0.016 C 
ENDBRANCH  23  25
ENDBRANCH   1  23
BRANCH   2  26
ATOM     26  C   UNL     1       1.391  -4.079  -1.559  0.00  0.00    +0.162 C 
BRANCH  26  27
ATOM     27  N   UNL     1       1.210  -5.132  -0.556  0.00  0.00    -0.300 N 
ATOM     28  C   UNL     1       0.568  -6.270  -0.882  0.00  0.00    +0.245 C 
ATOM     29  O   UNL     1       0.138  -6.425  -2.009  0.00  0.00    -0.270 OA
ATOM     30  H   UNL     1       1.553  -5.009   0.343  0.00  0.00    +0.150 HD
BRANCH  28  31
ATOM     31  C   UNL     1       0.385  -7.332   0.130  0.00  0.00    +0.037 A 
ATOM     32  C   UNL     1       0.872  -7.156   1.426  0.00  0.00    +0.013 A 
ATOM     33  C   UNL     1       0.698  -8.151   2.366  0.00  0.00    +0.001 A 
ATOM     34  C   UNL     1       0.043  -9.321   2.026  0.00  0.00    +0.000 A 
ATOM     35  C   UNL     1      -0.442  -9.502   0.743  0.00  0.00    +0.001 A 
ATOM     36  C   UNL     1      -0.280  -8.513  -0.204  0.00  0.00    +0.013 A 
ENDBRANCH  28  31
ENDBRANCH  26  27
BRANCH  26  37
ATOM     37  C   UNL     1       2.643  -4.375  -2.389  0.00  0.00    +0.012 C 
ATOM     38  C   UNL     1       2.759  -3.351  -3.519  0.00  0.00    +0.009 C 
ATOM     39  C   UNL     1       3.880  -4.289  -1.493  0.00  0.00    +0.009 C 
ENDBRANCH  26  37
ENDBRANCH   2  26
TORSDOF 10
