REMARK  Name = ZINC20754891
REMARK  7 active torsions:
REMARK  status: ('A' for Active; 'I' for Inactive)
REMARK    1  A    between atoms: C_1  and  C_2
REMARK    2  A    between atoms: C_2  and  O_3
REMARK    3  A    between atoms: O_3  and  C_4
REMARK    4  A    between atoms: C_7  and  C_11
REMARK    5  A    between atoms: C_13  and  C_25
REMARK    6  A    between atoms: C_30  and  O_31
REMARK    7  A    between atoms: O_31  and  C_32
REMARK                            x       y       z     vdW  Elec       q    Type
REMARK                         _______ _______ _______ _____ _____    ______ ____
ROOT
ATOM      1  C   UNL     1       1.141  -6.026   1.760  0.00  0.00    +0.054 C 
ATOM      2  C   UNL     1       1.849  -6.566   2.969  0.00  0.00    +0.086 C 
ATOM      3  C   UNL     1       1.221  -7.882   3.437  0.00  0.00    +0.130 C 
ATOM      4  N   UNL     1       0.949  -8.705   2.255  0.00  0.00    -0.302 N 
ATOM      5  C   UNL     1       0.921 -10.057   2.105  0.00  0.00    +0.069 A 
ATOM      6  C   UNL     1       1.141 -11.113   2.982  0.00  0.00    +0.028 A 
ATOM      7  C   UNL     1       1.022 -12.394   2.467  0.00  0.00    +0.002 A 
ATOM      8  C   UNL     1       0.700 -12.626   1.141  0.00  0.00    +0.002 A 
ATOM      9  C   UNL     1       0.478 -11.603   0.253  0.00  0.00    +0.028 A 
ATOM     10  C   UNL     1       0.590 -10.296   0.745  0.00  0.00    +0.066 A 
ATOM     11  N   UNL     1       0.440  -9.100   0.149  0.00  0.00    -0.324 N 
ATOM     12  C   UNL     1       0.653  -8.147   1.024  0.00  0.00    +0.210 A 
ATOM     13  N   UNL     1       0.619  -6.799   0.845  0.00  0.00    -0.218 NA
ATOM     14  H   UNL     1       0.211  -8.963  -0.784  0.00  0.00    +0.169 HD
ENDROOT
BRANCH   1  18
ATOM     15  C   UNL     1       0.802  -1.823   1.306  0.00  0.00    +0.139 A 
ATOM     16  C   UNL     1       0.257  -2.670   0.347  0.00  0.00    +0.048 A 
ATOM     17  C   UNL     1       0.364  -4.034   0.490  0.00  0.00    +0.013 A 
ATOM     18  C   UNL     1       1.024  -4.570   1.603  0.00  0.00    -0.002 A 
ATOM     19  C   UNL     1       1.571  -3.713   2.565  0.00  0.00    +0.033 A 
ATOM     20  C   UNL     1       1.463  -2.349   2.411  0.00  0.00    +0.083 A 
ATOM     21 CL   UNL     1       2.147  -1.285   3.600  0.00  0.00    -0.080 Cl
BRANCH  15  22
ATOM     22  O   UNL     1       0.693  -0.477   1.160  0.00  0.00    -0.491 OA
BRANCH  22  24
ATOM     23  C   UNL     1      -0.019   1.526   0.010  0.00  0.00    +0.048 C 
ATOM     24  C   UNL     1       0.002  -0.004   0.002  0.00  0.00    +0.226 C 
ENDBRANCH  22  24
ENDBRANCH  15  22
ENDBRANCH   1  18
BRANCH   3  25
ATOM     25  C   UNL     1       2.175  -8.605   4.353  0.00  0.00    +0.018 A 
ATOM     26  C   UNL     1       3.425  -8.976   3.895  0.00  0.00    +0.009 A 
ATOM     27  C   UNL     1       4.301  -9.639   4.733  0.00  0.00    +0.001 A 
ATOM     28  C   UNL     1       3.929  -9.933   6.033  0.00  0.00    +0.004 A 
ATOM     29  C   UNL     1       2.681  -9.564   6.495  0.00  0.00    +0.046 A 
ATOM     30  C   UNL     1       1.802  -8.893   5.657  0.00  0.00    +0.132 A 
BRANCH  30  31
ATOM     31  O   UNL     1       0.576  -8.524   6.112  0.00  0.00    -0.434 OA
BRANCH  31  32
ATOM     32  C   UNL     1       0.260  -8.854   7.466  0.00  0.00    +0.541 C 
ATOM     33  F   UNL     1       0.321 -10.241   7.634  0.00  0.00    -0.166 F 
ATOM     34  F   UNL     1       1.179  -8.239   8.322  0.00  0.00    -0.166 F 
ENDBRANCH  31  32
ENDBRANCH  30  31
ENDBRANCH   3  25
TORSDOF 6
