REMARK  Name = ZINC22521016
REMARK  12 active torsions:
REMARK  status: ('A' for Active; 'I' for Inactive)
REMARK    1  A    between atoms: C_1  and  C_2
REMARK    2  A    between atoms: C_2  and  O_3
REMARK    3  A    between atoms: O_3  and  C_4
REMARK    4  A    between atoms: C_4  and  C_6
REMARK    5  A    between atoms: C_7  and  C_34
REMARK    6  A    between atoms: C_9  and  C_33
REMARK    7  A    between atoms: C_10  and  C_22
REMARK    8  A    between atoms: C_11  and  C_13
REMARK    9  A    between atoms: C_17  and  N_19
REMARK   10  A    between atoms: C_22  and  O_24
REMARK   11  A    between atoms: O_24  and  C_25
REMARK   12  A    between atoms: N_30  and  C_32
REMARK                            x       y       z     vdW  Elec       q    Type
REMARK                         _______ _______ _______ _____ _____    ______ ____
ROOT
ATOM      1  C   UNL     1      -1.196   2.151   0.019  0.00  0.00    +0.065 C 
ATOM      2  C   UNL     1      -0.018   1.503   0.010  0.00  0.00    +0.016 C 
ATOM      3  N   UNL     1       1.162   2.195   0.003  0.00  0.00    -0.321 N 
ATOM      4  C   UNL     1       1.185   3.517  -0.349  0.00  0.00    +0.016 C 
ATOM      5  C   UNL     1       0.058   4.249  -0.349  0.00  0.00    +0.065 C 
ATOM      6  C   UNL     1      -1.264   3.651   0.042  0.00  0.00    +0.096 C 
ATOM      7  C   UNL     1       2.490   4.160  -0.740  0.00  0.00    +0.061 C 
ATOM      8  C   UNL     1       0.002  -0.004   0.002  0.00  0.00    +0.061 C 
ATOM      9  H   UNL     1       2.098   1.688   0.280  0.00  0.00    +0.152 HD
ENDROOT
BRANCH   6  10
ATOM     10  C   UNL     1      -1.626   4.114   1.430  0.00  0.00    -0.033 A 
ATOM     11  C   UNL     1      -0.795   3.822   2.495  0.00  0.00    +0.005 A 
ATOM     12  C   UNL     1      -1.127   4.246   3.768  0.00  0.00    +0.003 A 
ATOM     13  C   UNL     1      -2.290   4.964   3.976  0.00  0.00    +0.033 A 
ATOM     14  C   UNL     1      -3.121   5.257   2.911  0.00  0.00    +0.126 A 
ATOM     15  C   UNL     1      -2.787   4.836   1.637  0.00  0.00    +0.037 A 
BRANCH  14  16
ATOM     16  N   UNL     1      -4.366   6.026   3.134  0.00  0.00    +0.056 N 
ATOM     17  O   UNL     1      -4.659   6.399   4.255  0.00  0.00    -0.126 OA
ATOM     18  O   UNL     1      -5.098   6.284   2.195  0.00  0.00    -0.126 OA
ENDBRANCH  14  16
ENDBRANCH   6  10
BRANCH   1  19
ATOM     19  C   UNL     1      -2.397   1.404   0.013  0.00  0.00    +0.338 C 
ATOM     20  O   UNL     1      -2.357   0.188  -0.001  0.00  0.00    -0.245 OA
BRANCH  19  21
ATOM     21  O   UNL     1      -3.587   2.039   0.022  0.00  0.00    -0.462 OA
BRANCH  21  23
ATOM     22  C   UNL     1      -6.003   2.113   0.026  0.00  0.00    +0.048 C 
ATOM     23  C   UNL     1      -4.759   1.222   0.014  0.00  0.00    +0.229 C 
ENDBRANCH  21  23
ENDBRANCH  19  21
ENDBRANCH   1  19
BRANCH   5  24
ATOM     24  C   UNL     1       0.117   5.610  -0.726  0.00  0.00    +0.338 C 
ATOM     25  O   UNL     1       1.181   6.107  -1.045  0.00  0.00    -0.245 OA
BRANCH  24  26
ATOM     26  O   UNL     1      -1.006   6.359  -0.731  0.00  0.00    -0.460 OA
BRANCH  26  27
ATOM     27  C   UNL     1      -0.873   7.726  -1.123  0.00  0.00    +0.160 C 
ATOM     28  C   UNL     1      -1.935   8.568  -0.410  0.00  0.00    +0.041 C 
ATOM     29  C   UNL     1      -1.824  10.021  -0.880  0.00  0.00    -0.015 C 
ATOM     30  C   UNL     1      -1.988  10.074  -2.401  0.00  0.00    -0.079 C 
ATOM     31  N   UNL     1      -0.948   9.254  -3.036  0.00  0.00    +0.380 N 
ATOM     32  C   UNL     1      -1.064   7.846  -2.636  0.00  0.00    -0.034 C 
ATOM     33  C   UNL     1      -0.989   9.392  -4.498  0.00  0.00    -0.096 C 
ATOM     34  H   UNL     1       0.028   9.622  -2.687  0.00  0.00    -0.082 HD
ENDBRANCH  26  27
ENDBRANCH  24  26
ENDBRANCH   5  24
TORSDOF 8
