REMARK  Name = ZINC13186400
REMARK  13 active torsions:
REMARK  status: ('A' for Active; 'I' for Inactive)
REMARK    1  A    between atoms: C_1  and  C_2
REMARK    2  A    between atoms: C_2  and  C_3
REMARK    3  A    between atoms: C_2  and  C_4
REMARK    4  A    between atoms: C_4  and  C_6
REMARK    5  A    between atoms: C_4  and  N_17
REMARK    6  A    between atoms: N_17  and  S_18
REMARK    7  A    between atoms: S_18  and  C_21
REMARK    8  A    between atoms: C_23  and  C_31
REMARK    9  A    between atoms: C_25  and  O_29
REMARK   10  A    between atoms: C_26  and  O_27
REMARK   11  A    between atoms: O_27  and  C_28
REMARK   12  A    between atoms: O_29  and  C_30
REMARK   13  A    between atoms: C_32  and  C_33
REMARK                            x       y       z     vdW  Elec       q    Type
REMARK                         _______ _______ _______ _____ _____    ______ ____
ROOT
ATOM      1  S   UNL     1      -1.054   0.963   2.696  0.00  0.00    +0.063 S 
ATOM      2  O   UNL     1      -1.594   1.833   3.681  0.00  0.00    -0.153 OA
ATOM      3  O   UNL     1      -1.778  -0.143   2.175  0.00  0.00    -0.153 OA
ENDROOT
BRANCH   1   4
ATOM      4  C   UNL     1       0.443   0.316   3.362  0.00  0.00    +0.151 A 
ATOM      5  C   UNL     1       0.680  -1.041   3.329  0.00  0.00    +0.040 A 
ATOM      6  C   UNL     1       1.868  -1.557   3.859  0.00  0.00    -0.019 A 
ATOM      7  C   UNL     1       2.813  -0.691   4.420  0.00  0.00    +0.057 A 
ATOM      8  C   UNL     1       2.568   0.668   4.449  0.00  0.00    +0.164 A 
ATOM      9  C   UNL     1       1.384   1.175   3.915  0.00  0.00    +0.188 A 
BRANCH   9  10
ATOM     10  O   UNL     1       1.148   2.512   3.939  0.00  0.00    -0.490 OA
ATOM     11  C   UNL     1       0.594   3.051   5.141  0.00  0.00    +0.277 C 
ENDBRANCH   9  10
BRANCH   8  12
ATOM     12  O   UNL     1       3.484   1.512   4.994  0.00  0.00    -0.491 OA
ATOM     13  C   UNL     1       4.677   0.925   5.518  0.00  0.00    +0.277 C 
ENDBRANCH   8  12
BRANCH   6  14
ATOM     14  C   UNL     1       2.123  -3.004   3.824  0.00  0.00    +0.015 C 
ATOM     15  C   UNL     1       3.271  -3.500   4.336  0.00  0.00    +0.096 C 
BRANCH  15  16
ATOM     16  C   UNL     1       3.517  -4.896   4.303  0.00  0.00    +0.380 C 
ATOM     17  O   UNL     1       2.695  -5.647   3.814  0.00  0.00    -0.241 OA
ATOM     18  O   UNL     1       4.664  -5.391   4.814  0.00  0.00    -0.241 OA
ENDBRANCH  15  16
ENDBRANCH   6  14
ENDBRANCH   1   4
BRANCH   1  19
ATOM     19  N   UNL     1      -0.643   1.911   1.401  0.00  0.00    -0.182 NA
ATOM     20  H   UNL     1      -0.824   2.864   1.421  0.00  0.00    +0.149 HD
BRANCH  19  21
ATOM     21  C   UNL     1      -0.008   1.311   0.226  0.00  0.00    +0.109 C 
BRANCH  21  22
ATOM     22  C   UNL     1      -0.515   1.989  -1.021  0.00  0.00    -0.025 A 
ATOM     23  C   UNL     1      -0.706   3.358  -1.031  0.00  0.00    +0.009 A 
ATOM     24  C   UNL     1      -1.171   3.987  -2.172  0.00  0.00    +0.050 A 
ATOM     25  C   UNL     1      -1.444   3.240  -3.305  0.00  0.00    +0.162 A 
ATOM     26  C   UNL     1      -1.252   1.866  -3.295  0.00  0.00    +0.162 A 
ATOM     27  C   UNL     1      -0.781   1.240  -2.153  0.00  0.00    +0.054 A 
ATOM     28  O   UNL     1      -1.525   1.138  -4.417  0.00  0.00    -0.488 OA
ATOM     29  C   UNL     1      -0.656   1.357  -5.530  0.00  0.00    +0.232 C 
ATOM     30  C   UNL     1      -1.108   2.563  -6.338  0.00  0.00    +0.082 C 
ATOM     31  C   UNL     1      -1.006   3.859  -5.549  0.00  0.00    +0.232 C 
ATOM     32  O   UNL     1      -1.904   3.848  -4.437  0.00  0.00    -0.488 OA
ENDBRANCH  21  22
BRANCH  21  34
ATOM     33  C   UNL     1       2.179   0.779  -0.859  0.00  0.00    +0.009 C 
ATOM     34  C   UNL     1       1.509   1.486   0.321  0.00  0.00    +0.006 C 
ATOM     35  C   UNL     1       1.854   2.976   0.285  0.00  0.00    +0.009 C 
ENDBRANCH  21  34
ENDBRANCH  19  21
ENDBRANCH   1  19
TORSDOF 9
