REMARK  Name = ZINC16833509
REMARK  9 active torsions:
REMARK  status: ('A' for Active; 'I' for Inactive)
REMARK    1  A    between atoms: C_1  and  C_2
REMARK    2  A    between atoms: C_3  and  C_27
REMARK    3  A    between atoms: C_5  and  S_8
REMARK    4  A    between atoms: S_8  and  C_9
REMARK    5  A    between atoms: C_9  and  C_11
REMARK    6  A    between atoms: C_9  and  C_12
REMARK    7  A    between atoms: C_24  and  C_25
REMARK    8  A    between atoms: C_24  and  C_26
REMARK    9  A    between atoms: C_27  and  C_28
REMARK                            x       y       z     vdW  Elec       q    Type
REMARK                         _______ _______ _______ _____ _____    ______ ____
ROOT
ATOM      1  C   UNL     1       0.231   2.720  -0.285  0.00  0.00    +0.137 C 
ATOM      2  C   UNL     1       0.162   1.325  -0.912  0.00  0.00    +0.029 C 
ENDROOT
BRANCH   1   3
ATOM      3  C   UNL     1      -0.434   2.696   1.067  0.00  0.00    +0.234 C 
ATOM      4  O   UNL     1      -1.643   2.757   1.149  0.00  0.00    -0.274 OA
ATOM      5  N   UNL     1       0.314   2.607   2.184  0.00  0.00    -0.255 N 
ATOM      6  C   UNL     1       1.714   2.535   2.115  0.00  0.00    +0.059 A 
ATOM      7  C   UNL     1       2.349   1.976   1.023  0.00  0.00    +0.025 A 
ATOM      8  C   UNL     1       3.731   1.922   0.986  0.00  0.00    +0.002 A 
ATOM      9  C   UNL     1       4.476   2.428   2.036  0.00  0.00    +0.002 A 
ATOM     10  C   UNL     1       3.847   2.995   3.129  0.00  0.00    +0.025 A 
ATOM     11  C   UNL     1       2.463   3.056   3.174  0.00  0.00    +0.055 A 
ATOM     12  N   UNL     1       1.807   3.630   4.268  0.00  0.00    -0.282 N 
ATOM     13  C   UNL     1       0.486   3.447   4.452  0.00  0.00    +0.241 C 
ATOM     14  O   UNL     1      -0.070   3.991   5.383  0.00  0.00    -0.273 OA
ATOM     15  C   UNL     1      -0.311   2.576   3.515  0.00  0.00    +0.113 C 
ATOM     16  C   UNL     1      -1.744   3.104   3.420  0.00  0.00    +0.042 C 
ATOM     17  C   UNL     1      -0.326   1.139   4.040  0.00  0.00    +0.042 C 
ATOM     18  H   UNL     1       2.310   4.166   4.902  0.00  0.00    +0.155 HD
ENDBRANCH   1   3
BRANCH   1  19
ATOM     19  S   UNL     1      -0.621   3.905  -1.356  0.00  0.00    -0.075 S 
BRANCH  19  24
ATOM     20  C   UNL     1       1.522   4.743  -6.155  0.00  0.00    +0.065 C 
ATOM     21  C   UNL     1       1.286   4.212  -4.765  0.00  0.00    +0.037 A 
ATOM     22  C   UNL     1       2.042   3.312  -4.114  0.00  0.00    +0.067 A 
ATOM     23  N   UNL     1       1.500   3.101  -2.902  0.00  0.00    -0.226 NA
ATOM     24  C   UNL     1       0.425   3.843  -2.773  0.00  0.00    +0.167 A 
ATOM     25  N   UNL     1       0.252   4.552  -3.922  0.00  0.00    -0.337 N 
ATOM     26  H   UNL     1      -0.487   5.197  -4.117  0.00  0.00    +0.168 HD
BRANCH  22  27
ATOM     27  C   UNL     1       3.286   2.652  -4.650  0.00  0.00    +0.092 C 
BRANCH  27  28
ATOM     28  C   UNL     1       2.911   1.380  -5.366  0.00  0.00    -0.042 A 
ATOM     29  C   UNL     1       2.862   0.185  -4.672  0.00  0.00    +0.004 A 
ATOM     30  C   UNL     1       2.514  -0.981  -5.328  0.00  0.00    +0.000 A 
ATOM     31  C   UNL     1       2.224  -0.954  -6.679  0.00  0.00    +0.000 A 
ATOM     32  C   UNL     1       2.278   0.240  -7.374  0.00  0.00    +0.000 A 
ATOM     33  C   UNL     1       2.622   1.407  -6.717  0.00  0.00    +0.004 A 
ENDBRANCH  27  28
ENDBRANCH  22  27
ENDBRANCH  19  24
ENDBRANCH   1  19
TORSDOF 5
