REMARK  Name = ZINC38845454
REMARK  14 active torsions:
REMARK  status: ('A' for Active; 'I' for Inactive)
REMARK    1  A    between atoms: C_1  and  C_2
REMARK    2  A    between atoms: C_2  and  N_3
REMARK    3  A    between atoms: N_3  and  C_4
REMARK    4  A    between atoms: N_3  and  C_6
REMARK    5  A    between atoms: C_4  and  C_5
REMARK    6  A    between atoms: C_6  and  C_7
REMARK    7  A    between atoms: C_7  and  N_8
REMARK    8  A    between atoms: C_14  and  S_18
REMARK    9  A    between atoms: S_18  and  C_21
REMARK   10  A    between atoms: C_22  and  C_24
REMARK   11  A    between atoms: C_24  and  C_25
REMARK   12  A    between atoms: C_25  and  C_26
REMARK   13  A    between atoms: C_26  and  S_27
REMARK   14  A    between atoms: S_27  and  C_28
REMARK                            x       y       z     vdW  Elec       q    Type
REMARK                         _______ _______ _______ _____ _____    ______ ____
ROOT
ATOM      1  N   UNL     1      -2.914  -4.087   0.184  0.00  0.00    -0.252 N 
ATOM      2  C   UNL     1      -3.081  -4.631   1.448  0.00  0.00    +0.168 A 
ATOM      3  N   UNL     1      -3.260  -4.013   2.592  0.00  0.00    -0.224 NA
ATOM      4  C   UNL     1      -3.411  -4.676   3.759  0.00  0.00    +0.080 A 
ATOM      5  C   UNL     1      -3.609  -4.136   5.051  0.00  0.00    +0.031 A 
ATOM      6  C   UNL     1      -3.744  -4.957   6.140  0.00  0.00    +0.029 A 
ATOM      7  C   UNL     1      -3.691  -6.338   6.018  0.00  0.00    +0.089 A 
ATOM      8  C   UNL     1      -3.498  -6.901   4.769  0.00  0.00    +0.044 A 
ATOM      9  C   UNL     1      -3.362  -6.086   3.673  0.00  0.00    +0.043 A 
ATOM     10  S   UNL     1      -3.115  -6.350   1.933  0.00  0.00    -0.052 S 
ATOM     11  C   UNL     1      -2.747  -4.897  -0.880  0.00  0.00    +0.221 C 
ATOM     12  O   UNL     1      -2.744  -6.100  -0.733  0.00  0.00    -0.275 OA
ENDROOT
BRANCH   7  13
ATOM     13  S   UNL     1      -3.867  -7.365   7.439  0.00  0.00    -0.006 S 
ATOM     14  O   UNL     1      -3.180  -8.564   7.107  0.00  0.00    -0.170 OA
ATOM     15  O   UNL     1      -3.433  -6.558   8.525  0.00  0.00    -0.170 OA
ATOM     16  C   UNL     1      -5.649  -7.681   7.567  0.00  0.00    +0.200 C 
ENDBRANCH   7  13
BRANCH   1  17
ATOM     17  C   UNL     1      -2.918  -2.633   0.006  0.00  0.00    +0.097 C 
BRANCH  17  18
ATOM     18  C   UNL     1      -1.491  -2.099   0.145  0.00  0.00    -0.059 C 
BRANCH  18  19
ATOM     19  N   UNL     1      -1.476  -0.661  -0.156  0.00  0.00    +0.380 N 
ATOM     20  H   UNL     1      -1.879  -0.503  -1.067  0.00  0.00    -0.082 HD
BRANCH  19  22
ATOM     21  C   UNL     1      -2.347   1.539   0.476  0.00  0.00    -0.017 C 
ATOM     22  C   UNL     1      -2.259   0.060   0.857  0.00  0.00    -0.082 C 
ENDBRANCH  19  22
BRANCH  19  23
ATOM     23  C   UNL     1      -0.090  -0.172  -0.142  0.00  0.00    -0.082 C 
ATOM     24  C   UNL     1       0.686  -0.807  -1.298  0.00  0.00    -0.017 C 
ENDBRANCH  19  23
ENDBRANCH  18  19
ENDBRANCH  17  18
ENDBRANCH   1  17
BRANCH  11  25
ATOM     25  C   UNL     1      -2.565  -4.306  -2.255  0.00  0.00    +0.097 C 
BRANCH  25  26
ATOM     26  C   UNL     1      -2.399  -5.433  -3.276  0.00  0.00    +0.020 C 
BRANCH  26  27
ATOM     27  C   UNL     1      -2.214  -4.833  -4.672  0.00  0.00    +0.075 C 
BRANCH  27  28
ATOM     28  S   UNL     1      -2.017  -6.169  -5.883  0.00  0.00    -0.125 S 
BRANCH  28  29
ATOM     29  C   UNL     1      -1.817  -5.327  -7.418  0.00  0.00    +0.008 A 
ATOM     30  C   UNL     1      -1.834  -3.938  -7.457  0.00  0.00    +0.017 A 
ATOM     31  C   UNL     1      -1.677  -3.280  -8.661  0.00  0.00    +0.039 A 
ATOM     32  C   UNL     1      -1.503  -4.004  -9.829  0.00  0.00    +0.123 A 
ATOM     33  C   UNL     1      -1.486  -5.388  -9.792  0.00  0.00    +0.039 A 
ATOM     34  C   UNL     1      -1.637  -6.050  -8.590  0.00  0.00    +0.017 A 
ATOM     35  F   UNL     1      -1.350  -3.358 -11.005  0.00  0.00    -0.205 F 
ENDBRANCH  28  29
ENDBRANCH  27  28
ENDBRANCH  26  27
ENDBRANCH  25  26
ENDBRANCH  11  25
TORSDOF 11
