REMARK  Name = ZINC09460130
REMARK  6 active torsions:
REMARK  status: ('A' for Active; 'I' for Inactive)
REMARK    1  A    between atoms: C_1  and  C_2
REMARK    2  A    between atoms: C_2  and  O_3
REMARK    3  A    between atoms: O_3  and  C_4
REMARK    4  A    between atoms: C_7  and  C_10
REMARK    5  A    between atoms: C_12  and  C_15
REMARK    6  A    between atoms: C_15  and  N_16
REMARK                            x       y       z     vdW  Elec       q    Type
REMARK                         _______ _______ _______ _____ _____    ______ ____
ROOT
ATOM      1  N   UNL     1      -0.016   1.345   0.009  0.00  0.00    -0.218 N 
ATOM      2  C   UNL     1       0.002  -0.004   0.002  0.00  0.00    +0.252 C 
ATOM      3  O   UNL     1      -0.953  -0.751   0.007  0.00  0.00    -0.272 OA
ATOM      4  C   UNL     1       1.464  -0.387  -0.014  0.00  0.00    +0.144 C 
ATOM      5  C   UNL     1       1.792  -1.178  -1.277  0.00  0.00    +0.081 C 
ATOM      6  C   UNL     1       1.239  -2.601  -1.112  0.00  0.00    +0.232 C 
ATOM      7  O   UNL     1       1.921  -3.228  -0.025  0.00  0.00    -0.492 OA
ATOM      8  C   UNL     1       2.016  -2.549   1.148  0.00  0.00    +0.126 A 
ATOM      9  C   UNL     1       1.811  -1.180   1.215  0.00  0.00    +0.027 A 
ATOM     10  C   UNL     1       1.924  -0.526   2.429  0.00  0.00    +0.010 A 
ATOM     11  C   UNL     1       2.237  -1.232   3.575  0.00  0.00    +0.001 A 
ATOM     12  C   UNL     1       2.437  -2.598   3.513  0.00  0.00    +0.004 A 
ATOM     13  C   UNL     1       2.328  -3.256   2.304  0.00  0.00    +0.046 A 
ATOM     14  N   UNL     1       2.171   0.899  -0.014  0.00  0.00    -0.281 N 
ATOM     15  C   UNL     1       1.222   1.855   0.000  0.00  0.00    +0.310 C 
ATOM     16  O   UNL     1       1.462   3.046   0.004  0.00  0.00    -0.252 OA
ATOM     17  H   UNL     1       3.131   1.034  -0.023  0.00  0.00    +0.152 HD
ENDROOT
BRANCH   1  18
ATOM     18  C   UNL     1      -1.239   2.152   0.020  0.00  0.00    +0.174 C 
BRANCH  18  21
ATOM     19  C   UNL     1      -2.753   1.754   3.349  0.00  0.00    +0.109 A 
ATOM     20  N   UNL     1      -2.381   1.544   2.094  0.00  0.00    -0.242 NA
ATOM     21  C   UNL     1      -1.651   2.421   1.444  0.00  0.00    +0.067 A 
ATOM     22  C   UNL     1      -1.273   3.574   2.056  0.00  0.00    +0.072 A 
ATOM     23  S   UNL     1      -2.020   3.354   3.666  0.00  0.00    -0.075 S 
BRANCH  19  27
ATOM     24  C   UNL     1      -5.077  -0.704   5.920  0.00  0.00    +0.121 A 
ATOM     25  C   UNL     1      -4.600   0.518   6.375  0.00  0.00    +0.046 A 
ATOM     26  C   UNL     1      -3.846   1.318   5.544  0.00  0.00    +0.014 A 
ATOM     27  C   UNL     1      -3.562   0.899   4.244  0.00  0.00    +0.007 A 
ATOM     28  C   UNL     1      -4.048  -0.328   3.788  0.00  0.00    +0.014 A 
ATOM     29  C   UNL     1      -4.797  -1.125   4.627  0.00  0.00    +0.046 A 
BRANCH  24  30
ATOM     30  O   UNL     1      -5.820  -1.490   6.742  0.00  0.00    -0.492 OA
BRANCH  30  32
ATOM     31  C   UNL     1      -7.093  -3.475   7.273  0.00  0.00    +0.048 C 
ATOM     32  C   UNL     1      -6.279  -2.734   6.210  0.00  0.00    +0.225 C 
ENDBRANCH  30  32
ENDBRANCH  24  30
ENDBRANCH  19  27
ENDBRANCH  18  21
ENDBRANCH   1  18
TORSDOF 5
