REMARK  Name = ZINC40014086
REMARK  15 active torsions:
REMARK  status: ('A' for Active; 'I' for Inactive)
REMARK    1  A    between atoms: C_1  and  C_2
REMARK    2  A    between atoms: C_2  and  C_3
REMARK    3  A    between atoms: C_3  and  C_4
REMARK    4  A    between atoms: C_4  and  N_5
REMARK    5  A    between atoms: N_5  and  C_6
REMARK    6  A    between atoms: N_5  and  C_10
REMARK    7  A    between atoms: C_6  and  C_7
REMARK    8  A    between atoms: C_7  and  C_8
REMARK    9  A    between atoms: C_8  and  C_9
REMARK   10  A    between atoms: C_10  and  C_11
REMARK   11  A    between atoms: C_11  and  C_12
REMARK   12  A    between atoms: C_12  and  N_13
REMARK   13  A    between atoms: C_14  and  C_30
REMARK   14  A    between atoms: C_33  and  C_36
REMARK   15  A    between atoms: C_36  and  C_37
REMARK                            x       y       z     vdW  Elec       q    Type
REMARK                         _______ _______ _______ _____ _____    ______ ____
ROOT
ATOM      1  N   UNL     1       3.236  -6.486   5.001  0.00  0.00    -0.284 N 
ATOM      2  C   UNL     1       4.678  -6.553   5.288  0.00  0.00    +0.144 C 
ATOM      3  C   UNL     1       4.791  -7.072   6.684  0.00  0.00    +0.072 A 
ATOM      4  C   UNL     1       5.965  -7.361   7.515  0.00  0.00    +0.199 A 
ATOM      5  O   UNL     1       7.097  -7.035   7.207  0.00  0.00    -0.287 OA
ATOM      6  C   UNL     1       5.641  -8.087   8.769  0.00  0.00    +0.067 A 
ATOM      7  C   UNL     1       6.660  -8.607   9.567  0.00  0.00    +0.053 A 
ATOM      8  C   UNL     1       6.340  -9.284  10.725  0.00  0.00    +0.124 A 
ATOM      9  C   UNL     1       5.009  -9.444  11.092  0.00  0.00    +0.042 A 
ATOM     10  C   UNL     1       3.997  -8.933  10.313  0.00  0.00    +0.050 A 
ATOM     11  C   UNL     1       4.294  -8.243   9.138  0.00  0.00    +0.140 A 
ATOM     12  O   UNL     1       3.280  -7.742   8.397  0.00  0.00    -0.450 OA
ATOM     13  C   UNL     1       3.526  -7.279   7.156  0.00  0.00    +0.199 A 
ATOM     14  C   UNL     1       2.572  -6.906   6.097  0.00  0.00    +0.283 C 
ATOM     15  O   UNL     1       1.362  -6.971   6.196  0.00  0.00    -0.267 OA
ATOM     16  F   UNL     1       7.321  -9.791  11.503  0.00  0.00    -0.205 F 
ENDROOT
BRANCH   2  17
ATOM     17  C   UNL     1       5.292  -5.180   5.192  0.00  0.00    -0.022 A 
ATOM     18  C   UNL     1       4.612  -4.083   5.687  0.00  0.00    +0.006 A 
ATOM     19  C   UNL     1       5.175  -2.823   5.598  0.00  0.00    +0.004 A 
ATOM     20  C   UNL     1       6.418  -2.661   5.014  0.00  0.00    -0.048 A 
ATOM     21  C   UNL     1       7.098  -3.759   4.520  0.00  0.00    +0.004 A 
ATOM     22  C   UNL     1       6.537  -5.019   4.613  0.00  0.00    +0.006 A 
BRANCH  20  23
ATOM     23  C   UNL     1       7.031  -1.288   4.917  0.00  0.00    +0.032 C 
ATOM     24  C   UNL     1       7.866  -1.012   6.169  0.00  0.00    +0.009 C 
ENDBRANCH  20  23
ENDBRANCH   2  17
BRANCH   1  25
ATOM     25  C   UNL     1       2.628  -6.036   3.746  0.00  0.00    +0.107 C 
BRANCH  25  26
ATOM     26  C   UNL     1       2.386  -4.527   3.810  0.00  0.00    +0.000 C 
BRANCH  26  27
ATOM     27  C   UNL     1       1.751  -4.056   2.499  0.00  0.00    -0.077 C 
BRANCH  27  28
ATOM     28  N   UNL     1       1.401  -2.634   2.608  0.00  0.00    +0.380 N 
ATOM     29  H   UNL     1       0.812  -2.493   3.415  0.00  0.00    -0.082 HD
BRANCH  28  30
ATOM     30  C   UNL     1       2.627  -1.837   2.751  0.00  0.00    -0.079 C 
BRANCH  30  31
ATOM     31  C   UNL     1       2.258  -0.372   2.989  0.00  0.00    -0.019 C 
BRANCH  31  33
ATOM     32  C   UNL     1       3.167   1.924   3.376  0.00  0.00    +0.004 C 
ATOM     33  C   UNL     1       3.535   0.458   3.138  0.00  0.00    -0.005 C 
ENDBRANCH  31  33
ENDBRANCH  30  31
ENDBRANCH  28  30
BRANCH  28  34
ATOM     34  C   UNL     1       0.683  -2.213   1.397  0.00  0.00    -0.079 C 
BRANCH  34  35
ATOM     35  C   UNL     1      -0.668  -2.928   1.331  0.00  0.00    -0.019 C 
BRANCH  35  36
ATOM     36  C   UNL     1      -1.382  -2.551   0.032  0.00  0.00    -0.005 C 
ATOM     37  C   UNL     1      -2.733  -3.266  -0.034  0.00  0.00    +0.004 C 
ENDBRANCH  35  36
ENDBRANCH  34  35
ENDBRANCH  28  34
ENDBRANCH  27  28
ENDBRANCH  26  27
ENDBRANCH  25  26
ENDBRANCH   1  25
TORSDOF 12
