REMARK  Name = ZINC13499161
REMARK  12 active torsions:
REMARK  status: ('A' for Active; 'I' for Inactive)
REMARK    1  A    between atoms: C_1  and  C_2
REMARK    2  A    between atoms: C_7  and  C_15
REMARK    3  A    between atoms: C_13  and  C_14
REMARK    4  A    between atoms: C_15  and  N_69
REMARK    5  A    between atoms: C_16  and  N_69
REMARK    6  A    between atoms: C_21  and  C_23
REMARK    7  A    between atoms: C_21  and  C_34
REMARK    8  A    between atoms: C_21  and  N_69
REMARK    9  A    between atoms: N_27  and  C_28
REMARK   10  A    between atoms: C_28  and  C_29
REMARK   11  A    between atoms: C_34  and  C_35
REMARK   12  A    between atoms: C_34  and  C_36
REMARK                            x       y       z     vdW  Elec       q    Type
REMARK                         _______ _______ _______ _____ _____    ______ ____
ROOT
ATOM      1  N   UNL     1       2.715  -4.664  -1.215  0.00  0.00    +0.391 N 
ATOM      2  H   UNL     1       2.067  -4.184  -1.850  0.00  0.00    -0.080 HD
ENDROOT
BRANCH   1   3
ATOM      3  C   UNL     1       4.088  -4.179  -1.472  0.00  0.00    -0.067 C 
ATOM      4  C   UNL     1       5.124  -4.997  -0.674  0.00  0.00    -0.015 C 
ATOM      5  C   UNL     1       6.187  -3.951  -0.251  0.00  0.00    -0.002 C 
ATOM      6  C   UNL     1       5.330  -2.702   0.070  0.00  0.00    -0.002 C 
ATOM      7  C   UNL     1       4.219  -2.720  -1.000  0.00  0.00    -0.015 C 
ENDBRANCH   1   3
BRANCH   1   8
ATOM      8  C   UNL     1       2.328  -4.367   0.180  0.00  0.00    -0.036 C 
BRANCH   8  15
ATOM      9  C   UNL     1       7.020  -8.037   5.485  0.00  0.00    +0.044 C 
ATOM     10  C   UNL     1       6.253  -7.150   4.538  0.00  0.00    -0.046 A 
ATOM     11  C   UNL     1       6.570  -5.801   4.451  0.00  0.00    +0.004 A 
ATOM     12  C   UNL     1       5.888  -4.981   3.598  0.00  0.00    +0.010 A 
ATOM     13  C   UNL     1       4.860  -5.503   2.806  0.00  0.00    -0.001 A 
ATOM     14  C   UNL     1       4.107  -4.652   1.883  0.00  0.00    +0.017 A 
ATOM     15  C   UNL     1       3.122  -5.215   1.141  0.00  0.00    +0.001 A 
ATOM     16  C   UNL     1       2.837  -6.592   1.264  0.00  0.00    +0.251 A 
ATOM     17  O   UNL     1       1.947  -7.077   0.587  0.00  0.00    -0.268 OA
ATOM     18  N   UNL     1       3.522  -7.381   2.110  0.00  0.00    -0.322 N 
ATOM     19  H   UNL     1       3.300  -8.323   2.169  0.00  0.00    +0.169 HD
ATOM     20  C   UNL     1       4.536  -6.871   2.892  0.00  0.00    +0.052 A 
ATOM     21  C   UNL     1       5.245  -7.687   3.767  0.00  0.00    -0.024 A 
ATOM     22  C   UNL     1       4.911  -9.153   3.872  0.00  0.00    +0.046 C 
ENDBRANCH   8  15
ENDBRANCH   1   8
BRANCH   1  23
ATOM     23  C   UNL     1       2.639  -6.119  -1.461  0.00  0.00    +0.006 C 
BRANCH  23  24
ATOM     24  C   UNL     1       3.542  -6.479  -2.613  0.00  0.00    +0.139 A 
ATOM     25  N   UNL     1       3.696  -5.805  -3.727  0.00  0.00    -0.115 NA
ATOM     26  N   UNL     1       4.553  -6.433  -4.456  0.00  0.00    -0.023 NA
ATOM     27  N   UNL     1       4.944  -7.494  -3.840  0.00  0.00    -0.044 NA
ATOM     28  N   UNL     1       4.343  -7.558  -2.700  0.00  0.00    -0.223 N 
BRANCH  28  29
ATOM     29  C   UNL     1       4.502  -8.607  -1.690  0.00  0.00    +0.221 C 
BRANCH  29  30
ATOM     30  C   UNL     1       3.500  -9.703  -1.942  0.00  0.00    +0.126 A 
ATOM     31  C   UNL     1       3.693 -10.783  -2.721  0.00  0.00    +0.046 A 
ATOM     32  C   UNL     1       2.503 -11.543  -2.671  0.00  0.00    +0.041 A 
ATOM     33  C   UNL     1       1.650 -10.879  -1.870  0.00  0.00    +0.195 A 
ATOM     34  O   UNL     1       2.259  -9.765  -1.432  0.00  0.00    -0.466 OA
ENDBRANCH  29  30
ENDBRANCH  28  29
ENDBRANCH  23  24
BRANCH  23  35
ATOM     35  C   UNL     1       1.195  -6.480  -1.814  0.00  0.00    -0.024 C 
ATOM     36  C   UNL     1       0.246  -5.833  -0.802  0.00  0.00    +0.006 C 
ATOM     37  C   UNL     1       0.870  -5.967  -3.218  0.00  0.00    +0.006 C 
ENDBRANCH  23  35
ENDBRANCH   1  23
TORSDOF 8
