REMARK  Name = ZINC54444801
REMARK  10 active torsions:
REMARK  status: ('A' for Active; 'I' for Inactive)
REMARK    1  A    between atoms: C_1  and  C_2
REMARK    2  A    between atoms: N_7  and  C_9
REMARK    3  A    between atoms: C_9  and  C_10
REMARK    4  A    between atoms: C_9  and  C_11
REMARK    5  A    between atoms: C_9  and  C_12
REMARK    6  A    between atoms: C_12  and  N_13
REMARK    7  A    between atoms: N_16  and  C_17
REMARK    8  A    between atoms: C_22  and  C_23
REMARK    9  A    between atoms: N_25  and  C_26
REMARK   10  A    between atoms: N_25  and  C_27
REMARK                            x       y       z     vdW  Elec       q    Type
REMARK                         _______ _______ _______ _____ _____    ______ ____
ROOT
ATOM      1  N   UNL     1       2.116  -4.449   1.169  0.00  0.00    -0.300 N 
ATOM      2  C   UNL     1       2.210  -5.738   0.787  0.00  0.00    +0.304 C 
ATOM      3  O   UNL     1       1.605  -6.598   1.397  0.00  0.00    -0.253 OA
ATOM      4  N   UNL     1       2.975  -6.073  -0.271  0.00  0.00    -0.269 N 
ATOM      5  H   UNL     1       2.599  -3.763   0.683  0.00  0.00    +0.150 HD
ATOM      6  H   UNL     1       3.398  -5.381  -0.802  0.00  0.00    +0.156 HD
ENDROOT
BRANCH   4   7
ATOM      7  C   UNL     1       3.157  -7.414  -0.601  0.00  0.00    +0.048 A 
ATOM      8  C   UNL     1       3.014  -8.397   0.368  0.00  0.00    +0.044 A 
ATOM      9  C   UNL     1       3.196  -9.726   0.038  0.00  0.00    +0.043 A 
ATOM     10  C   UNL     1       3.522 -10.088  -1.260  0.00  0.00    +0.021 A 
ATOM     11  C   UNL     1       3.668  -9.126  -2.235  0.00  0.00    +0.016 A 
ATOM     12  C   UNL     1       3.481  -7.778  -1.917  0.00  0.00    +0.058 A 
ATOM     13 CL   UNL     1       3.015 -10.950   1.256  0.00  0.00    -0.083 Cl
BRANCH  12  14
ATOM     14  C   UNL     1       3.629  -6.744  -2.957  0.00  0.00    +0.248 C 
ATOM     15  O   UNL     1       2.732  -5.946  -3.154  0.00  0.00    -0.270 OA
ATOM     16  N   UNL     1       4.758  -6.682  -3.690  0.00  0.00    -0.304 N 
ATOM     17  C   UNL     1       4.947  -5.595  -4.654  0.00  0.00    +0.132 C 
ATOM     18  C   UNL     1       5.796  -7.702  -3.524  0.00  0.00    +0.132 C 
ENDBRANCH  12  14
ENDBRANCH   4   7
BRANCH   1  19
ATOM     19  C   UNL     1       1.286  -4.085   2.320  0.00  0.00    +0.093 C 
BRANCH  19  20
ATOM     20  C   UNL     1       1.256  -2.562   2.465  0.00  0.00    -0.055 C 
ATOM     21  C   UNL     1       0.450  -2.184   3.710  0.00  0.00    -0.008 C 
ATOM     22  C   UNL     1       0.602  -1.944   1.227  0.00  0.00    -0.008 C 
BRANCH  20  28
ATOM     23  C   UNL     1       4.012   1.476   2.723  0.00  0.00    +0.005 C 
ATOM     24  C   UNL     1       4.039  -0.054   2.687  0.00  0.00    -0.031 C 
ATOM     25  C   UNL     1       4.726  -0.583   3.949  0.00  0.00    -0.001 C 
ATOM     26  C   UNL     1       4.677  -2.114   3.941  0.00  0.00    -0.018 C 
ATOM     27  C   UNL     1       3.221  -2.572   3.837  0.00  0.00    -0.078 C 
ATOM     28  N   UNL     1       2.628  -2.055   2.598  0.00  0.00    +0.384 N 
ATOM     29  C   UNL     1       2.606  -0.588   2.629  0.00  0.00    -0.075 C 
ATOM     30  H   UNL     1       3.176  -2.365   1.810  0.00  0.00    -0.081 HD
ENDBRANCH  20  28
ENDBRANCH  19  20
ENDBRANCH   1  19
TORSDOF 5
