REMARK  Name = ZINC27598009
REMARK  6 active torsions:
REMARK  status: ('A' for Active; 'I' for Inactive)
REMARK    1  A    between atoms: C_1  and  C_2
REMARK    2  A    between atoms: C_5  and  S_9
REMARK    3  A    between atoms: C_6  and  C_8
REMARK    4  A    between atoms: S_9  and  N_12
REMARK    5  A    between atoms: N_12  and  C_13
REMARK    6  A    between atoms: C_15  and  C_20
REMARK                            x       y       z     vdW  Elec       q    Type
REMARK                         _______ _______ _______ _____ _____    ______ ____
ROOT
ATOM      1  N   UNL     1      -0.123   0.871  -0.053  0.00  0.00    -0.215 N 
ATOM      2  H   UNL     1      -0.175  -0.197   0.204  0.00  0.00    +0.174 HD
ENDROOT
BRANCH   1   3
ATOM      3  C   UNL     1       1.115   1.471  -0.302  0.00  0.00    +0.067 A 
ATOM      4  C   UNL     1       1.341   2.781   0.088  0.00  0.00    +0.039 A 
ATOM      5  C   UNL     1       2.579   3.375  -0.163  0.00  0.00    +0.038 A 
ATOM      6  C   UNL     1       3.581   2.646  -0.805  0.00  0.00    +0.014 A 
ATOM      7  C   UNL     1       3.347   1.342  -1.190  0.00  0.00    +0.022 A 
ATOM      8  C   UNL     1       2.122   0.750  -0.936  0.00  0.00    +0.063 A 
ATOM      9 CL   UNL     1       1.838  -0.893  -1.418  0.00  0.00    -0.082 Cl
BRANCH   5  10
ATOM     10  C   UNL     1       2.828   4.772   0.250  0.00  0.00    +0.242 C 
ATOM     11  O   UNL     1       1.954   5.406   0.809  0.00  0.00    -0.270 OA
ATOM     12  N   UNL     1       4.024   5.344   0.007  0.00  0.00    -0.325 N 
ATOM     13  H   UNL     1       4.209   6.384   0.314  0.00  0.00    +0.145 HD
ATOM     14  H   UNL     1       4.814   4.771  -0.499  0.00  0.00    +0.145 HD
ENDBRANCH   5  10
ENDBRANCH   1   3
BRANCH   1  15
ATOM     15  S   UNL     1      -1.512   1.769  -0.144  0.00  0.00    +0.073 S 
ATOM     16  O   UNL     1      -2.593   0.862   0.016  0.00  0.00    -0.150 OA
ATOM     17  O   UNL     1      -1.326   2.891   0.708  0.00  0.00    -0.150 OA
BRANCH  15  22
ATOM     18  C   UNL     1      -1.878   3.918  -5.770  0.00  0.00    +0.044 C 
ATOM     19  C   UNL     1      -1.787   3.381  -4.365  0.00  0.00    -0.050 A 
ATOM     20  C   UNL     1      -1.637   4.252  -3.301  0.00  0.00    +0.005 A 
ATOM     21  C   UNL     1      -1.554   3.759  -2.012  0.00  0.00    +0.029 A 
ATOM     22  C   UNL     1      -1.619   2.397  -1.787  0.00  0.00    +0.111 A 
ATOM     23  C   UNL     1      -1.764   1.527  -2.851  0.00  0.00    -0.024 A 
ATOM     24  C   UNL     1      -1.853   2.019  -4.140  0.00  0.00    +0.008 A 
ATOM     25  C   UNL     1      -1.829   0.041  -2.606  0.00  0.00    +0.046 C 
ENDBRANCH  15  22
ENDBRANCH   1  15
TORSDOF 4
