REMARK  Name = ZINC45723702
REMARK  3 active torsions:
REMARK  status: ('A' for Active; 'I' for Inactive)
REMARK    1  A    between atoms: C_1  and  C_2
REMARK    2  A    between atoms: C_4  and  N_9
REMARK    3  A    between atoms: N_9  and  C_10
REMARK                            x       y       z     vdW  Elec       q    Type
REMARK                         _______ _______ _______ _____ _____    ______ ____
ROOT
ATOM      1  N   UNL     1       0.030  -2.826  -2.330  0.00  0.00    -0.322 N 
ATOM      2  H   UNL     1       0.043  -3.795  -2.296  0.00  0.00    +0.148 HD
ENDROOT
BRANCH   1   6
ATOM      3  C   UNL     1      -0.018   1.503   0.010  0.00  0.00    +0.066 C 
ATOM      4  C   UNL     1       0.002  -0.004   0.002  0.00  0.00    +0.045 A 
ATOM      5  C   UNL     1       0.006  -0.696  -1.194  0.00  0.00    +0.066 A 
ATOM      6  C   UNL     1       0.026  -2.091  -1.156  0.00  0.00    +0.124 A 
ATOM      7  N   UNL     1       0.040  -2.705   0.023  0.00  0.00    -0.200 NA
ATOM      8  C   UNL     1       0.035  -2.005   1.148  0.00  0.00    +0.214 A 
ATOM      9  N   UNL     1       0.022  -0.680   1.141  0.00  0.00    -0.220 NA
ATOM     10  N   UNL     1       0.051  -2.674   2.359  0.00  0.00    -0.327 N 
ATOM     11  H   UNL     1       0.064  -3.643   2.377  0.00  0.00    +0.145 HD
ATOM     12  H   UNL     1       0.048  -2.173   3.190  0.00  0.00    +0.145 HD
ENDBRANCH   1   6
BRANCH   1  13
ATOM     13  C   UNL     1       0.013  -2.139  -3.624  0.00  0.00    +0.102 C 
ATOM     14  C   UNL     1      -0.601  -3.061  -4.676  0.00  0.00    +0.027 C 
ATOM     15  C   UNL     1      -0.411  -2.416  -6.054  0.00  0.00    +0.007 C 
ATOM     16  C   UNL     1       1.073  -2.469  -6.410  0.00  0.00    +0.035 C 
ATOM     17  C   UNL     1       1.907  -1.912  -5.286  0.00  0.00    -0.042 A 
ATOM     18  C   UNL     1       1.422  -1.766  -4.006  0.00  0.00    -0.024 A 
ATOM     19  C   UNL     1       2.246  -1.252  -3.013  0.00  0.00    +0.006 A 
ATOM     20  C   UNL     1       3.545  -0.887  -3.300  0.00  0.00    +0.000 A 
ATOM     21  C   UNL     1       4.031  -1.032  -4.586  0.00  0.00    +0.000 A 
ATOM     22  C   UNL     1       3.214  -1.541  -5.573  0.00  0.00    +0.004 A 
ENDBRANCH   1  13
TORSDOF 2
