REMARK  Name = ZINC03304487
REMARK  5 active torsions:
REMARK  status: ('A' for Active; 'I' for Inactive)
REMARK    1  A    between atoms: C_1  and  C_2
REMARK    2  A    between atoms: N_5  and  S_8
REMARK    3  A    between atoms: S_8  and  C_11
REMARK    4  A    between atoms: C_13  and  C_18
REMARK    5  A    between atoms: N_20  and  C_21
REMARK                            x       y       z     vdW  Elec       q    Type
REMARK                         _______ _______ _______ _____ _____    ______ ____
ROOT
ATOM      1  C   UNL     1       1.156   3.977   0.012  0.00  0.00    +0.107 A 
ATOM      2  C   UNL     1      -0.042   4.661   0.028  0.00  0.00    +0.041 A 
ATOM      3  C   UNL     1      -1.246   3.955   0.035  0.00  0.00    +0.040 A 
ATOM      4  C   UNL     1      -1.229   2.559   0.022  0.00  0.00    +0.028 A 
ATOM      5  C   UNL     1      -0.024   1.887   0.012  0.00  0.00    +0.020 A 
ATOM      6  C   UNL     1       1.167   2.594   0.005  0.00  0.00    +0.043 A 
ATOM      7 BR   UNL     1       0.002  -0.004   0.002  0.00  0.00    -0.050 Br
ENDROOT
BRANCH   3   8
ATOM      8  C   UNL     1      -2.533   4.682   0.051  0.00  0.00    +0.244 C 
ATOM      9  O   UNL     1      -2.544   5.897   0.057  0.00  0.00    -0.270 OA
ATOM     10  N   UNL     1      -3.693   3.997   0.058  0.00  0.00    -0.314 N 
ATOM     11  C   UNL     1      -4.969   4.717   0.074  0.00  0.00    +0.128 C 
ATOM     12  H   UNL     1      -3.684   3.027   0.053  0.00  0.00    +0.149 HD
ENDBRANCH   3   8
BRANCH   1  13
ATOM     13  S   UNL     1       2.677   4.868   0.003  0.00  0.00    +0.061 S 
ATOM     14  O   UNL     1       2.403   6.144   0.564  0.00  0.00    -0.153 OA
ATOM     15  O   UNL     1       3.662   3.995   0.540  0.00  0.00    -0.153 OA
BRANCH  13  20
ATOM     16  C   UNL     1       5.813   6.752  -4.411  0.00  0.00    +0.007 C 
ATOM     17  C   UNL     1       4.616   6.044  -3.774  0.00  0.00    -0.012 C 
ATOM     18  C   UNL     1       3.847   7.033  -2.895  0.00  0.00    +0.020 C 
ATOM     19  C   UNL     1       2.630   6.330  -2.286  0.00  0.00    +0.110 C 
ATOM     20  N   UNL     1       3.085   5.124  -1.581  0.00  0.00    -0.177 NA
ATOM     21  C   UNL     1       3.913   4.151  -2.307  0.00  0.00    +0.110 C 
ATOM     22  C   UNL     1       5.111   4.876  -2.918  0.00  0.00    +0.020 C 
ENDBRANCH  13  20
ENDBRANCH   1  13
TORSDOF 3
