REMARK  Name = ZINC11936797
REMARK  9 active torsions:
REMARK  status: ('A' for Active; 'I' for Inactive)
REMARK    1  A    between atoms: C_1  and  C_2
REMARK    2  A    between atoms: C_9  and  C_25
REMARK    3  A    between atoms: C_10  and  C_11
REMARK    4  A    between atoms: C_11  and  N_66
REMARK    5  A    between atoms: C_12  and  C_13
REMARK    6  A    between atoms: C_12  and  N_66
REMARK    7  A    between atoms: C_13  and  C_14
REMARK    8  A    between atoms: C_22  and  C_23
REMARK    9  A    between atoms: C_22  and  C_24
REMARK                            x       y       z     vdW  Elec       q    Type
REMARK                         _______ _______ _______ _____ _____    ______ ____
ROOT
ATOM      1  C   UNL     1      -2.396  -0.532  -0.783  0.00  0.00    +0.047 C 
ATOM      2  C   UNL     1      -0.987  -0.967  -0.470  0.00  0.00    -0.008 A 
ATOM      3  C   UNL     1      -0.681  -2.288  -0.374  0.00  0.00    +0.008 A 
ATOM      4  C   UNL     1       0.637  -2.679  -0.081  0.00  0.00    +0.018 A 
ATOM      5  C   UNL     1       1.598  -1.751   0.104  0.00  0.00    +0.093 A 
ATOM      6  N   UNL     1       1.307  -0.419   0.011  0.00  0.00    -0.304 N 
ATOM      7  C   UNL     1       0.029  -0.006  -0.274  0.00  0.00    +0.141 A 
ATOM      8  N   UNL     1       0.015   1.316  -0.307  0.00  0.00    -0.223 NA
ATOM      9  C   UNL     1       1.255   1.774  -0.051  0.00  0.00    +0.146 A 
ATOM     10  C   UNL     1       2.073   0.699   0.150  0.00  0.00    +0.039 A 
ENDROOT
BRANCH   9  11
ATOM     11  C   UNL     1       1.660   3.192   0.003  0.00  0.00    +0.267 C 
ATOM     12  O   UNL     1       2.834   3.485   0.126  0.00  0.00    -0.268 OA
ATOM     13  N   UNL     1       0.729   4.163  -0.085  0.00  0.00    -0.296 N 
ATOM     14  C   UNL     1      -0.702   3.830  -0.080  0.00  0.00    +0.108 C 
ATOM     15  C   UNL     1      -1.390   4.647   1.024  0.00  0.00    +0.019 C 
ATOM     16  C   UNL     1      -1.091   6.133   0.812  0.00  0.00    +0.003 C 
ATOM     17  C   UNL     1       0.418   6.370   0.907  0.00  0.00    +0.019 C 
ATOM     18  C   UNL     1       1.126   5.573  -0.193  0.00  0.00    +0.108 C 
ENDBRANCH   9  11
BRANCH  10  19
ATOM     19  C   UNL     1       3.546   0.741   0.466  0.00  0.00    -0.025 C 
BRANCH  19  20
ATOM     20  N   UNL     1       4.312   0.722  -0.794  0.00  0.00    +0.383 N 
ATOM     21  H   UNL     1       4.053   1.540  -1.360  0.00  0.00    -0.085 HD
ATOM     22  H   UNL     1       4.091  -0.136  -1.312  0.00  0.00    -0.085 HD
BRANCH  20  23
ATOM     23  C   UNL     1       5.759   0.763  -0.514  0.00  0.00    -0.078 C 
BRANCH  23  24
ATOM     24  C   UNL     1       6.527   0.743  -1.838  0.00  0.00    +0.012 C 
BRANCH  24  25
ATOM     25  C   UNL     1       8.007   0.784  -1.561  0.00  0.00    -0.072 C 
ATOM     26  C   UNL     1       8.720  -0.317  -1.494  0.00  0.00    -0.027 C 
ATOM     27  C   UNL     1      10.203  -0.232  -1.227  0.00  0.00    +0.031 C 
ATOM     28  C   UNL     1      10.601   1.231  -0.985  0.00  0.00    -0.000 C 
ATOM     29  C   UNL     1      10.065   2.139  -2.111  0.00  0.00    +0.012 C 
ATOM     30  C   UNL     1       8.732   2.100  -1.341  0.00  0.00    +0.021 C 
ATOM     31  C   UNL     1       9.612   1.976  -0.072  0.00  0.00    -0.025 C 
ATOM     32  C   UNL     1      10.138   3.313   0.451  0.00  0.00    +0.012 C 
ATOM     33  C   UNL     1       8.999   1.100   1.022  0.00  0.00    +0.012 C 
ENDBRANCH  24  25
ENDBRANCH  23  24
ENDBRANCH  20  23
ENDBRANCH  19  20
ENDBRANCH  10  19
TORSDOF 6
