REMARK  Name = ZINC49622875
REMARK  6 active torsions:
REMARK  status: ('A' for Active; 'I' for Inactive)
REMARK    1  A    between atoms: C_1  and  C_2
REMARK    2  A    between atoms: C_5  and  C_8
REMARK    3  A    between atoms: C_10  and  C_18
REMARK    4  A    between atoms: C_18  and  N_20
REMARK    5  A    between atoms: N_27  and  C_30
REMARK    6  A    between atoms: C_30  and  C_31
REMARK                            x       y       z     vdW  Elec       q    Type
REMARK                         _______ _______ _______ _____ _____    ______ ____
ROOT
ATOM      1  C   UNL     1       0.096  -7.095   2.469  0.00  0.00    +0.270 C 
ATOM      2  O   UNL     1       0.019  -8.312   2.450  0.00  0.00    -0.268 OA
ENDROOT
BRANCH   1   3
ATOM      3  N   UNL     1       0.190  -6.451   3.634  0.00  0.00    -0.152 NA
ATOM      4  C   UNL     1       0.199  -7.138   4.776  0.00  0.00    +0.164 A 
ATOM      5  N   UNL     1       0.129  -8.485   4.952  0.00  0.00    -0.339 N 
ATOM      6  C   UNL     1       0.154  -9.002   6.217  0.00  0.00    +0.024 A 
ATOM      7  C   UNL     1       0.248  -8.096   7.206  0.00  0.00    -0.004 A 
ATOM      8  S   UNL     1       0.309  -6.549   6.349  0.00  0.00    -0.059 S 
ATOM      9  C   UNL     1       0.292  -8.374   8.672  0.00  0.00    -0.033 C 
ATOM     10  N   UNL     1      -0.159  -9.761   8.896  0.00  0.00    +0.386 N 
ATOM     11  C   UNL     1       0.574 -10.664   7.998  0.00  0.00    -0.072 C 
ATOM     12  C   UNL     1       0.088 -10.486   6.556  0.00  0.00    +0.035 C 
ATOM     13  H   UNL     1       0.061  -9.075   4.185  0.00  0.00    +0.167 HD
ATOM     14  H   UNL     1      -1.147  -9.828   8.707  0.00  0.00    -0.081 HD
BRANCH  10  15
ATOM     15  C   UNL     1       0.101 -10.141  10.291  0.00  0.00    -0.043 C 
BRANCH  15  16
ATOM     16  C   UNL     1      -0.745  -9.294  11.207  0.00  0.00    -0.064 A 
ATOM     17  C   UNL     1      -0.258  -8.091  11.682  0.00  0.00    +0.002 A 
ATOM     18  C   UNL     1      -1.034  -7.314  12.522  0.00  0.00    +0.000 A 
ATOM     19  C   UNL     1      -2.296  -7.742  12.888  0.00  0.00    +0.000 A 
ATOM     20  C   UNL     1      -2.784  -8.945  12.413  0.00  0.00    +0.000 A 
ATOM     21  C   UNL     1      -2.010  -9.719  11.569  0.00  0.00    +0.002 A 
ENDBRANCH  15  16
ENDBRANCH  10  15
ENDBRANCH   1   3
BRANCH   1  24
ATOM     22  C   UNL     1       0.041  -4.255  -0.021  0.00  0.00    +0.072 A 
ATOM     23  C   UNL     1       0.050  -4.947   1.200  0.00  0.00    +0.042 A 
ATOM     24  C   UNL     1       0.085  -6.331   1.200  0.00  0.00    +0.050 A 
ATOM     25  C   UNL     1       0.111  -6.996  -0.054  0.00  0.00    +0.013 A 
ATOM     26  C   UNL     1       0.146  -8.394  -0.134  0.00  0.00    +0.011 A 
ATOM     27  C   UNL     1       0.169  -8.999  -1.355  0.00  0.00    +0.001 A 
ATOM     28  C   UNL     1       0.159  -8.245  -2.526  0.00  0.00    +0.002 A 
ATOM     29  C   UNL     1       0.125  -6.885  -2.485  0.00  0.00    +0.028 A 
ATOM     30  C   UNL     1       0.100  -6.225  -1.242  0.00  0.00    +0.072 A 
ATOM     31  N   UNL     1       0.060  -4.892  -1.176  0.00  0.00    -0.247 NA
BRANCH  22  36
ATOM     32  C   UNL     1      -0.108   1.501   0.010  0.00  0.00    +0.044 C 
ATOM     33  C   UNL     1      -0.069  -0.005   0.002  0.00  0.00    -0.050 A 
ATOM     34  C   UNL     1      -0.047  -0.688  -1.202  0.00  0.00    +0.004 A 
ATOM     35  C   UNL     1      -0.011  -2.067  -1.215  0.00  0.00    +0.010 A 
ATOM     36  C   UNL     1       0.004  -2.773  -0.013  0.00  0.00    +0.000 A 
ATOM     37  C   UNL     1      -0.018  -2.080   1.196  0.00  0.00    +0.010 A 
ATOM     38  C   UNL     1      -0.048  -0.701   1.198  0.00  0.00    +0.004 A 
ENDBRANCH  22  36
ENDBRANCH   1  24
TORSDOF 5
