REMARK  Name = ZINC50443324
REMARK  6 active torsions:
REMARK  status: ('A' for Active; 'I' for Inactive)
REMARK    1  A    between atoms: C_1  and  C_2
REMARK    2  A    between atoms: C_2  and  C_3
REMARK    3  A    between atoms: C_3  and  C_19
REMARK    4  A    between atoms: N_6  and  C_10
REMARK    5  A    between atoms: C_10  and  C_11
REMARK    6  A    between atoms: C_16  and  N_17
REMARK                            x       y       z     vdW  Elec       q    Type
REMARK                         _______ _______ _______ _____ _____    ______ ____
ROOT
ATOM      1  C   UNL     1       0.743  -0.520  -1.240  0.00  0.00    +0.110 C 
ATOM      2  C   UNL     1       0.577  -2.017  -1.410  0.00  0.00    +0.247 C 
ATOM      3  O   UNL     1       0.968  -2.887  -0.662  0.00  0.00    -0.273 OA
ATOM      4  N   UNL     1      -0.095  -2.180  -2.567  0.00  0.00    -0.220 N 
ATOM      5  C   UNL     1      -0.375  -1.006  -3.145  0.00  0.00    +0.310 C 
ATOM      6  O   UNL     1      -0.974  -0.896  -4.196  0.00  0.00    -0.252 OA
ATOM      7  N   UNL     1       0.082   0.040  -2.432  0.00  0.00    -0.285 N 
ATOM      8  C   UNL     1       2.224  -0.138  -1.216  0.00  0.00    +0.041 C 
ATOM      9  H   UNL     1      -0.006   0.979  -2.659  0.00  0.00    +0.151 HD
ENDROOT
BRANCH   1  11
ATOM     10  C   UNL     1       0.025   1.487   0.064  0.00  0.00    +0.006 C 
ATOM     11  C   UNL     1       0.045  -0.043   0.036  0.00  0.00    +0.031 C 
ENDBRANCH   1  11
BRANCH   4  12
ATOM     12  C   UNL     1      -0.473  -3.482  -3.123  0.00  0.00    +0.155 C 
BRANCH  12  13
ATOM     13  C   UNL     1      -1.783  -3.923  -2.523  0.00  0.00    -0.009 A 
ATOM     14  C   UNL     1      -2.483  -3.073  -1.690  0.00  0.00    +0.008 A 
ATOM     15  C   UNL     1      -3.685  -3.477  -1.139  0.00  0.00    +0.020 A 
ATOM     16  C   UNL     1      -4.190  -4.734  -1.419  0.00  0.00    +0.043 A 
ATOM     17  C   UNL     1      -3.494  -5.590  -2.252  0.00  0.00    +0.043 A 
ATOM     18  C   UNL     1      -2.289  -5.184  -2.812  0.00  0.00    +0.031 A 
ATOM     19 CL   UNL     1      -5.700  -5.237  -0.725  0.00  0.00    -0.083 Cl
BRANCH  18  20
ATOM     20  N   UNL     1      -1.586  -6.043  -3.659  0.00  0.00    -0.358 N 
ATOM     21  H   UNL     1      -0.709  -5.791  -3.987  0.00  0.00    +0.142 HD
ATOM     22  H   UNL     1      -1.975  -6.893  -3.920  0.00  0.00    +0.142 HD
ENDBRANCH  18  20
ENDBRANCH  12  13
ENDBRANCH   4  12
TORSDOF 4
