REMARK  Name = ZINC13098012
REMARK  13 active torsions:
REMARK  status: ('A' for Active; 'I' for Inactive)
REMARK    1  A    between atoms: C_1  and  C_2
REMARK    2  A    between atoms: C_2  and  O_3
REMARK    3  A    between atoms: O_3  and  C_4
REMARK    4  A    between atoms: C_4  and  C_6
REMARK    5  A    between atoms: C_7  and  C_25
REMARK    6  A    between atoms: C_10  and  N_11
REMARK    7  A    between atoms: C_12  and  C_14
REMARK    8  A    between atoms: C_14  and  N_66
REMARK    9  A    between atoms: C_17  and  C_20
REMARK   10  A    between atoms: N_22  and  C_23
REMARK   11  A    between atoms: N_22  and  C_24
REMARK   12  A    between atoms: C_28  and  C_32
REMARK   13  A    between atoms: C_30  and  C_31
REMARK                            x       y       z     vdW  Elec       q    Type
REMARK                         _______ _______ _______ _____ _____    ______ ____
ROOT
ATOM      1  C   UNL     1       0.317   1.054  -0.794  0.00  0.00    +0.095 A 
ATOM      2  C   UNL     1       0.423  -0.378  -1.002  0.00  0.00    +0.005 A 
ATOM      3  C   UNL     1       1.676  -0.888  -1.106  0.00  0.00    +0.056 A 
ATOM      4  S   UNL     1       2.719   0.544  -0.925  0.00  0.00    -0.080 S 
ATOM      5  C   UNL     1       1.508   1.764  -0.721  0.00  0.00    +0.086 A 
ENDROOT
BRANCH   2   6
ATOM      6  C   UNL     1      -0.779  -1.240  -1.098  0.00  0.00    -0.014 A 
ATOM      7  C   UNL     1      -1.492  -1.577   0.051  0.00  0.00    +0.009 A 
ATOM      8  C   UNL     1      -2.610  -2.380  -0.044  0.00  0.00    +0.004 A 
ATOM      9  C   UNL     1      -3.024  -2.850  -1.278  0.00  0.00    -0.050 A 
ATOM     10  C   UNL     1      -2.321  -2.519  -2.422  0.00  0.00    +0.007 A 
ATOM     11  C   UNL     1      -1.204  -1.713  -2.339  0.00  0.00    -0.042 A 
ATOM     12  C   UNL     1      -0.442  -1.348  -3.587  0.00  0.00    +0.044 C 
ATOM     13  C   UNL     1      -4.246  -3.727  -1.375  0.00  0.00    +0.044 C 
ENDBRANCH   2   6
BRANCH   5  14
ATOM     14  N   UNL     1       1.686   3.125  -0.529  0.00  0.00    -0.281 N 
ATOM     15  C   UNL     1       2.929   3.643  -0.485  0.00  0.00    +0.201 C 
ATOM     16  O   UNL     1       3.893   2.918  -0.611  0.00  0.00    -0.278 OA
ATOM     17  H   UNL     1       0.915   3.705  -0.428  0.00  0.00    +0.155 HD
BRANCH  15  18
ATOM     18  C   UNL     1       3.122   5.123  -0.277  0.00  0.00    +0.019 C 
BRANCH  18  24
ATOM     19  C   UNL     1       4.808   6.856  -0.158  0.00  0.00    -0.077 C 
ATOM     20  C   UNL     1       6.317   7.110  -0.123  0.00  0.00    -0.006 C 
ATOM     21  C   UNL     1       6.900   6.516   1.162  0.00  0.00    +0.072 C 
ATOM     22  C   UNL     1       6.578   5.020   1.215  0.00  0.00    -0.006 C 
ATOM     23  C   UNL     1       5.062   4.826   1.141  0.00  0.00    -0.077 C 
ATOM     24  N   UNL     1       4.566   5.398  -0.129  0.00  0.00    +0.385 N 
ATOM     25  H   UNL     1       5.071   4.961  -0.910  0.00  0.00    -0.081 HD
BRANCH  21  26
ATOM     26  C   UNL     1       8.394   6.710   1.174  0.00  0.00    +0.218 C 
ATOM     27  O   UNL     1       9.115   5.906   0.622  0.00  0.00    -0.275 OA
ATOM     28  N   UNL     1       8.930   7.777   1.799  0.00  0.00    -0.307 N 
ATOM     29  C   UNL     1      10.371   8.027   1.716  0.00  0.00    +0.131 C 
ATOM     30  C   UNL     1       8.071   8.688   2.561  0.00  0.00    +0.131 C 
ENDBRANCH  21  26
ENDBRANCH  18  24
ENDBRANCH  15  18
ENDBRANCH   5  14
BRANCH   1  31
ATOM     31  C   UNL     1      -0.981   1.718  -0.674  0.00  0.00    +0.342 C 
ATOM     32  O   UNL     1      -1.539   1.771   0.406  0.00  0.00    -0.245 OA
BRANCH  31  33
ATOM     33  O   UNL     1      -1.558   2.272  -1.760  0.00  0.00    -0.461 OA
BRANCH  33  35
ATOM     34  C   UNL     1      -3.339   3.480  -2.900  0.00  0.00    +0.048 C 
ATOM     35  C   UNL     1      -2.846   2.915  -1.566  0.00  0.00    +0.229 C 
ENDBRANCH  33  35
ENDBRANCH  31  33
ENDBRANCH   1  31
TORSDOF 8
