REMARK  Name = ZINC39361018
REMARK  8 active torsions:
REMARK  status: ('A' for Active; 'I' for Inactive)
REMARK    1  A    between atoms: C_1  and  C_2
REMARK    2  A    between atoms: C_2  and  O_3
REMARK    3  A    between atoms: O_3  and  C_4
REMARK    4  A    between atoms: C_4  and  C_6
REMARK    5  A    between atoms: C_8  and  N_16
REMARK    6  A    between atoms: C_17  and  C_19
REMARK    7  A    between atoms: C_22  and  S_25
REMARK    8  A    between atoms: S_25  and  N_28
REMARK                            x       y       z     vdW  Elec       q    Type
REMARK                         _______ _______ _______ _____ _____    ______ ____
ROOT
ATOM      1  N   UNL     1       0.137  -1.241  -4.239  0.00  0.00    -0.282 N 
ATOM      2  C   UNL     1      -0.759  -1.313  -5.242  0.00  0.00    +0.248 C 
ATOM      3  O   UNL     1      -1.189  -2.393  -5.596  0.00  0.00    -0.270 OA
ATOM      4  H   UNL     1       0.416  -0.377  -3.899  0.00  0.00    +0.155 HD
ENDROOT
BRANCH   1   6
ATOM      5  C   UNL     1       0.473  -3.793  -4.215  0.00  0.00    +0.234 C 
ATOM      6  C   UNL     1       0.651  -2.381  -3.702  0.00  0.00    +0.053 C 
ATOM      7  C   UNL     1       1.446  -2.489  -2.573  0.00  0.00    +0.018 A 
ATOM      8  C   UNL     1       1.952  -1.528  -1.666  0.00  0.00    +0.011 A 
ATOM      9  C   UNL     1       2.723  -1.928  -0.624  0.00  0.00    +0.001 A 
ATOM     10  C   UNL     1       3.035  -3.275  -0.418  0.00  0.00    +0.002 A 
ATOM     11  C   UNL     1       2.585  -4.248  -1.245  0.00  0.00    +0.026 A 
ATOM     12  C   UNL     1       1.772  -3.909  -2.358  0.00  0.00    +0.045 A 
ATOM     13  N   UNL     1       1.218  -4.657  -3.294  0.00  0.00    -0.367 N 
ATOM     14  H   UNL     1       1.292  -5.621  -3.362  0.00  0.00    +0.161 HD
BRANCH   5  15
ATOM     15  C   UNL     1       1.036  -3.913  -5.608  0.00  0.00    +0.336 C 
ATOM     16  O   UNL     1       2.178  -4.273  -5.770  0.00  0.00    -0.248 OA
BRANCH  15  17
ATOM     17  O   UNL     1       0.268  -3.620  -6.670  0.00  0.00    -0.463 OA
BRANCH  17  19
ATOM     18  C   UNL     1      -0.155  -3.382  -9.037  0.00  0.00    +0.048 C 
ATOM     19  C   UNL     1       0.866  -3.757  -7.960  0.00  0.00    +0.229 C 
ENDBRANCH  17  19
ENDBRANCH  15  17
ENDBRANCH   5  15
ENDBRANCH   1   6
BRANCH   2  20
ATOM     20  C   UNL     1      -1.220  -0.079  -5.911  0.00  0.00    +0.037 A 
ATOM     21  C   UNL     1      -0.724   1.163  -5.511  0.00  0.00    +0.015 A 
ATOM     22  C   UNL     1      -1.158   2.311  -6.140  0.00  0.00    +0.029 A 
ATOM     23  C   UNL     1      -2.083   2.234  -7.166  0.00  0.00    +0.106 A 
ATOM     24  C   UNL     1      -2.579   1.006  -7.568  0.00  0.00    +0.029 A 
ATOM     25  C   UNL     1      -2.149  -0.150  -6.951  0.00  0.00    +0.015 A 
BRANCH  23  26
ATOM     26  S   UNL     1      -2.633   3.706  -7.963  0.00  0.00    +0.061 S 
ATOM     27  O   UNL     1      -3.906   3.413  -8.523  0.00  0.00    -0.153 OA
ATOM     28  O   UNL     1      -2.432   4.767  -7.040  0.00  0.00    -0.153 OA
BRANCH  26  29
ATOM     29  N   UNL     1      -1.610   3.985  -9.235  0.00  0.00    -0.177 NA
ATOM     30  C   UNL     1      -0.370   4.773  -9.181  0.00  0.00    +0.109 C 
ATOM     31  C   UNL     1       0.232   4.779 -10.602  0.00  0.00    +0.018 C 
ATOM     32  C   UNL     1      -0.995   4.469 -11.500  0.00  0.00    +0.018 C 
ATOM     33  C   UNL     1      -1.788   3.478 -10.608  0.00  0.00    +0.109 C 
ENDBRANCH  26  29
ENDBRANCH  23  26
ENDBRANCH   2  20
TORSDOF 7
