REMARK  Name = ZINC01203921
REMARK  11 active torsions:
REMARK  status: ('A' for Active; 'I' for Inactive)
REMARK    1  A    between atoms: C_1  and  C_2
REMARK    2  A    between atoms: C_3  and  C_25
REMARK    3  A    between atoms: C_4  and  C_16
REMARK    4  A    between atoms: C_10  and  C_14
REMARK    5  A    between atoms: C_10  and  C_15
REMARK    6  A    between atoms: C_20  and  N_22
REMARK    7  A    between atoms: C_25  and  O_27
REMARK    8  A    between atoms: O_27  and  C_28
REMARK    9  A    between atoms: C_28  and  C_29
REMARK   10  A    between atoms: C_32  and  O_35
REMARK   11  A    between atoms: O_35  and  C_36
REMARK                            x       y       z     vdW  Elec       q    Type
REMARK                         _______ _______ _______ _____ _____    ______ ____
ROOT
ATOM      1  C   UNL     1       0.492   3.208   4.378  0.00  0.00    +0.061 C 
ATOM      2  C   UNL     1      -0.458   2.599   3.378  0.00  0.00    +0.016 C 
ATOM      3  C   UNL     1      -1.777   2.835   3.482  0.00  0.00    +0.065 C 
ATOM      4  C   UNL     1      -2.752   2.241   2.510  0.00  0.00    +0.092 C 
ATOM      5  C   UNL     1      -2.052   1.772   1.260  0.00  0.00    +0.024 C 
ATOM      6  C   UNL     1      -0.718   1.572   1.250  0.00  0.00    +0.016 C 
ATOM      7  N   UNL     1       0.028   1.810   2.374  0.00  0.00    -0.321 N 
ATOM      8  C   UNL     1      -0.013   1.086   0.008  0.00  0.00    +0.058 C 
ATOM      9  C   UNL     1      -0.752   1.592  -1.233  0.00  0.00    -0.023 C 
ATOM     10  C   UNL     1      -2.197   1.087  -1.178  0.00  0.00    +0.086 C 
ATOM     11  C   UNL     1      -2.828   1.546   0.109  0.00  0.00    +0.162 C 
ATOM     12  O   UNL     1      -4.028   1.725   0.154  0.00  0.00    -0.292 OA
ATOM     13  C   UNL     1      -0.742   3.122  -1.248  0.00  0.00    +0.011 C 
ATOM     14  C   UNL     1      -0.065   1.061  -2.493  0.00  0.00    +0.011 C 
ATOM     15  H   UNL     1       1.027   1.359   2.463  0.00  0.00    +0.152 HD
ENDROOT
BRANCH   4  16
ATOM     16  C   UNL     1      -3.445   1.070   3.159  0.00  0.00    -0.033 A 
ATOM     17  C   UNL     1      -2.710  -0.025   3.573  0.00  0.00    +0.005 A 
ATOM     18  C   UNL     1      -3.345  -1.099   4.168  0.00  0.00    +0.003 A 
ATOM     19  C   UNL     1      -4.716  -1.077   4.349  0.00  0.00    +0.033 A 
ATOM     20  C   UNL     1      -5.450   0.018   3.935  0.00  0.00    +0.126 A 
ATOM     21  C   UNL     1      -4.814   1.094   3.344  0.00  0.00    +0.037 A 
BRANCH  20  22
ATOM     22  N   UNL     1      -6.918   0.041   4.129  0.00  0.00    +0.056 N 
ATOM     23  O   UNL     1      -7.478  -0.906   4.653  0.00  0.00    -0.126 OA
ATOM     24  O   UNL     1      -7.565   1.006   3.764  0.00  0.00    -0.126 OA
ENDBRANCH  20  22
ENDBRANCH   4  16
BRANCH   3  25
ATOM     25  C   UNL     1      -2.255   3.661   4.527  0.00  0.00    +0.338 C 
ATOM     26  O   UNL     1      -1.473   4.149   5.322  0.00  0.00    -0.245 OA
BRANCH  25  27
ATOM     27  O   UNL     1      -3.577   3.906   4.642  0.00  0.00    -0.457 OA
BRANCH  27  28
ATOM     28  C   UNL     1      -3.988   4.748   5.721  0.00  0.00    +0.268 C 
BRANCH  28  29
ATOM     29  C   UNL     1      -5.486   4.908   5.690  0.00  0.00    -0.010 A 
ATOM     30  C   UNL     1      -6.055   5.946   4.975  0.00  0.00    +0.010 A 
ATOM     31  C   UNL     1      -7.428   6.091   4.940  0.00  0.00    +0.046 A 
ATOM     32  C   UNL     1      -8.237   5.202   5.633  0.00  0.00    +0.120 A 
ATOM     33  C   UNL     1      -7.663   4.165   6.354  0.00  0.00    +0.046 A 
ATOM     34  C   UNL     1      -6.290   4.020   6.381  0.00  0.00    +0.010 A 
BRANCH  32  35
ATOM     35  O   UNL     1      -9.588   5.346   5.605  0.00  0.00    -0.495 OA
ATOM     36  C   UNL     1     -10.108   6.436   4.842  0.00  0.00    +0.277 C 
ENDBRANCH  32  35
ENDBRANCH  28  29
ENDBRANCH  27  28
ENDBRANCH  25  27
ENDBRANCH   3  25
TORSDOF 7
