REMARK  Name = ZINC01830368
REMARK  7 active torsions:
REMARK  status: ('A' for Active; 'I' for Inactive)
REMARK    1  A    between atoms: C_1  and  O_2
REMARK    2  A    between atoms: O_2  and  C_3
REMARK    3  A    between atoms: C_6  and  C_11
REMARK    4  A    between atoms: C_8  and  O_9
REMARK    5  A    between atoms: O_9  and  C_10
REMARK    6  A    between atoms: C_22  and  C_26
REMARK    7  A    between atoms: C_28  and  N_33
REMARK                            x       y       z     vdW  Elec       q    Type
REMARK                         _______ _______ _______ _____ _____    ______ ____
ROOT
ATOM      1  C   UNL     1       2.497  -2.491  -4.369  0.00  0.00    +0.047 C 
ATOM      2  C   UNL     1       3.086  -1.844  -5.403  0.00  0.00    +0.023 C 
ATOM      3  C   UNL     1       3.577  -2.949  -6.299  0.00  0.00    +0.138 C 
ATOM      4  C   UNL     1       4.917  -2.760  -6.929  0.00  0.00    +0.017 A 
ATOM      5  C   UNL     1       5.332  -1.533  -7.398  0.00  0.00    +0.009 A 
ATOM      6  C   UNL     1       6.576  -1.399  -7.987  0.00  0.00    +0.001 A 
ATOM      7  C   UNL     1       7.404  -2.501  -8.105  0.00  0.00    +0.004 A 
ATOM      8  C   UNL     1       6.995  -3.731  -7.634  0.00  0.00    +0.046 A 
ATOM      9  C   UNL     1       5.748  -3.875  -7.035  0.00  0.00    +0.128 A 
ATOM     10  O   UNL     1       5.385  -5.094  -6.555  0.00  0.00    -0.468 OA
ATOM     11  C   UNL     1       4.072  -5.265  -5.991  0.00  0.00    +0.295 C 
ATOM     12  N   UNL     1       3.735  -4.046  -5.295  0.00  0.00    -0.175 NA
ATOM     13  N   UNL     1       2.613  -3.888  -4.561  0.00  0.00    -0.273 N 
ATOM     14  H   UNL     1       2.018  -4.582  -4.237  0.00  0.00    +0.167 HD
ENDROOT
BRANCH  11  15
ATOM     15  C   UNL     1       4.072  -6.425  -5.029  0.00  0.00    +0.030 A 
ATOM     16  C   UNL     1       4.043  -6.193  -3.667  0.00  0.00    +0.042 A 
ATOM     17  C   UNL     1       4.043  -7.257  -2.784  0.00  0.00    +0.127 A 
ATOM     18  C   UNL     1       4.073  -8.554  -3.264  0.00  0.00    +0.034 A 
ATOM     19  C   UNL     1       4.102  -8.787  -4.625  0.00  0.00    +0.022 A 
ATOM     20  C   UNL     1       4.096  -7.722  -5.510  0.00  0.00    +0.049 A 
ATOM     21 CL   UNL     1       4.124  -8.014  -7.221  0.00  0.00    -0.083 Cl
BRANCH  17  22
ATOM     22  N   UNL     1       4.013  -7.008  -1.326  0.00  0.00    +0.056 N 
ATOM     23  O   UNL     1       3.987  -5.874  -0.906  0.00  0.00    -0.126 OA
ATOM     24  O   UNL     1       4.013  -7.938  -0.553  0.00  0.00    -0.126 OA
ENDBRANCH  17  22
ENDBRANCH  11  15
BRANCH   1  28
ATOM     25  C   UNL     1       0.606  -0.607  -1.056  0.00  0.00    +0.162 A 
ATOM     26  C   UNL     1       1.172   0.163  -2.061  0.00  0.00    +0.050 A 
ATOM     27  C   UNL     1       1.786  -0.446  -3.137  0.00  0.00    +0.013 A 
ATOM     28  C   UNL     1       1.838  -1.837  -3.215  0.00  0.00    +0.000 A 
ATOM     29  C   UNL     1       1.269  -2.612  -2.205  0.00  0.00    +0.059 A 
ATOM     30  C   UNL     1       0.660  -1.997  -1.126  0.00  0.00    +0.162 A 
BRANCH  25  32
ATOM     31  C   UNL     1      -0.017   1.425   0.010  0.00  0.00    +0.277 C 
ATOM     32  O   UNL     1       0.002  -0.004   0.002  0.00  0.00    -0.491 OA
ENDBRANCH  25  32
BRANCH  30  33
ATOM     33  O   UNL     1       0.109  -2.750  -0.136  0.00  0.00    -0.491 OA
ATOM     34  C   UNL     1       0.201  -4.169  -0.273  0.00  0.00    +0.277 C 
ENDBRANCH  30  33
ENDBRANCH   1  28
TORSDOF 5
