REMARK  Name = ZINC20928283
REMARK  11 active torsions:
REMARK  status: ('A' for Active; 'I' for Inactive)
REMARK    1  A    between atoms: C_1  and  C_2
REMARK    2  A    between atoms: C_5  and  N_9
REMARK    3  A    between atoms: C_6  and  C_8
REMARK    4  A    between atoms: N_9  and  S_10
REMARK    5  A    between atoms: S_10  and  C_13
REMARK    6  A    between atoms: C_16  and  N_22
REMARK    7  A    between atoms: C_17  and  N_19
REMARK    8  A    between atoms: N_22  and  N_23
REMARK    9  A    between atoms: C_24  and  C_25
REMARK   10  A    between atoms: C_24  and  C_26
REMARK   11  A    between atoms: C_29  and  O_32
REMARK                            x       y       z     vdW  Elec       q    Type
REMARK                         _______ _______ _______ _____ _____    ______ ____
ROOT
ATOM      1  C   UNL     1      -3.639   2.837  -0.144  0.00  0.00    +0.111 A 
ATOM      2  C   UNL     1      -2.387   3.422  -0.205  0.00  0.00    +0.031 A 
ATOM      3  C   UNL     1      -1.261   2.636  -0.342  0.00  0.00    +0.029 A 
ATOM      4  C   UNL     1      -1.386   1.253  -0.417  0.00  0.00    +0.079 A 
ATOM      5  C   UNL     1      -2.646   0.669  -0.361  0.00  0.00    +0.150 A 
ATOM      6  C   UNL     1      -3.767   1.462  -0.219  0.00  0.00    +0.063 A 
ENDROOT
BRANCH   1   7
ATOM      7  S   UNL     1      -5.073   3.845   0.031  0.00  0.00    +0.072 S 
ATOM      8  O   UNL     1      -6.078   3.025   0.612  0.00  0.00    -0.150 OA
ATOM      9  O   UNL     1      -4.644   5.062   0.627  0.00  0.00    -0.150 OA
BRANCH   7  10
ATOM     10  N   UNL     1      -5.595   4.223  -1.495  0.00  0.00    -0.216 N 
ATOM     11  H   UNL     1      -5.652   5.275  -1.811  0.00  0.00    +0.174 HD
BRANCH  10  16
ATOM     12  C   UNL     1      -7.091   0.098  -5.086  0.00  0.00    +0.044 C 
ATOM     13  C   UNL     1      -6.693   1.194  -4.131  0.00  0.00    -0.050 A 
ATOM     14  C   UNL     1      -6.960   1.064  -2.781  0.00  0.00    +0.005 A 
ATOM     15  C   UNL     1      -6.598   2.066  -1.904  0.00  0.00    +0.025 A 
ATOM     16  C   UNL     1      -5.963   3.207  -2.379  0.00  0.00    +0.051 A 
ATOM     17  C   UNL     1      -5.700   3.337  -3.737  0.00  0.00    -0.028 A 
ATOM     18  C   UNL     1      -6.061   2.328  -4.608  0.00  0.00    +0.008 A 
ATOM     19  C   UNL     1      -5.016   4.575  -4.258  0.00  0.00    +0.046 C 
ENDBRANCH  10  16
ENDBRANCH   7  10
ENDBRANCH   1   7
BRANCH   5  20
ATOM     20  N   UNL     1      -2.785  -0.803  -0.447  0.00  0.00    +0.058 N 
ATOM     21  O   UNL     1      -3.892  -1.308  -0.503  0.00  0.00    -0.126 OA
ATOM     22  O   UNL     1      -1.792  -1.508  -0.462  0.00  0.00    -0.126 OA
ENDBRANCH   5  20
BRANCH   4  23
ATOM     23  N   UNL     1      -0.250   0.455  -0.556  0.00  0.00    -0.235 N 
ATOM     24  H   UNL     1      -0.341  -0.641  -0.528  0.00  0.00    +0.174 HD
BRANCH  23  25
ATOM     25  N   UNL     1       1.006   1.049  -0.731  0.00  0.00    -0.187 NA
ATOM     26  C   UNL     1       2.063   0.306  -0.866  0.00  0.00    +0.063 C 
ATOM     27  C   UNL     1       1.937  -1.195  -0.833  0.00  0.00    +0.068 C 
BRANCH  26  28
ATOM     28  C   UNL     1       3.385   0.931  -1.050  0.00  0.00    -0.002 A 
ATOM     29  C   UNL     1       4.524   0.134  -1.189  0.00  0.00    +0.013 A 
ATOM     30  C   UNL     1       5.757   0.722  -1.367  0.00  0.00    +0.046 A 
ATOM     31  C   UNL     1       5.871   2.106  -1.397  0.00  0.00    +0.117 A 
ATOM     32  C   UNL     1       4.742   2.903  -1.254  0.00  0.00    +0.046 A 
ATOM     33  C   UNL     1       3.504   2.323  -1.081  0.00  0.00    +0.013 A 
BRANCH  31  34
ATOM     34  O   UNL     1       7.089   2.682  -1.567  0.00  0.00    -0.507 OA
ATOM     35  H   UNL     1       7.181   3.778  -1.591  0.00  0.00    +0.292 HD
ENDBRANCH  31  34
ENDBRANCH  26  28
ENDBRANCH  23  25
ENDBRANCH   4  23
TORSDOF 8
