REMARK  Name = ZINC04718374
REMARK  11 active torsions:
REMARK  status: ('A' for Active; 'I' for Inactive)
REMARK    1  A    between atoms: C_1  and  C_2
REMARK    2  A    between atoms: C_5  and  N_8
REMARK    3  A    between atoms: C_9  and  C_12
REMARK    4  A    between atoms: N_10  and  O_11
REMARK    5  A    between atoms: C_13  and  C_31
REMARK    6  A    between atoms: C_15  and  C_30
REMARK    7  A    between atoms: C_16  and  C_19
REMARK    8  A    between atoms: C_17  and  C_18
REMARK    9  A    between atoms: N_20  and  O_21
REMARK   10  A    between atoms: N_22  and  C_23
REMARK   11  A    between atoms: C_26  and  C_29
REMARK                            x       y       z     vdW  Elec       q    Type
REMARK                         _______ _______ _______ _____ _____    ______ ____
ROOT
ATOM      1  C   UNL     1      -1.594  -5.522  -0.352  0.00  0.00    +0.025 A 
ATOM      2  C   UNL     1      -0.454  -5.193   0.382  0.00  0.00    -0.039 A 
ATOM      3  C   UNL     1       0.041  -6.071   1.325  0.00  0.00    +0.008 A 
ATOM      4  C   UNL     1      -0.588  -7.280   1.549  0.00  0.00    -0.039 A 
ATOM      5  C   UNL     1      -1.729  -7.621   0.821  0.00  0.00    +0.025 A 
ATOM      6  C   UNL     1      -2.236  -6.737  -0.127  0.00  0.00    -0.029 A 
ATOM      7  C   UNL     1      -3.471  -7.096  -0.912  0.00  0.00    +0.045 C 
ATOM      8  C   UNL     1      -0.040  -8.234   2.579  0.00  0.00    +0.044 C 
ATOM      9  C   UNL     1       0.240  -3.876   0.144  0.00  0.00    +0.044 C 
ENDROOT
BRANCH   1  11
ATOM     10  N   UNL     1      -1.688  -4.654  -2.675  0.00  0.00    -0.296 N 
ATOM     11  C   UNL     1      -2.124  -4.579  -1.363  0.00  0.00    +0.170 C 
ATOM     12  N   UNL     1      -2.998  -3.679  -1.018  0.00  0.00    -0.071 NA
ATOM     13  H   UNL     1      -1.108  -5.380  -2.953  0.00  0.00    +0.154 HD
BRANCH  10  18
ATOM     14  C   UNL     1      -3.296  -0.714  -6.426  0.00  0.00    +0.044 C 
ATOM     15  C   UNL     1      -2.869  -1.761  -5.429  0.00  0.00    -0.050 A 
ATOM     16  C   UNL     1      -2.689  -3.070  -5.838  0.00  0.00    +0.005 A 
ATOM     17  C   UNL     1      -2.297  -4.032  -4.927  0.00  0.00    +0.023 A 
ATOM     18  C   UNL     1      -2.084  -3.683  -3.600  0.00  0.00    +0.032 A 
ATOM     19  C   UNL     1      -2.265  -2.367  -3.193  0.00  0.00    +0.023 A 
ATOM     20  C   UNL     1      -2.652  -1.409  -4.109  0.00  0.00    +0.005 A 
ENDBRANCH  10  18
BRANCH  12  21
ATOM     21  O   UNL     1      -3.443  -3.603   0.324  0.00  0.00    -0.408 OA
ATOM     22  H   UNL     1      -4.092  -2.904   0.484  0.00  0.00    +0.328 HD
ENDBRANCH  12  21
ENDBRANCH   1  11
BRANCH   5  23
ATOM     23  C   UNL     1      -2.402  -8.918   1.062  0.00  0.00    +0.170 C 
ATOM     24  N   UNL     1      -2.948  -9.162   2.217  0.00  0.00    -0.071 NA
ATOM     25  N   UNL     1      -2.450  -9.870   0.057  0.00  0.00    -0.296 N 
ATOM     26  H   UNL     1      -2.924 -10.704   0.201  0.00  0.00    +0.154 HD
BRANCH  25  27
ATOM     27  C   UNL     1      -1.815  -9.630  -1.165  0.00  0.00    +0.032 A 
ATOM     28  C   UNL     1      -0.576  -9.003  -1.194  0.00  0.00    +0.023 A 
ATOM     29  C   UNL     1       0.048  -8.767  -2.403  0.00  0.00    +0.005 A 
ATOM     30  C   UNL     1      -0.559  -9.154  -3.584  0.00  0.00    -0.050 A 
ATOM     31  C   UNL     1      -1.793  -9.778  -3.558  0.00  0.00    +0.005 A 
ATOM     32  C   UNL     1      -2.420 -10.022  -2.352  0.00  0.00    +0.023 A 
ATOM     33  C   UNL     1       0.125  -8.894  -4.901  0.00  0.00    +0.044 C 
ENDBRANCH  25  27
BRANCH  24  34
ATOM     34  O   UNL     1      -3.686 -10.355   2.412  0.00  0.00    -0.408 OA
ATOM     35  H   UNL     1      -4.117 -10.414   3.276  0.00  0.00    +0.328 HD
ENDBRANCH  24  34
ENDBRANCH   5  23
TORSDOF 6
