REMARK  Name = ZINC21252140
REMARK  11 active torsions:
REMARK  status: ('A' for Active; 'I' for Inactive)
REMARK    1  A    between atoms: C_1  and  C_2
REMARK    2  A    between atoms: C_2  and  C_3
REMARK    3  A    between atoms: C_2  and  C_4
REMARK    4  A    between atoms: C_4  and  O_5
REMARK    5  A    between atoms: O_5  and  C_6
REMARK    6  A    between atoms: C_9  and  C_12
REMARK    7  A    between atoms: C_17  and  C_22
REMARK    8  A    between atoms: C_25  and  O_28
REMARK    9  A    between atoms: O_28  and  C_29
REMARK   10  A    between atoms: C_29  and  C_30
REMARK   11  A    between atoms: C_29  and  C_31
REMARK                            x       y       z     vdW  Elec       q    Type
REMARK                         _______ _______ _______ _____ _____    ______ ____
ROOT
ATOM      1  C   UNL     1      -0.773  -4.233   0.084  0.00  0.00    +0.136 C 
ATOM      2  C   UNL     1      -0.955  -2.753  -0.153  0.00  0.00    +0.036 C 
ATOM      3  C   UNL     1      -1.023  -2.148  -1.353  0.00  0.00    +0.017 C 
ATOM      4  C   UNL     1      -1.222  -0.645  -1.449  0.00  0.00    +0.059 C 
ATOM      5  C   UNL     1      -0.562   0.047  -0.258  0.00  0.00    +0.032 C 
ATOM      6  C   UNL     1      -1.212  -0.499   1.019  0.00  0.00    +0.088 C 
ATOM      7  C   UNL     1      -1.053  -1.990   1.034  0.00  0.00    +0.163 C 
ATOM      8  O   UNL     1      -1.006  -2.564   2.105  0.00  0.00    -0.292 OA
ATOM      9  N   UNL     1      -0.943  -2.790  -2.546  0.00  0.00    -0.316 N 
ATOM     10  C   UNL     1       0.004  -3.755  -2.869  0.00  0.00    +0.052 A 
ATOM     11  C   UNL     1       0.917  -3.581  -3.894  0.00  0.00    +0.025 A 
ATOM     12  C   UNL     1       1.756  -4.627  -4.241  0.00  0.00    +0.002 A 
ATOM     13  C   UNL     1       1.681  -5.833  -3.569  0.00  0.00    +0.002 A 
ATOM     14  C   UNL     1       0.783  -6.001  -2.529  0.00  0.00    +0.025 A 
ATOM     15  C   UNL     1      -0.044  -4.950  -2.167  0.00  0.00    +0.049 A 
ATOM     16  N   UNL     1      -0.931  -5.056  -1.097  0.00  0.00    -0.331 N 
ATOM     17  H   UNL     1      -1.663  -2.559  -3.345  0.00  0.00    +0.152 HD
ATOM     18  H   UNL     1      -1.759  -5.777  -1.158  0.00  0.00    +0.147 HD
ENDROOT
BRANCH   1  22
ATOM     19  C   UNL     1       3.142  -4.878   1.670  0.00  0.00    +0.121 A 
ATOM     20  C   UNL     1       2.024  -5.172   2.438  0.00  0.00    +0.046 A 
ATOM     21  C   UNL     1       0.759  -4.963   1.922  0.00  0.00    +0.009 A 
ATOM     22  C   UNL     1       0.607  -4.460   0.643  0.00  0.00    -0.023 A 
ATOM     23  C   UNL     1       1.720  -4.171  -0.125  0.00  0.00    +0.009 A 
ATOM     24  C   UNL     1       2.986  -4.374   0.387  0.00  0.00    +0.046 A 
BRANCH  19  25
ATOM     25  O   UNL     1       4.387  -5.083   2.175  0.00  0.00    -0.492 OA
BRANCH  25  26
ATOM     26  C   UNL     1       5.491  -4.757   1.329  0.00  0.00    +0.232 C 
BRANCH  26  28
ATOM     27  C   UNL     1       6.915  -6.557   2.318  0.00  0.00    +0.010 C 
ATOM     28  C   UNL     1       6.801  -5.053   2.064  0.00  0.00    +0.020 C 
ATOM     29  C   UNL     1       7.981  -4.589   1.208  0.00  0.00    +0.010 C 
ENDBRANCH  26  28
ENDBRANCH  25  26
ENDBRANCH  19  25
ENDBRANCH   1  22
BRANCH   5  30
ATOM     30  C   UNL     1      -0.781   1.535  -0.346  0.00  0.00    -0.043 A 
ATOM     31  C   UNL     1      -2.067   2.042  -0.394  0.00  0.00    +0.007 A 
ATOM     32  C   UNL     1      -2.270   3.406  -0.469  0.00  0.00    +0.046 A 
ATOM     33  C   UNL     1      -1.183   4.267  -0.508  0.00  0.00    +0.121 A 
ATOM     34  C   UNL     1       0.106   3.756  -0.466  0.00  0.00    +0.046 A 
ATOM     35  C   UNL     1       0.304   2.391  -0.386  0.00  0.00    +0.007 A 
BRANCH  33  36
ATOM     36  O   UNL     1      -1.381   5.609  -0.588  0.00  0.00    -0.489 OA
BRANCH  36  37
ATOM     37  C   UNL     1      -0.221   6.428  -0.748  0.00  0.00    +0.167 C 
ATOM     38  C   UNL     1      -0.614   7.744  -1.421  0.00  0.00    +0.051 C 
ATOM     39  C   UNL     1       0.391   6.719   0.624  0.00  0.00    +0.051 C 
ENDBRANCH  36  37
ENDBRANCH  33  36
ENDBRANCH   5  30
TORSDOF 7
