REMARK  Name = ZINC43129466
REMARK  2 active torsions:
REMARK  status: ('A' for Active; 'I' for Inactive)
REMARK    1  A    between atoms: N_9  and  C_10
REMARK    2  A    between atoms: C_13  and  C_16
REMARK                            x       y       z     vdW  Elec       q    Type
REMARK                         _______ _______ _______ _____ _____    ______ ____
ROOT
ATOM      1  C   UNL     1      -0.022   1.783   0.012  0.00  0.00    +0.183 A 
ATOM      2  N   UNL     1       1.271   2.034   0.001  0.00  0.00    -0.148 NA
ATOM      3  N   UNL     1       2.085   1.068  -0.012  0.00  0.00    -0.126 NA
ATOM      4  C   UNL     1       1.678  -0.186  -0.015  0.00  0.00    +0.189 A 
ATOM      5  S   UNL     1       0.002  -0.004   0.002  0.00  0.00    -0.039 S 
ATOM      6  N   UNL     1       2.434  -1.354  -0.028  0.00  0.00    -0.247 N 
ATOM      7  C   UNL     1       3.780  -1.285  -0.040  0.00  0.00    +0.306 C 
ATOM      8  O   UNL     1       4.333  -0.203  -0.040  0.00  0.00    -0.252 OA
ATOM      9  N   UNL     1       4.512  -2.417  -0.053  0.00  0.00    -0.296 N 
ATOM     10  H   UNL     1       1.992  -2.217  -0.029  0.00  0.00    +0.158 HD
ATOM     11  H   UNL     1       4.070  -3.280  -0.054  0.00  0.00    +0.151 HD
ENDROOT
BRANCH   9  12
ATOM     12  C   UNL     1       5.975  -2.342  -0.067  0.00  0.00    +0.074 C 
ATOM     13  C   UNL     1       6.465  -2.183  -1.507  0.00  0.00    +0.023 C 
ATOM     14  C   UNL     1       7.992  -2.105  -1.521  0.00  0.00    +0.014 C 
ATOM     15  C   UNL     1       8.574  -3.389  -0.924  0.00  0.00    +0.093 C 
ATOM     16  C   UNL     1       8.084  -3.548   0.517  0.00  0.00    +0.014 C 
ATOM     17  C   UNL     1       6.556  -3.626   0.531  0.00  0.00    +0.023 C 
BRANCH  15  18
ATOM     18  C   UNL     1      10.101  -3.311  -0.937  0.00  0.00    +0.393 C 
ATOM     19  F   UNL     1      10.520  -2.213  -0.178  0.00  0.00    -0.170 F 
ATOM     20  F   UNL     1      10.633  -4.484  -0.391  0.00  0.00    -0.170 F 
ATOM     21  F   UNL     1      10.549  -3.165  -2.255  0.00  0.00    -0.170 F 
ENDBRANCH  15  18
ENDBRANCH   9  12
TORSDOF 2
