REMARK  Name = ZINC09057360
REMARK  6 active torsions:
REMARK  status: ('A' for Active; 'I' for Inactive)
REMARK    1  A    between atoms: C_3  and  N_25
REMARK    2  A    between atoms: C_6  and  C_7
REMARK    3  A    between atoms: N_8  and  N_9
REMARK    4  A    between atoms: C_10  and  C_12
REMARK    5  A    between atoms: C_12  and  S_13
REMARK    6  A    between atoms: S_13  and  C_14
REMARK                            x       y       z     vdW  Elec       q    Type
REMARK                         _______ _______ _______ _____ _____    ______ ____
ROOT
ATOM      1  N   UNL     1      -0.016   1.344   0.009  0.00  0.00    -0.206 N 
ATOM      2  C   UNL     1       0.002  -0.004   0.002  0.00  0.00    +0.242 C 
ATOM      3  O   UNL     1       1.061  -0.596  -0.011  0.00  0.00    -0.273 OA
ATOM      4  H   UNL     1      -0.863   1.817   0.016  0.00  0.00    +0.177 HD
ENDROOT
BRANCH   1   6
ATOM      5  C   UNL     1       1.170   3.358   0.009  0.00  0.00    +0.138 C 
ATOM      6  N   UNL     1       1.187   2.061   0.002  0.00  0.00    -0.188 NA
BRANCH   5  12
ATOM      7  C   UNL     1       3.658   3.434  -0.009  0.00  0.00    +0.012 A 
ATOM      8  C   UNL     1       4.839   4.146  -0.021  0.00  0.00    +0.033 A 
ATOM      9  C   UNL     1       4.816   5.530  -0.013  0.00  0.00    +0.126 A 
ATOM     10  C   UNL     1       3.611   6.209   0.001  0.00  0.00    +0.033 A 
ATOM     11  C   UNL     1       2.422   5.509   0.009  0.00  0.00    +0.012 A 
ATOM     12  C   UNL     1       2.437   4.113   0.001  0.00  0.00    -0.005 A 
BRANCH   9  13
ATOM     13  N   UNL     1       6.088   6.287  -0.021  0.00  0.00    +0.056 N 
ATOM     14  O   UNL     1       6.072   7.505  -0.014  0.00  0.00    -0.126 OA
ATOM     15  O   UNL     1       7.151   5.693  -0.034  0.00  0.00    -0.126 OA
ENDBRANCH   9  13
ENDBRANCH   5  12
ENDBRANCH   1   6
BRANCH   2  16
ATOM     16  C   UNL     1      -1.293  -0.775   0.010  0.00  0.00    +0.171 C 
BRANCH  16  17
ATOM     17  S   UNL     1      -0.937  -2.554  -0.003  0.00  0.00    -0.113 S 
BRANCH  17  18
ATOM     18  C   UNL     1      -2.530  -3.307   0.009  0.00  0.00    +0.048 A 
ATOM     19  C   UNL     1      -3.145  -3.617   1.216  0.00  0.00    +0.076 A 
ATOM     20  C   UNL     1      -4.398  -4.203   1.222  0.00  0.00    +0.080 A 
ATOM     21  C   UNL     1      -5.034  -4.492   0.026  0.00  0.00    +0.080 A 
ATOM     22  C   UNL     1      -4.421  -4.190  -1.178  0.00  0.00    +0.080 A 
ATOM     23  C   UNL     1      -3.171  -3.598  -1.190  0.00  0.00    +0.076 A 
ATOM     24 CL   UNL     1      -2.403  -3.220  -2.700  0.00  0.00    -0.081 Cl
ATOM     25 CL   UNL     1      -5.222  -4.554  -2.675  0.00  0.00    -0.080 Cl
ATOM     26 CL   UNL     1      -6.604  -5.234   0.037  0.00  0.00    -0.080 Cl
ATOM     27 CL   UNL     1      -5.170  -4.583   2.729  0.00  0.00    -0.080 Cl
ATOM     28 CL   UNL     1      -2.346  -3.261   2.715  0.00  0.00    -0.081 Cl
ENDBRANCH  17  18
ENDBRANCH  16  17
ENDBRANCH   2  16
TORSDOF 6
