REMARK  Name = ZINC17020573
REMARK  7 active torsions:
REMARK  status: ('A' for Active; 'I' for Inactive)
REMARK    1  A    between atoms: C_1  and  C_2
REMARK    2  A    between atoms: C_2  and  C_29
REMARK    3  A    between atoms: N_9  and  C_10
REMARK    4  A    between atoms: C_14  and  C_16
REMARK    5  A    between atoms: C_17  and  C_18
REMARK    6  A    between atoms: C_19  and  C_20
REMARK    7  A    between atoms: C_24  and  N_26
REMARK                            x       y       z     vdW  Elec       q    Type
REMARK                         _______ _______ _______ _____ _____    ______ ____
ROOT
ATOM      1  C   UNL     1       2.009  -1.005   1.147  0.00  0.00    +0.039 A 
ATOM      2  C   UNL     1       2.720  -0.943  -0.055  0.00  0.00    +0.023 A 
ATOM      3  C   UNL     1       4.009  -1.449  -0.137  0.00  0.00    +0.002 A 
ATOM      4  C   UNL     1       4.602  -2.015   0.954  0.00  0.00    +0.008 A 
ATOM      5  C   UNL     1       3.900  -2.088   2.182  0.00  0.00    -0.023 A 
ATOM      6  C   UNL     1       2.589  -1.568   2.265  0.00  0.00    +0.031 A 
ENDROOT
BRANCH   1  15
ATOM      7  C   UNL     1      -1.002  -0.880  -0.504  0.00  0.00    +0.053 C 
ATOM      8  C   UNL     1      -0.462  -1.312   0.861  0.00  0.00    +0.102 C 
ATOM      9  N   UNL     1      -1.489  -1.097   1.896  0.00  0.00    -0.298 N 
ATOM     10  C   UNL     1      -1.717   0.212   2.300  0.00  0.00    +0.159 C 
ATOM     11  N   UNL     1      -2.920   0.682   2.461  0.00  0.00    -0.375 N 
ATOM     12  N   UNL     1      -0.585   0.994   2.522  0.00  0.00    -0.262 N 
ATOM     13  C   UNL     1       0.468   0.814   1.627  0.00  0.00    +0.188 C 
ATOM     14  N   UNL     1       1.185   1.813   1.198  0.00  0.00    -0.272 NA
ATOM     15  N   UNL     1       0.710  -0.492   1.217  0.00  0.00    -0.252 N 
ATOM     16  C   UNL     1      -0.068  -2.790   0.818  0.00  0.00    +0.053 C 
ATOM     17  H   UNL     1      -1.985  -1.837   2.279  0.00  0.00    +0.151 HD
ATOM     18  H   UNL     1      -3.689   0.114   2.299  0.00  0.00    +0.158 HD
ATOM     19  H   UNL     1      -0.533   1.625   3.257  0.00  0.00    +0.157 HD
ATOM     20  H   UNL     1       1.912   1.657   0.575  0.00  0.00    +0.189 HD
ATOM     21  H   UNL     1      -3.048   1.601   2.744  0.00  0.00    +0.158 HD
ENDBRANCH   1  15
BRANCH   5  22
ATOM     22  C   UNL     1       4.503  -2.669   3.308  0.00  0.00    +0.008 C 
ATOM     23  C   UNL     1       5.819  -3.184   3.219  0.00  0.00    +0.001 C 
BRANCH  23  24
ATOM     24  C   UNL     1       6.405  -3.749   4.314  0.00  0.00    +0.001 C 
ATOM     25  C   UNL     1       7.721  -4.264   4.226  0.00  0.00    +0.008 C 
BRANCH  25  26
ATOM     26  C   UNL     1       8.324  -4.846   5.353  0.00  0.00    -0.023 A 
ATOM     27  C   UNL     1       7.621  -4.925   6.578  0.00  0.00    +0.008 A 
ATOM     28  C   UNL     1       8.220  -5.492   7.665  0.00  0.00    +0.003 A 
ATOM     29  C   UNL     1       9.513  -5.990   7.572  0.00  0.00    +0.033 A 
ATOM     30  C   UNL     1      10.215  -5.919   6.376  0.00  0.00    +0.127 A 
ATOM     31  C   UNL     1       9.638  -5.362   5.271  0.00  0.00    +0.040 A 
BRANCH  30  32
ATOM     32  N   UNL     1      11.593  -6.455   6.296  0.00  0.00    +0.056 N 
ATOM     33  O   UNL     1      12.150  -6.997   7.359  0.00  0.00    -0.126 OA
ATOM     34  O   UNL     1      12.261  -6.388   5.163  0.00  0.00    -0.126 OA
ENDBRANCH  30  32
ENDBRANCH  25  26
ENDBRANCH  23  24
ENDBRANCH   5  22
TORSDOF 5
