REMARK  Name = ZINC22690522
REMARK  5 active torsions:
REMARK  status: ('A' for Active; 'I' for Inactive)
REMARK    1  A    between atoms: C_1  and  C_2
REMARK    2  A    between atoms: C_8  and  N_10
REMARK    3  A    between atoms: C_14  and  C_16
REMARK    4  A    between atoms: C_16  and  N_17
REMARK    5  A    between atoms: N_17  and  C_18
REMARK                            x       y       z     vdW  Elec       q    Type
REMARK                         _______ _______ _______ _____ _____    ______ ____
ROOT
ATOM      1  N   UNL     1      -2.119  -0.061   1.218  0.00  0.00    -0.296 N 
ATOM      2  C   UNL     1      -3.462   0.049   1.230  0.00  0.00    +0.306 C 
ATOM      3  O   UNL     1      -4.105  -0.243   0.240  0.00  0.00    -0.252 OA
ATOM      4  N   UNL     1      -4.093   0.484   2.339  0.00  0.00    -0.239 N 
ATOM      5  C   UNL     1      -5.436   0.594   2.350  0.00  0.00    +0.237 C 
ATOM      6  O   UNL     1      -6.077   0.303   1.363  0.00  0.00    -0.274 OA
ATOM      7  H   UNL     1      -1.538   0.203   2.114  0.00  0.00    +0.151 HD
ATOM      8  H   UNL     1      -3.512   0.748   3.234  0.00  0.00    +0.159 HD
ENDROOT
BRANCH   1  15
ATOM      9  C   UNL     1      -0.019   1.526   0.010  0.00  0.00    +0.009 C 
ATOM     10  C   UNL     1       0.002  -0.004   0.002  0.00  0.00    +0.006 C 
ATOM     11  C   UNL     1       0.742  -0.511   1.242  0.00  0.00    +0.005 C 
ATOM     12  C   UNL     1       0.763  -2.041   1.233  0.00  0.00    +0.000 C 
ATOM     13  C   UNL     1      -0.673  -2.570   1.244  0.00  0.00    +0.002 C 
ATOM     14  C   UNL     1      -1.413  -2.063   0.004  0.00  0.00    +0.022 C 
ATOM     15  C   UNL     1      -1.433  -0.534   0.013  0.00  0.00    +0.077 C 
ENDBRANCH   1  15
BRANCH   5  16
ATOM     16  C   UNL     1      -6.142   1.080   3.590  0.00  0.00    +0.198 C 
BRANCH  16  17
ATOM     17  N   UNL     1      -7.586   1.111   3.350  0.00  0.00    -0.335 N 
ATOM     18  H   UNL     1      -7.988   0.804   2.373  0.00  0.00    +0.147 HD
BRANCH  17  19
ATOM     19  C   UNL     1      -8.455   1.531   4.362  0.00  0.00    +0.028 A 
ATOM     20  C   UNL     1      -7.949   1.914   5.598  0.00  0.00    +0.026 A 
ATOM     21  C   UNL     1      -8.809   2.333   6.594  0.00  0.00    +0.040 A 
ATOM     22  C   UNL     1     -10.174   2.362   6.366  0.00  0.00    +0.124 A 
ATOM     23  C   UNL     1     -10.681   1.976   5.136  0.00  0.00    +0.040 A 
ATOM     24  C   UNL     1      -9.825   1.561   4.135  0.00  0.00    +0.026 A 
ATOM     25  F   UNL     1     -11.013   2.767   7.344  0.00  0.00    -0.205 F 
ENDBRANCH  17  19
ENDBRANCH  16  17
ENDBRANCH   5  16
TORSDOF 4
