REMARK  Name = ZINC02953265
REMARK  10 active torsions:
REMARK  status: ('A' for Active; 'I' for Inactive)
REMARK    1  A    between atoms: C_1  and  C_2
REMARK    2  A    between atoms: C_5  and  N_8
REMARK    3  A    between atoms: C_9  and  C_11
REMARK    4  A    between atoms: C_14  and  C_30
REMARK    5  A    between atoms: C_17  and  C_29
REMARK    6  A    between atoms: N_21  and  C_22
REMARK    7  A    between atoms: C_26  and  C_28
REMARK    8  A    between atoms: C_30  and  O_31
REMARK    9  A    between atoms: O_31  and  C_32
REMARK   10  A    between atoms: C_32  and  C_34
REMARK                            x       y       z     vdW  Elec       q    Type
REMARK                         _______ _______ _______ _____ _____    ______ ____
ROOT
ATOM      1  C   UNL     1       2.296   5.638   0.224  0.00  0.00    +0.098 A 
ATOM      2  C   UNL     1       3.460   6.368   0.321  0.00  0.00    +0.030 A 
ATOM      3  C   UNL     1       3.333   7.822   0.436  0.00  0.00    +0.028 A 
ATOM      4  C   UNL     1       4.434   8.673   0.279  0.00  0.00    +0.018 A 
ATOM      5  C   UNL     1       4.237  10.033   0.399  0.00  0.00    +0.118 A 
ATOM      6  N   UNL     1       3.041  10.530   0.655  0.00  0.00    -0.256 NA
ATOM      7  C   UNL     1       1.975   9.771   0.812  0.00  0.00    +0.081 A 
ATOM      8  C   UNL     1       2.076   8.391   0.712  0.00  0.00    +0.159 A 
ATOM      9  O   UNL     1       0.997   7.590   0.874  0.00  0.00    -0.437 OA
ATOM     10  C   UNL     1       1.024   6.389   0.235  0.00  0.00    +0.212 A 
ATOM     11  N   UNL     1      -0.050   5.907  -0.350  0.00  0.00    -0.325 N 
ATOM     12  C   UNL     1       0.639  10.406   1.103  0.00  0.00    +0.069 C 
ATOM     13  H   UNL     1       0.011   4.973  -0.928  0.00  0.00    +0.169 HD
ENDROOT
BRANCH  11  14
ATOM     14  C   UNL     1      -1.242   6.567  -0.241  0.00  0.00    +0.042 A 
ATOM     15  C   UNL     1      -2.069   6.345   0.863  0.00  0.00    +0.026 A 
ATOM     16  C   UNL     1      -3.268   7.018   0.969  0.00  0.00    +0.002 A 
ATOM     17  C   UNL     1      -3.658   7.903  -0.021  0.00  0.00    +0.003 A 
ATOM     18  C   UNL     1      -2.847   8.124  -1.120  0.00  0.00    -0.049 A 
ATOM     19  C   UNL     1      -1.642   7.463  -1.236  0.00  0.00    +0.029 A 
ATOM     20  C   UNL     1      -3.280   9.091  -2.192  0.00  0.00    +0.044 C 
ENDBRANCH  11  14
BRANCH   1  22
ATOM     21  N   UNL     1       1.163   3.482   0.012  0.00  0.00    -0.281 N 
ATOM     22  C   UNL     1       2.319   4.169   0.106  0.00  0.00    +0.253 C 
ATOM     23  O   UNL     1       3.381   3.576   0.094  0.00  0.00    -0.270 OA
ATOM     24  H   UNL     1       0.206   4.022  -0.052  0.00  0.00    +0.155 HD
BRANCH  21  29
ATOM     25  C   UNL     1       1.228  -2.189  -0.053  0.00  0.00    +0.044 C 
ATOM     26  C   UNL     1       1.211  -0.683  -0.035  0.00  0.00    -0.050 A 
ATOM     27  C   UNL     1       0.174  -0.012   0.588  0.00  0.00    +0.005 A 
ATOM     28  C   UNL     1       0.155   1.369   0.605  0.00  0.00    +0.023 A 
ATOM     29  C   UNL     1       1.179   2.084  -0.003  0.00  0.00    +0.034 A 
ATOM     30  C   UNL     1       2.218   1.407  -0.628  0.00  0.00    +0.023 A 
ATOM     31  C   UNL     1       2.231   0.026  -0.642  0.00  0.00    +0.005 A 
ENDBRANCH  21  29
ENDBRANCH   1  22
BRANCH   4  32
ATOM     32  C   UNL     1       5.804   8.116  -0.013  0.00  0.00    +0.269 C 
BRANCH  32  33
ATOM     33  O   UNL     1       6.755   9.206  -0.128  0.00  0.00    -0.460 OA
BRANCH  33  34
ATOM     34  C   UNL     1       8.030   8.877  -0.389  0.00  0.00    +0.304 C 
ATOM     35  O   UNL     1       8.341   7.716  -0.518  0.00  0.00    -0.251 OA
ATOM     36  C   UNL     1       9.075   9.955  -0.522  0.00  0.00    +0.136 C 
ENDBRANCH  33  34
ENDBRANCH  32  33
ENDBRANCH   4  32
TORSDOF 6
