REMARK  Name = ZINC35458552
REMARK  12 active torsions:
REMARK  status: ('A' for Active; 'I' for Inactive)
REMARK    1  A    between atoms: C_1  and  C_2
REMARK    2  A    between atoms: C_9  and  O_15
REMARK    3  A    between atoms: O_15  and  C_16
REMARK    4  A    between atoms: C_17  and  C_42
REMARK    5  A    between atoms: C_21  and  C_40
REMARK    6  A    between atoms: C_21  and  C_41
REMARK    7  A    between atoms: C_22  and  O_39
REMARK    8  A    between atoms: C_23  and  O_28
REMARK    9  A    between atoms: C_25  and  O_27
REMARK   10  A    between atoms: O_28  and  C_29
REMARK   11  A    between atoms: C_29  and  C_31
REMARK   12  A    between atoms: C_32  and  C_33
REMARK                            x       y       z     vdW  Elec       q    Type
REMARK                         _______ _______ _______ _____ _____    ______ ____
ROOT
ATOM      1  C   UNL     1      -0.019   1.526   0.010  0.00  0.00    +0.013 C 
ATOM      2  C   UNL     1       0.002  -0.004   0.002  0.00  0.00    +0.024 C 
ATOM      3  C   UNL     1       0.804  -0.588  -1.171  0.00  0.00    +0.032 C 
ATOM      4  C   UNL     1       2.267  -0.209  -1.056  0.00  0.00    +0.011 C 
ATOM      5  C   UNL     1       2.940  -0.763   0.198  0.00  0.00    +0.088 C 
ATOM      6  C   UNL     1       1.957  -1.328   1.210  0.00  0.00    +0.239 C 
ATOM      7  C   UNL     1       0.731  -0.440   1.255  0.00  0.00    +0.011 C 
ATOM      8  C   UNL     1       0.484  -0.164   2.520  0.00  0.00    +0.097 C 
ATOM      9  C   UNL     1       1.528  -0.797   3.342  0.00  0.00    +0.335 C 
ATOM     10  O   UNL     1       1.528  -0.843   4.556  0.00  0.00    -0.246 OA
ATOM     11  O   UNL     1       2.490  -1.292   2.538  0.00  0.00    -0.425 OA
ATOM     12  C   UNL     1       3.050  -0.661  -2.287  0.00  0.00    +0.004 C 
ATOM     13  C   UNL     1       4.528  -0.304  -2.111  0.00  0.00    +0.010 C 
ATOM     14  C   UNL     1       4.651   1.220  -2.021  0.00  0.00    +0.001 C 
ATOM     15  C   UNL     1       4.247   1.804  -3.368  0.00  0.00    +0.009 C 
ATOM     16  C   UNL     1       2.818   1.425  -3.763  0.00  0.00    -0.002 C 
ATOM     17  C   UNL     1       2.503  -0.042  -3.567  0.00  0.00    +0.116 C 
ATOM     18  C   UNL     1       1.038  -0.406  -3.729  0.00  0.00    +0.238 C 
ATOM     19  C   UNL     1       0.160  -0.301  -2.500  0.00  0.00    +0.162 C 
ATOM     20  C   UNL     1       2.727   1.746  -5.279  0.00  0.00    +0.014 C 
ATOM     21  C   UNL     1       1.842   2.357  -3.047  0.00  0.00    +0.014 C 
ATOM     22  C   UNL     1       2.957  -2.191  -2.428  0.00  0.00    +0.014 C 
ENDROOT
BRANCH   6  23
ATOM     23  O   UNL     1       1.597  -2.666   0.865  0.00  0.00    -0.339 OA
ATOM     24  C   UNL     1       0.671  -3.271   1.771  0.00  0.00    +0.199 C 
ENDBRANCH   6  23
BRANCH  19  25
ATOM     25  O   UNL     1      -0.602   0.902  -2.547  0.00  0.00    -0.388 OA
ATOM     26  H   UNL     1      -1.011   1.075  -3.406  0.00  0.00    +0.210 HD
ENDBRANCH  19  25
BRANCH  17  27
ATOM     27  O   UNL     1       3.190  -0.741  -4.651  0.00  0.00    -0.384 OA
ATOM     28  H   UNL     1       2.935  -0.444  -5.535  0.00  0.00    +0.210 HD
ENDBRANCH  17  27
BRANCH  18  29
ATOM     29  O   UNL     1       0.420   0.317  -4.802  0.00  0.00    -0.453 OA
BRANCH  29  30
ATOM     30  C   UNL     1      -0.594  -0.293  -5.448  0.00  0.00    +0.332 C 
ATOM     31  O   UNL     1      -0.946  -1.408  -5.113  0.00  0.00    -0.246 OA
BRANCH  30  32
ATOM     32  C   UNL     1      -1.271   0.385  -6.552  0.00  0.00    +0.092 C 
ATOM     33  C   UNL     1      -2.286  -0.225  -7.199  0.00  0.00    +0.015 C 
BRANCH  33  34
ATOM     34  C   UNL     1      -2.967   0.458  -8.310  0.00  0.00    -0.025 A 
ATOM     35  C   UNL     1      -2.562   1.738  -8.703  0.00  0.00    +0.008 A 
ATOM     36  C   UNL     1      -3.205   2.371  -9.745  0.00  0.00    +0.001 A 
ATOM     37  C   UNL     1      -4.250   1.743 -10.402  0.00  0.00    +0.000 A 
ATOM     38  C   UNL     1      -4.656   0.477 -10.020  0.00  0.00    +0.001 A 
ATOM     39  C   UNL     1      -4.019  -0.172  -8.983  0.00  0.00    +0.008 A 
ENDBRANCH  33  34
ENDBRANCH  30  32
ENDBRANCH  29  30
ENDBRANCH  18  29
TORSDOF 7
