REMARK  Name = ZINC02122874
REMARK  5 active torsions:
REMARK  status: ('A' for Active; 'I' for Inactive)
REMARK    1  A    between atoms: C_1  and  C_2
REMARK    2  A    between atoms: C_2  and  C_4
REMARK    3  A    between atoms: C_2  and  O_18
REMARK    4  A    between atoms: C_9  and  O_17
REMARK    5  A    between atoms: O_18  and  C_19
REMARK                            x       y       z     vdW  Elec       q    Type
REMARK                         _______ _______ _______ _____ _____    ______ ____
ROOT
ATOM      1  C   UNL     1       3.429  -2.472   1.552  0.00  0.00    +0.062 C 
ATOM      2  C   UNL     1       3.515  -2.051   0.083  0.00  0.00    +0.256 C 
ENDROOT
BRANCH   2   3
ATOM      3  C   UNL     1       4.745  -2.657  -0.542  0.00  0.00    +0.256 C 
ATOM      4  O   UNL     1       5.672  -1.946  -0.867  0.00  0.00    -0.272 OA
ATOM      5  N   UNL     1       4.815  -3.988  -0.740  0.00  0.00    -0.298 N 
ATOM      6  C   UNL     1       6.050  -4.607  -1.240  0.00  0.00    +0.110 C 
ATOM      7  C   UNL     1       5.716  -5.443  -2.479  0.00  0.00    +0.054 C 
ATOM      8  C   UNL     1       4.610  -6.444  -2.133  0.00  0.00    +0.072 C 
ATOM      9  C   UNL     1       4.292  -7.290  -3.369  0.00  0.00    +0.035 C 
ATOM     10  C   UNL     1       3.841  -6.373  -4.508  0.00  0.00    +0.003 C 
ATOM     11  C   UNL     1       2.588  -5.605  -4.081  0.00  0.00    +0.001 C 
ATOM     12  C   UNL     1       2.901  -4.766  -2.841  0.00  0.00    +0.008 C 
ATOM     13  C   UNL     1       3.354  -5.686  -1.696  0.00  0.00    +0.038 C 
ATOM     14  C   UNL     1       3.660  -4.850  -0.454  0.00  0.00    +0.114 C 
BRANCH   8  15
ATOM     15  O   UNL     1       5.049  -7.294  -1.071  0.00  0.00    -0.388 OA
ATOM     16  H   UNL     1       5.842  -7.806  -1.280  0.00  0.00    +0.210 HD
ENDBRANCH   8  15
ENDBRANCH   2   3
BRANCH   2  17
ATOM     17  O   UNL     1       3.589  -0.627  -0.001  0.00  0.00    -0.480 OA
BRANCH  17  18
ATOM     18  C   UNL     1       2.418   0.056   0.060  0.00  0.00    +0.125 A 
ATOM     19  C   UNL     1       2.430   1.450   0.059  0.00  0.00    +0.046 A 
ATOM     20  C   UNL     1       1.261   2.152   0.118  0.00  0.00    +0.015 A 
ATOM     21  C   UNL     1       0.042   1.466   0.180  0.00  0.00    +0.021 A 
ATOM     22  C   UNL     1       0.024   0.061   0.183  0.00  0.00    +0.143 A 
ATOM     23  C   UNL     1       1.220  -0.638   0.122  0.00  0.00    +0.092 A 
ATOM     24  O   UNL     1      -1.157  -0.591   0.245  0.00  0.00    -0.422 OA
ATOM     25  C   UNL     1      -2.318   0.074   0.298  0.00  0.00    +0.341 A 
ATOM     26  O   UNL     1      -3.357  -0.558   0.351  0.00  0.00    -0.245 OA
ATOM     27  C   UNL     1      -2.376   1.490   0.294  0.00  0.00    +0.041 A 
ATOM     28  C   UNL     1      -1.228   2.200   0.248  0.00  0.00    -0.027 A 
ATOM     29  C   UNL     1      -1.189   3.703   0.255  0.00  0.00    +0.036 C 
ATOM     30  C   UNL     1      -2.556   4.280  -0.111  0.00  0.00    +0.005 C 
ATOM     31  C   UNL     1      -3.615   3.604   0.768  0.00  0.00    +0.005 C 
ATOM     32  C   UNL     1      -3.733   2.142   0.341  0.00  0.00    +0.042 C 
ENDBRANCH  17  18
ENDBRANCH   2  17
TORSDOF 4
