REMARK  Name = ZINC03652487
REMARK  7 active torsions:
REMARK  status: ('A' for Active; 'I' for Inactive)
REMARK    1  A    between atoms: C_1  and  C_2
REMARK    2  A    between atoms: C_2  and  C_4
REMARK    3  A    between atoms: C_2  and  N_10
REMARK    4  A    between atoms: C_14  and  C_15
REMARK    5  A    between atoms: C_16  and  N_26
REMARK    6  A    between atoms: N_26  and  C_27
REMARK    7  A    between atoms: C_27  and  C_28
REMARK                            x       y       z     vdW  Elec       q    Type
REMARK                         _______ _______ _______ _____ _____    ______ ____
ROOT
ATOM      1  C   UNL     1       6.301  10.703  -2.913  0.00  0.00    +0.081 A 
ATOM      2  C   UNL     1       6.933  10.951  -4.154  0.00  0.00    +0.134 A 
ATOM      3  N   UNL     1       7.369  12.171  -4.433  0.00  0.00    -0.214 NA
ATOM      4  C   UNL     1       7.236  13.176  -3.567  0.00  0.00    +0.142 A 
ATOM      5  C   UNL     1       7.722  14.449  -3.916  0.00  0.00    +0.047 A 
ATOM      6  C   UNL     1       7.592  15.483  -3.037  0.00  0.00    +0.005 A 
ATOM      7  C   UNL     1       6.975  15.263  -1.798  0.00  0.00    +0.018 A 
ATOM      8  C   UNL     1       6.513  14.033  -1.479  0.00  0.00    +0.096 A 
ATOM      9  N   UNL     1       6.639  12.993  -2.351  0.00  0.00    -0.268 N 
ATOM     10  C   UNL     1       6.166  11.777  -2.001  0.00  0.00    +0.267 A 
ATOM     11  O   UNL     1       5.633  11.607  -0.918  0.00  0.00    -0.267 OA
ENDROOT
BRANCH   1  16
ATOM     12  N   UNL     1       7.365   6.090  -2.606  0.00  0.00    -0.248 N 
ATOM     13  C   UNL     1       6.369   6.951  -2.498  0.00  0.00    +0.259 C 
ATOM     14  O   UNL     1       5.234   6.571  -2.273  0.00  0.00    -0.269 OA
ATOM     15  C   UNL     1       6.660   8.337  -2.653  0.00  0.00    +0.077 C 
ATOM     16  C   UNL     1       5.822   9.412  -2.588  0.00  0.00    +0.037 C 
ATOM     17  S   UNL     1       8.421   8.284  -2.955  0.00  0.00    -0.061 S 
ATOM     18  C   UNL     1       8.626   6.513  -2.851  0.00  0.00    +0.121 C 
ATOM     19  S   UNL     1      10.055   5.585  -3.020  0.00  0.00    -0.027 S 
BRANCH  12  21
ATOM     20  C   UNL     1       5.913   4.456  -1.510  0.00  0.00    +0.033 C 
ATOM     21  C   UNL     1       7.101   4.657  -2.452  0.00  0.00    +0.110 C 
BRANCH  21  22
ATOM     22  C   UNL     1       6.783   4.058  -3.798  0.00  0.00    -0.027 A 
ATOM     23  C   UNL     1       7.375   2.870  -4.183  0.00  0.00    +0.005 A 
ATOM     24  C   UNL     1       7.083   2.320  -5.417  0.00  0.00    +0.000 A 
ATOM     25  C   UNL     1       6.202   2.961  -6.268  0.00  0.00    +0.000 A 
ATOM     26  C   UNL     1       5.606   4.146  -5.881  0.00  0.00    +0.000 A 
ATOM     27  C   UNL     1       5.898   4.696  -4.647  0.00  0.00    +0.005 A 
ENDBRANCH  21  22
ENDBRANCH  12  21
ENDBRANCH   1  16
BRANCH   2  28
ATOM     28  N   UNL     1       7.090   9.933  -5.069  0.00  0.00    -0.321 N 
ATOM     29  H   UNL     1       6.766   9.042  -4.862  0.00  0.00    +0.148 HD
BRANCH  28  30
ATOM     30  C   UNL     1       7.744  10.195  -6.353  0.00  0.00    +0.177 C 
BRANCH  30  31
ATOM     31  C   UNL     1       7.789   8.926  -7.163  0.00  0.00    +0.122 A 
ATOM     32  C   UNL     1       6.843   8.509  -8.024  0.00  0.00    +0.046 A 
ATOM     33  C   UNL     1       7.292   7.280  -8.561  0.00  0.00    +0.041 A 
ATOM     34  C   UNL     1       8.480   7.016  -7.990  0.00  0.00    +0.195 A 
ATOM     35  O   UNL     1       8.776   8.016  -7.144  0.00  0.00    -0.466 OA
ENDBRANCH  30  31
ENDBRANCH  28  30
ENDBRANCH   2  28
TORSDOF 6
