REMARK  Name = ZINC64503452
REMARK  8 active torsions:
REMARK  status: ('A' for Active; 'I' for Inactive)
REMARK    1  A    between atoms: C_4  and  C_7
REMARK    2  A    between atoms: C_11  and  C_14
REMARK    3  A    between atoms: C_19  and  O_20
REMARK    4  A    between atoms: O_20  and  C_21
REMARK    5  A    between atoms: C_21  and  C_22
REMARK    6  A    between atoms: N_24  and  C_25
REMARK    7  A    between atoms: C_25  and  C_26
REMARK    8  A    between atoms: C_26  and  C_27
REMARK                            x       y       z     vdW  Elec       q    Type
REMARK                         _______ _______ _______ _____ _____    ______ ____
ROOT
ATOM      1  C   UNL     1       5.048  -3.129  -2.391  0.00  0.00    +0.039 A 
ATOM      2  C   UNL     1       4.254  -4.258  -2.452  0.00  0.00    +0.011 A 
ATOM      3  C   UNL     1       4.307  -5.082  -3.561  0.00  0.00    +0.001 A 
ATOM      4  C   UNL     1       5.154  -4.779  -4.611  0.00  0.00    +0.004 A 
ATOM      5  C   UNL     1       5.949  -3.652  -4.555  0.00  0.00    +0.046 A 
ATOM      6  C   UNL     1       5.894  -2.820  -3.446  0.00  0.00    +0.128 A 
ENDROOT
BRANCH   1  10
ATOM      7  C   UNL     1       3.600  -1.001   0.129  0.00  0.00    +0.233 C 
ATOM      8  N   UNL     1       3.886  -2.239   0.892  0.00  0.00    -0.223 NA
ATOM      9  N   UNL     1       4.781  -3.031   0.046  0.00  0.00    -0.223 NA
ATOM     10  C   UNL     1       4.990  -2.231  -1.182  0.00  0.00    +0.237 C 
ATOM     11  O   UNL     1       3.836  -1.360  -1.251  0.00  0.00    -0.333 OA
ATOM     12  H   UNL     1       3.036  -2.744   1.092  0.00  0.00    +0.144 HD
ATOM     13  H   UNL     1       4.373  -3.928  -0.171  0.00  0.00    +0.144 HD
BRANCH   7  17
ATOM     14  C   UNL     1      -0.463   0.191   0.686  0.00  0.00    +0.000 A 
ATOM     15  C   UNL     1       0.282  -0.249   1.764  0.00  0.00    +0.000 A 
ATOM     16  C   UNL     1       1.597  -0.635   1.584  0.00  0.00    +0.007 A 
ATOM     17  C   UNL     1       2.167  -0.581   0.326  0.00  0.00    -0.003 A 
ATOM     18  C   UNL     1       1.421  -0.142  -0.752  0.00  0.00    +0.007 A 
ATOM     19  C   UNL     1       0.106   0.245  -0.572  0.00  0.00    +0.000 A 
ENDBRANCH   7  17
ENDBRANCH   1  10
BRANCH   6  20
ATOM     20  O   UNL     1       6.671  -1.706  -3.391  0.00  0.00    -0.482 OA
BRANCH  20  21
ATOM     21  C   UNL     1       7.519  -1.450  -4.513  0.00  0.00    +0.324 C 
BRANCH  21  22
ATOM     22  C   UNL     1       8.300  -0.184  -4.274  0.00  0.00    +0.251 C 
ATOM     23  O   UNL     1       8.146   0.438  -3.244  0.00  0.00    -0.272 OA
ATOM     24  N   UNL     1       9.169   0.257  -5.205  0.00  0.00    -0.312 N 
ATOM     25  H   UNL     1       9.292  -0.240  -6.028  0.00  0.00    +0.149 HD
BRANCH  24  26
ATOM     26  C   UNL     1       9.928   1.488  -4.973  0.00  0.00    +0.108 C 
BRANCH  26  27
ATOM     27  C   UNL     1      10.835   1.762  -6.174  0.00  0.00    +0.052 C 
BRANCH  27  28
ATOM     28  C   UNL     1      11.616   3.029  -5.935  0.00  0.00    -0.040 C 
ATOM     29  C   UNL     1      12.868   3.130  -5.432  0.00  0.00    -0.001 A 
ATOM     30  C   UNL     1      13.839   2.130  -4.973  0.00  0.00    +0.010 A 
ATOM     31  C   UNL     1      15.039   2.545  -4.510  0.00  0.00    +0.001 A 
ATOM     32  C   UNL     1      15.379   3.904  -4.457  0.00  0.00    +0.002 A 
ATOM     33  C   UNL     1      14.540   4.881  -4.860  0.00  0.00    +0.026 A 
ATOM     34  C   UNL     1      13.251   4.559  -5.366  0.00  0.00    +0.043 A 
ATOM     35  N   UNL     1      12.274   5.311  -5.811  0.00  0.00    -0.380 N 
ATOM     36  C   UNL     1      11.162   4.444  -6.216  0.00  0.00    +0.144 C 
ATOM     37  H   UNL     1      12.286   6.280  -5.867  0.00  0.00    +0.160 HD
ENDBRANCH  27  28
ENDBRANCH  26  27
ENDBRANCH  24  26
ENDBRANCH  21  22
ENDBRANCH  20  21
ENDBRANCH   6  20
TORSDOF 8
