REMARK  Name = ZINC65376685
REMARK  4 active torsions:
REMARK  status: ('A' for Active; 'I' for Inactive)
REMARK    1  A    between atoms: C_1  and  C_2
REMARK    2  A    between atoms: C_10  and  C_11
REMARK    3  A    between atoms: N_21  and  C_22
REMARK    4  A    between atoms: N_25  and  C_28
REMARK                            x       y       z     vdW  Elec       q    Type
REMARK                         _______ _______ _______ _____ _____    ______ ____
ROOT
ATOM      1  C   UNL     1       0.029  -0.145   2.561  0.00  0.00    +0.070 C 
ATOM      2  C   UNL     1      -1.200  -0.659   3.318  0.00  0.00    +0.109 C 
ATOM      3  C   UNL     1      -1.031  -2.093   3.729  0.00  0.00    +0.219 C 
ATOM      4  O   UNL     1      -1.997  -2.826   3.706  0.00  0.00    -0.275 OA
ATOM      5  N   UNL     1       0.159  -2.596   4.122  0.00  0.00    -0.270 N 
ATOM      6  C   UNL     1       1.285  -1.780   4.011  0.00  0.00    +0.127 A 
ATOM      7  C   UNL     1       1.264  -0.618   3.283  0.00  0.00    +0.020 A 
ATOM      8  C   UNL     1       2.522  -0.040   3.361  0.00  0.00    +0.140 A 
ATOM      9  N   UNL     1       3.280  -0.812   4.105  0.00  0.00    -0.177 NA
ATOM     10  N   UNL     1       2.515  -1.915   4.525  0.00  0.00    -0.247 N 
ATOM     11  H   UNL     1       0.229  -3.498   4.472  0.00  0.00    +0.156 HD
ENDROOT
BRANCH   1  21
ATOM     12  C   UNL     1      -0.018   1.503   0.010  0.00  0.00    +0.045 C 
ATOM     13  C   UNL     1       0.002  -0.004   0.002  0.00  0.00    -0.032 A 
ATOM     14  C   UNL     1       0.006  -0.732  -1.258  0.00  0.00    -0.008 A 
ATOM     15  C   UNL     1      -0.008  -0.220  -2.577  0.00  0.00    +0.009 A 
ATOM     16  C   UNL     1      -0.002  -1.058  -3.648  0.00  0.00    +0.001 A 
ATOM     17  C   UNL     1       0.018  -2.438  -3.490  0.00  0.00    +0.001 A 
ATOM     18  C   UNL     1       0.032  -2.977  -2.219  0.00  0.00    +0.015 A 
ATOM     19  C   UNL     1       0.026  -2.138  -1.126  0.00  0.00    +0.020 A 
ATOM     20  S   UNL     1       0.038  -2.391   0.630  0.00  0.00    -0.092 S 
ATOM     21  C   UNL     1       0.022  -0.687   1.155  0.00  0.00    +0.002 A 
ENDBRANCH   1  21
BRANCH  10  22
ATOM     22  C   UNL     1       2.980  -3.016   5.373  0.00  0.00    +0.106 C 
ATOM     23  C   UNL     1       3.449  -2.460   6.721  0.00  0.00    +0.008 C 
ATOM     24  C   UNL     1       4.007  -3.604   7.571  0.00  0.00    -0.077 C 
ATOM     25  N   UNL     1       5.139  -4.228   6.877  0.00  0.00    +0.378 N 
ATOM     26  C   UNL     1       4.681  -4.826   5.617  0.00  0.00    -0.077 C 
ATOM     27  C   UNL     1       4.150  -3.730   4.691  0.00  0.00    +0.008 C 
ATOM     28  C   UNL     1       5.719  -5.274   7.731  0.00  0.00    -0.096 C 
ATOM     29  H   UNL     1       5.839  -3.529   6.681  0.00  0.00    -0.082 HD
ENDBRANCH  10  22
TORSDOF 2
