REMARK  Name = ZINC60334456
REMARK  4 active torsions:
REMARK  status: ('A' for Active; 'I' for Inactive)
REMARK    1  A    between atoms: C_3  and  C_6
REMARK    2  A    between atoms: C_9  and  C_11
REMARK    3  A    between atoms: N_13  and  C_14
REMARK    4  A    between atoms: C_21  and  C_24
REMARK                            x       y       z     vdW  Elec       q    Type
REMARK                         _______ _______ _______ _____ _____    ______ ____
ROOT
ATOM      1  C   UNL     1       3.152  -1.924  -4.310  0.00  0.00    +0.036 A 
ATOM      2  C   UNL     1       1.762  -1.847  -4.242  0.00  0.00    +0.025 A 
ATOM      3  C   UNL     1       0.982  -2.476  -5.188  0.00  0.00    +0.029 A 
ATOM      4  C   UNL     1       1.581  -3.192  -6.215  0.00  0.00    +0.067 A 
ATOM      5  C   UNL     1       2.982  -3.275  -6.292  0.00  0.00    +0.091 A 
ATOM      6  C   UNL     1       3.764  -2.628  -5.329  0.00  0.00    +0.053 A 
ATOM      7  N   UNL     1       3.282  -4.026  -7.380  0.00  0.00    -0.227 NA
ATOM      8  C   UNL     1       2.173  -4.407  -7.972  0.00  0.00    +0.146 A 
ATOM      9  N   UNL     1       1.091  -3.916  -7.289  0.00  0.00    -0.337 N 
ATOM     10  H   UNL     1       0.158  -4.051  -7.515  0.00  0.00    +0.167 HD
ENDROOT
BRANCH   8  11
ATOM     11  C   UNL     1       2.104  -5.235  -9.185  0.00  0.00    +0.054 A 
ATOM     12  C   UNL     1       3.134  -5.776  -9.932  0.00  0.00    +0.019 A 
ATOM     13  C   UNL     1       2.816  -6.525 -11.040  0.00  0.00    +0.008 A 
ATOM     14  C   UNL     1       1.509  -6.711 -11.365  0.00  0.00    +0.046 A 
ATOM     15  S   UNL     1       0.666  -5.811 -10.074  0.00  0.00    -0.094 S 
ENDBRANCH   8  11
BRANCH   1  18
ATOM     16  C   UNL     1       3.507  -1.214  -2.065  0.00  0.00    +0.221 C 
ATOM     17  O   UNL     1       2.410  -1.640  -1.770  0.00  0.00    -0.275 OA
ATOM     18  N   UNL     1       3.933  -1.279  -3.342  0.00  0.00    -0.285 N 
ATOM     19  H   UNL     1       4.781  -0.878  -3.591  0.00  0.00    +0.155 HD
BRANCH  16  22
ATOM     20  C   UNL     1       3.852  -0.569   0.426  0.00  0.00    +0.068 C 
ATOM     21  C   UNL     1       4.962  -1.556   0.059  0.00  0.00    +0.025 C 
ATOM     22  C   UNL     1       4.393  -0.613  -1.004  0.00  0.00    +0.086 C 
BRANCH  20  25
ATOM     23  C   UNL     1       0.339  -1.357   1.215  0.00  0.00    +0.041 A 
ATOM     24  C   UNL     1       1.421  -0.450   1.155  0.00  0.00    +0.045 A 
ATOM     25  C   UNL     1       2.474  -1.131   0.666  0.00  0.00    +0.109 A 
ATOM     26  O   UNL     1       2.088  -2.395   0.429  0.00  0.00    -0.468 OA
ATOM     27  C   UNL     1       0.795  -2.538   0.760  0.00  0.00    +0.195 A 
ENDBRANCH  20  25
ENDBRANCH  16  22
ENDBRANCH   1  18
TORSDOF 4
