REMARK  Name = ZINC39997898
REMARK  13 active torsions:
REMARK  status: ('A' for Active; 'I' for Inactive)
REMARK    1  A    between atoms: C_1  and  C_2
REMARK    2  A    between atoms: C_2  and  C_3
REMARK    3  A    between atoms: C_3  and  O_4
REMARK    4  A    between atoms: O_4  and  C_5
REMARK    5  A    between atoms: C_8  and  C_12
REMARK    6  A    between atoms: C_13  and  C_23
REMARK    7  A    between atoms: N_15  and  C_17
REMARK    8  A    between atoms: C_24  and  C_25
REMARK    9  A    between atoms: C_24  and  C_27
REMARK   10  A    between atoms: N_29  and  C_30
REMARK   11  A    between atoms: C_33  and  C_35
REMARK   12  A    between atoms: C_35  and  C_36
REMARK   13  A    between atoms: C_35  and  C_37
REMARK                            x       y       z     vdW  Elec       q    Type
REMARK                         _______ _______ _______ _____ _____    ______ ____
ROOT
ATOM      1  C   UNL     1      -6.751  -4.415  -0.477  0.00  0.00    +0.100 A 
ATOM      2  C   UNL     1      -6.855  -5.833  -0.846  0.00  0.00    +0.022 A 
ATOM      3  C   UNL     1      -8.145  -6.225  -0.521  0.00  0.00    +0.123 A 
ATOM      4  N   UNL     1      -8.778  -5.159  -0.003  0.00  0.00    -0.239 N 
ATOM      5  N   UNL     1      -7.913  -4.062   0.023  0.00  0.00    -0.166 NA
ENDROOT
BRANCH   1   9
ATOM      6  C   UNL     1      -3.331  -1.927  -0.927  0.00  0.00    +0.156 A 
ATOM      7  C   UNL     1      -4.602  -1.395  -1.094  0.00  0.00    +0.049 A 
ATOM      8  C   UNL     1      -5.713  -2.199  -0.949  0.00  0.00    +0.014 A 
ATOM      9  C   UNL     1      -5.559  -3.549  -0.634  0.00  0.00    +0.006 A 
ATOM     10  C   UNL     1      -4.281  -4.082  -0.467  0.00  0.00    +0.052 A 
ATOM     11  C   UNL     1      -3.173  -3.273  -0.618  0.00  0.00    +0.165 A 
ATOM     12  F   UNL     1      -1.934  -3.789  -0.462  0.00  0.00    -0.202 F 
BRANCH   6  13
ATOM     13  O   UNL     1      -2.238  -1.131  -1.070  0.00  0.00    -0.489 OA
BRANCH  13  14
ATOM     14  C   UNL     1      -2.473   0.243  -1.387  0.00  0.00    +0.229 C 
BRANCH  14  16
ATOM     15  C   UNL     1      -1.387   2.445  -1.847  0.00  0.00    +0.007 C 
ATOM     16  C   UNL     1      -1.135   0.974  -1.508  0.00  0.00    +0.038 C 
ENDBRANCH  14  16
ENDBRANCH  13  14
ENDBRANCH   6  13
ENDBRANCH   1   9
BRANCH   4  17
ATOM     17  C   UNL     1     -10.104  -5.150   0.449  0.00  0.00    +0.065 A 
ATOM     18  C   UNL     1     -10.869  -6.308   0.384  0.00  0.00    +0.028 A 
ATOM     19  C   UNL     1     -12.176  -6.296   0.831  0.00  0.00    +0.002 A 
ATOM     20  C   UNL     1     -12.723  -5.134   1.342  0.00  0.00    +0.000 A 
ATOM     21  C   UNL     1     -11.964  -3.979   1.407  0.00  0.00    +0.002 A 
ATOM     22  C   UNL     1     -10.655  -3.986   0.968  0.00  0.00    +0.028 A 
ENDBRANCH   4  17
BRANCH   2  23
ATOM     23  C   UNL     1      -5.809  -6.665  -1.438  0.00  0.00    +0.036 C 
ATOM     24  C   UNL     1      -5.923  -8.040  -1.412  0.00  0.00    +0.119 C 
BRANCH  24  25
ATOM     25  C   UNL     1      -4.952  -8.872  -2.134  0.00  0.00    +0.290 C 
ATOM     26  O   UNL     1      -3.946  -8.290  -2.825  0.00  0.00    -0.264 OA
ATOM     27  N   UNL     1      -5.061 -10.183  -2.109  0.00  0.00    -0.180 NA
BRANCH  27  28
ATOM     28  C   UNL     1      -4.162 -10.952  -2.777  0.00  0.00    +0.218 A 
ATOM     29  N   UNL     1      -3.104 -10.597  -3.507  0.00  0.00    -0.121 NA
ATOM     30  N   UNL     1      -2.368 -11.456  -4.064  0.00  0.00    -0.144 NA
ATOM     31  C   UNL     1      -2.596 -12.751  -3.962  0.00  0.00    +0.106 A 
ATOM     32  S   UNL     1      -4.055 -12.733  -2.925  0.00  0.00    -0.031 S 
BRANCH  31  33
ATOM     33  C   UNL     1      -1.839 -13.915  -4.548  0.00  0.00    +0.040 C 
ATOM     34  C   UNL     1      -1.837 -13.806  -6.074  0.00  0.00    +0.014 C 
ATOM     35  C   UNL     1      -0.399 -13.898  -4.033  0.00  0.00    +0.014 C 
ENDBRANCH  31  33
ENDBRANCH  27  28
ENDBRANCH  24  25
BRANCH  24  36
ATOM     36  C   UNL     1      -6.989  -8.656  -0.680  0.00  0.00    +0.105 C 
ATOM     37  N   UNL     1      -7.834  -9.145  -0.100  0.00  0.00    -0.191 NA
ENDBRANCH  24  36
ENDBRANCH   2  23
TORSDOF 10
