REMARK  Name = ZINC63007833
REMARK  7 active torsions:
REMARK  status: ('A' for Active; 'I' for Inactive)
REMARK    1  A    between atoms: C_1  and  C_2
REMARK    2  A    between atoms: C_2  and  C_4
REMARK    3  A    between atoms: C_2  and  N_8
REMARK    4  A    between atoms: N_6  and  C_7
REMARK    5  A    between atoms: C_9  and  C_11
REMARK    6  A    between atoms: C_14  and  N_18
REMARK    7  A    between atoms: N_18  and  N_19
REMARK                            x       y       z     vdW  Elec       q    Type
REMARK                         _______ _______ _______ _____ _____    ______ ____
ROOT
ATOM      1  C   UNL     1      -3.435  -1.153  -1.134  0.00  0.00    +0.042 A 
ATOM      2  C   UNL     1      -4.046  -1.496   0.076  0.00  0.00    +0.053 A 
ATOM      3  C   UNL     1      -5.339  -1.973   0.083  0.00  0.00    +0.149 A 
ATOM      4  C   UNL     1      -6.037  -2.114  -1.115  0.00  0.00    +0.112 A 
ATOM      5  C   UNL     1      -5.430  -1.774  -2.322  0.00  0.00    +0.149 A 
ATOM      6  C   UNL     1      -4.140  -1.290  -2.333  0.00  0.00    +0.053 A 
ATOM      7  F   UNL     1      -6.110  -1.913  -3.481  0.00  0.00    -0.203 F 
ATOM      8  F   UNL     1      -5.930  -2.304   1.252  0.00  0.00    -0.203 F 
ENDROOT
BRANCH   1  10
ATOM      9  N   UNL     1      -1.372  -0.511   0.012  0.00  0.00    -0.300 N 
ATOM     10  C   UNL     1      -2.051  -0.643  -1.145  0.00  0.00    +0.245 C 
ATOM     11  O   UNL     1      -1.522  -0.341  -2.197  0.00  0.00    -0.270 OA
ATOM     12  H   UNL     1      -1.794  -0.752   0.852  0.00  0.00    +0.150 HD
BRANCH   9  14
ATOM     13  C   UNL     1      -0.019   1.526   0.010  0.00  0.00    +0.038 C 
ATOM     14  C   UNL     1       0.002  -0.004   0.002  0.00  0.00    +0.156 C 
BRANCH  14  15
ATOM     15  C   UNL     1       0.731  -0.503   1.223  0.00  0.00    +0.233 C 
ATOM     16  O   UNL     1       0.159  -1.213   2.023  0.00  0.00    -0.274 OA
ATOM     17  N   UNL     1       2.019  -0.161   1.426  0.00  0.00    -0.317 N 
ATOM     18  C   UNL     1       2.727  -0.647   2.613  0.00  0.00    +0.128 C 
ATOM     19  H   UNL     1       2.476   0.406   0.786  0.00  0.00    +0.148 HD
ENDBRANCH  14  15
ENDBRANCH   9  14
ENDBRANCH   1  10
BRANCH   4  20
ATOM     20  N   UNL     1      -7.344  -2.597  -1.105  0.00  0.00    -0.278 N 
ATOM     21  H   UNL     1      -7.693  -3.035  -0.313  0.00  0.00    +0.166 HD
BRANCH  20  22
ATOM     22  N   UNL     1      -8.134  -2.453  -2.210  0.00  0.00    -0.256 NA
ATOM     23  H   UNL     1      -7.696  -2.861  -3.022  0.00  0.00    +0.140 HD
ATOM     24  H   UNL     1      -9.049  -2.849  -2.055  0.00  0.00    +0.140 HD
ENDBRANCH  20  22
ENDBRANCH   4  20
TORSDOF 5
