REMARK  Name = ZINC09014623
REMARK  9 active torsions:
REMARK  status: ('A' for Active; 'I' for Inactive)
REMARK    1  A    between atoms: C_1  and  C_2
REMARK    2  A    between atoms: C_2  and  C_4
REMARK    3  A    between atoms: C_2  and  S_16
REMARK    4  A    between atoms: N_6  and  C_7
REMARK    5  A    between atoms: C_10  and  N_13
REMARK    6  A    between atoms: N_13  and  C_14
REMARK    7  A    between atoms: N_13  and  C_15
REMARK    8  A    between atoms: S_16  and  C_17
REMARK    9  A    between atoms: N_29  and  C_30
REMARK                            x       y       z     vdW  Elec       q    Type
REMARK                         _______ _______ _______ _____ _____    ______ ____
ROOT
ATOM      1  C   UNL     1      -2.316  -0.390  -0.074  0.00  0.00    +0.029 C 
ATOM      2  C   UNL     1      -2.587   0.610   1.051  0.00  0.00    +0.137 C 
ENDROOT
BRANCH   2   3
ATOM      3  C   UNL     1      -4.010   1.098   0.959  0.00  0.00    +0.230 C 
ATOM      4  O   UNL     1      -4.261   2.130   0.373  0.00  0.00    -0.274 OA
ATOM      5  N   UNL     1      -5.004   0.387   1.526  0.00  0.00    -0.285 N 
ATOM      6  H   UNL     1      -4.814  -0.474   1.931  0.00  0.00    +0.155 HD
BRANCH   5   7
ATOM      7  C   UNL     1      -6.312   0.891   1.532  0.00  0.00    +0.034 A 
ATOM      8  C   UNL     1      -6.529   2.256   1.659  0.00  0.00    +0.025 A 
ATOM      9  C   UNL     1      -7.816   2.754   1.658  0.00  0.00    +0.025 A 
ATOM     10  C   UNL     1      -8.895   1.887   1.542  0.00  0.00    +0.029 A 
ATOM     11  C   UNL     1      -8.678   0.521   1.421  0.00  0.00    +0.025 A 
ATOM     12  C   UNL     1      -7.390   0.024   1.416  0.00  0.00    +0.025 A 
BRANCH  10  13
ATOM     13  N   UNL     1     -10.201   2.390   1.546  0.00  0.00    -0.336 N 
ATOM     14  C   UNL     1     -11.340   1.474   1.453  0.00  0.00    +0.129 C 
ATOM     15  C   UNL     1     -10.428   3.834   1.644  0.00  0.00    +0.129 C 
ENDBRANCH  10  13
ENDBRANCH   5   7
ENDBRANCH   2   3
BRANCH   2  16
ATOM     16  S   UNL     1      -1.456   2.015   0.895  0.00  0.00    -0.075 S 
BRANCH  16  17
ATOM     17  C   UNL     1       0.081   1.205   1.184  0.00  0.00    +0.173 A 
ATOM     18  N   UNL     1       0.097  -0.091   1.424  0.00  0.00    -0.216 NA
ATOM     19  C   UNL     1       1.243  -0.727   1.640  0.00  0.00    +0.117 A 
ATOM     20  C   UNL     1       2.478  -0.063   1.623  0.00  0.00    +0.076 A 
ATOM     21  C   UNL     1       3.664  -0.899   1.879  0.00  0.00    -0.023 A 
ATOM     22  C   UNL     1       3.449  -2.204   2.105  0.00  0.00    -0.004 A 
ATOM     23  S   UNL     1       1.686  -2.408   1.991  0.00  0.00    -0.073 S 
ATOM     24  C   UNL     1       4.728  -2.956   2.357  0.00  0.00    +0.043 C 
ATOM     25  C   UNL     1       5.764  -1.858   2.685  0.00  0.00    +0.010 C 
ATOM     26  C   UNL     1       5.171  -0.639   1.952  0.00  0.00    +0.037 C 
ATOM     27  C   UNL     1       2.433   1.342   1.360  0.00  0.00    +0.263 A 
ATOM     28  O   UNL     1       3.459   1.999   1.327  0.00  0.00    -0.267 OA
ATOM     29  N   UNL     1       1.239   1.927   1.150  0.00  0.00    -0.290 N 
ATOM     30  C   UNL     1       1.181   3.366   0.880  0.00  0.00    +0.154 C 
ENDBRANCH  16  17
ENDBRANCH   2  16
TORSDOF 5
