REMARK  Name = ZINC02637224
REMARK  14 active torsions:
REMARK  status: ('A' for Active; 'I' for Inactive)
REMARK    1  A    between atoms: C_1  and  C_2
REMARK    2  A    between atoms: C_4  and  C_16
REMARK    3  A    between atoms: C_5  and  C_15
REMARK    4  A    between atoms: N_6  and  C_7
REMARK    5  A    between atoms: C_10  and  O_13
REMARK    6  A    between atoms: O_13  and  C_14
REMARK    7  A    between atoms: C_16  and  C_18
REMARK    8  A    between atoms: C_18  and  O_19
REMARK    9  A    between atoms: O_19  and  C_20
REMARK   10  A    between atoms: C_20  and  C_22
REMARK   11  A    between atoms: C_33  and  C_37
REMARK   12  A    between atoms: C_37  and  C_38
REMARK   13  A    between atoms: C_37  and  C_39
REMARK   14  A    between atoms: C_37  and  C_40
REMARK                            x       y       z     vdW  Elec       q    Type
REMARK                         _______ _______ _______ _____ _____    ______ ____
ROOT
ATOM      1  C   UNL     1      -1.256  -0.779   0.008  0.00  0.00    +0.341 C 
ATOM      2  O   UNL     1      -1.782  -1.092  -1.041  0.00  0.00    -0.245 OA
ENDROOT
BRANCH   1   3
ATOM      3  C   UNL     1       0.002  -0.004   0.002  0.00  0.00    +0.073 A 
ATOM      4  C   UNL     1      -0.017   1.412   0.010  0.00  0.00    +0.015 A 
ATOM      5  C   UNL     1      -1.219   2.130   0.031  0.00  0.00    +0.011 A 
ATOM      6  C   UNL     1      -1.189   3.493   0.035  0.00  0.00    +0.001 A 
ATOM      7  C   UNL     1       0.022   4.181   0.028  0.00  0.00    +0.002 A 
ATOM      8  C   UNL     1       1.208   3.514   0.012  0.00  0.00    +0.028 A 
ATOM      9  C   UNL     1       1.218   2.106   0.002  0.00  0.00    +0.072 A 
ATOM     10  N   UNL     1       2.361   1.424  -0.015  0.00  0.00    -0.251 NA
ATOM     11  C   UNL     1       2.405   0.106  -0.024  0.00  0.00    +0.046 A 
ATOM     12  C   UNL     1       1.239  -0.648  -0.012  0.00  0.00    -0.011 A 
ATOM     13  C   UNL     1       1.242  -2.154  -0.007  0.00  0.00    +0.042 C 
ATOM     14  C   UNL     1       2.603  -2.689  -0.447  0.00  0.00    -0.001 C 
ATOM     15  C   UNL     1       3.687  -1.996   0.386  0.00  0.00    +0.010 C 
ATOM     16  C   UNL     1       3.771  -0.535  -0.049  0.00  0.00    +0.056 C 
BRANCH  14  17
ATOM     17  C   UNL     1       2.662  -4.200  -0.215  0.00  0.00    -0.035 C 
ATOM     18  C   UNL     1       2.430  -4.498   1.268  0.00  0.00    +0.011 C 
ATOM     19  C   UNL     1       1.579  -4.887  -1.049  0.00  0.00    +0.011 C 
ATOM     20  C   UNL     1       4.037  -4.727  -0.632  0.00  0.00    +0.011 C 
ENDBRANCH  14  17
ENDBRANCH   1   3
BRANCH   1  21
ATOM     21  O   UNL     1      -1.820  -1.139   1.178  0.00  0.00    -0.453 OA
BRANCH  21  22
ATOM     22  C   UNL     1      -3.055  -1.899   1.108  0.00  0.00    +0.311 C 
BRANCH  22  23
ATOM     23  C   UNL     1      -3.534  -2.208   2.503  0.00  0.00    +0.202 C 
ATOM     24  O   UNL     1      -2.896  -1.826   3.462  0.00  0.00    -0.288 OA
BRANCH  23  28
ATOM     25  C   UNL     1      -7.812  -4.835   1.634  0.00  0.00    +0.064 C 
ATOM     26  C   UNL     1      -6.658  -4.131   2.299  0.00  0.00    +0.022 A 
ATOM     27  C   UNL     1      -5.654  -3.506   1.659  0.00  0.00    +0.034 A 
ATOM     28  C   UNL     1      -4.768  -2.971   2.701  0.00  0.00    +0.042 A 
ATOM     29  C   UNL     1      -5.335  -3.339   3.908  0.00  0.00    +0.032 A 
ATOM     30  N   UNL     1      -6.464  -4.025   3.648  0.00  0.00    -0.317 N 
ATOM     31  C   UNL     1      -4.786  -3.025   5.275  0.00  0.00    +0.064 C 
BRANCH  30  32
ATOM     32  C   UNL     1      -7.318  -4.561   4.623  0.00  0.00    +0.047 A 
ATOM     33  C   UNL     1      -8.005  -3.716   5.485  0.00  0.00    +0.030 A 
ATOM     34  C   UNL     1      -8.849  -4.244   6.441  0.00  0.00    +0.047 A 
ATOM     35  C   UNL     1      -9.003  -5.619   6.549  0.00  0.00    +0.120 A 
ATOM     36  C   UNL     1      -8.312  -6.463   5.692  0.00  0.00    +0.047 A 
ATOM     37  C   UNL     1      -7.472  -5.937   4.732  0.00  0.00    +0.030 A 
BRANCH  35  38
ATOM     38  O   UNL     1      -9.830  -6.138   7.495  0.00  0.00    -0.495 OA
ATOM     39  C   UNL     1     -10.509  -5.210   8.343  0.00  0.00    +0.277 C 
ENDBRANCH  35  38
ENDBRANCH  30  32
ENDBRANCH  23  28
ENDBRANCH  22  23
ENDBRANCH  21  22
ENDBRANCH   1  21
TORSDOF 8
