REMARK  Name = ZINC40760892
REMARK  8 active torsions:
REMARK  status: ('A' for Active; 'I' for Inactive)
REMARK    1  A    between atoms: C_1  and  C_2
REMARK    2  A    between atoms: C_2  and  C_31
REMARK    3  A    between atoms: C_4  and  N_10
REMARK    4  A    between atoms: C_6  and  C_8
REMARK    5  A    between atoms: C_6  and  C_9
REMARK    6  A    between atoms: C_12  and  N_30
REMARK    7  A    between atoms: C_13  and  N_17
REMARK    8  A    between atoms: N_20  and  C_23
REMARK                            x       y       z     vdW  Elec       q    Type
REMARK                         _______ _______ _______ _____ _____    ______ ____
ROOT
ATOM      1  N   UNL     1       2.559  -0.747  -2.692  0.00  0.00    -0.325 N 
ATOM      2  C   UNL     1       3.779  -0.283  -3.172  0.00  0.00    +0.145 A 
ATOM      3  C   UNL     1       4.304  -0.777  -4.367  0.00  0.00    +0.105 A 
ATOM      4  C   UNL     1       5.532  -0.277  -4.804  0.00  0.00    +0.147 A 
ATOM      5  N   UNL     1       6.151   0.644  -4.070  0.00  0.00    -0.219 NA
ATOM      6  C   UNL     1       5.620   1.084  -2.947  0.00  0.00    +0.225 A 
ATOM      7  N   UNL     1       4.461   0.642  -2.502  0.00  0.00    -0.219 NA
ATOM      8  H   UNL     1       2.068  -1.421  -3.187  0.00  0.00    +0.148 HD
ENDROOT
BRANCH   1  12
ATOM      9  C   UNL     1      -0.070   1.677  -0.121  0.00  0.00    -0.010 C 
ATOM     10  C   UNL     1      -0.097   0.145  -0.133  0.00  0.00    -0.072 C 
ATOM     11  C   UNL     1       0.494  -0.371  -1.441  0.00  0.00    +0.009 C 
ATOM     12  C   UNL     1       2.014  -0.215  -1.437  0.00  0.00    +0.069 C 
ATOM     13  C   UNL     1       2.573  -1.020  -0.264  0.00  0.00    +0.009 C 
ATOM     14  C   UNL     1       1.998  -0.510   1.054  0.00  0.00    -0.072 C 
ATOM     15  N   UNL     1       0.550  -0.404   1.046  0.00  0.00    +0.386 N 
ATOM     16  C   UNL     1       2.652   0.826   1.422  0.00  0.00    -0.010 C 
ATOM     17  C   UNL     1       2.389  -1.525   2.153  0.00  0.00    -0.010 C 
ATOM     18  C   UNL     1      -1.583  -0.283  -0.097  0.00  0.00    -0.010 C 
ATOM     19  H   UNL     1       0.264   0.154   1.857  0.00  0.00    -0.084 HD
ATOM     20  H   UNL     1       0.159  -1.335   1.221  0.00  0.00    -0.084 HD
ENDBRANCH   1  12
BRANCH   4  21
ATOM     21  N   UNL     1       6.099  -0.735  -5.987  0.00  0.00    -0.311 N 
ATOM     22  C   UNL     1       5.872  -0.021  -7.251  0.00  0.00    +0.125 C 
ATOM     23  C   UNL     1       7.232   0.332  -7.866  0.00  0.00    +0.124 C 
ATOM     24  N   UNL     1       8.071  -0.875  -7.875  0.00  0.00    -0.325 N 
ATOM     25  C   UNL     1       8.298  -1.589  -6.611  0.00  0.00    +0.124 C 
ATOM     26  C   UNL     1       6.943  -1.939  -5.995  0.00  0.00    +0.125 C 
BRANCH  24  27
ATOM     27  C   UNL     1       8.642  -1.335  -9.065  0.00  0.00    +0.065 A 
ATOM     28  C   UNL     1       9.902  -0.895  -9.449  0.00  0.00    +0.026 A 
ATOM     29  C   UNL     1      10.464  -1.352 -10.625  0.00  0.00    +0.002 A 
ATOM     30  C   UNL     1       9.774  -2.248 -11.421  0.00  0.00    +0.003 A 
ATOM     31  C   UNL     1       8.519  -2.689 -11.044  0.00  0.00    +0.040 A 
ATOM     32  C   UNL     1       7.953  -2.241  -9.865  0.00  0.00    +0.144 A 
ATOM     33  F   UNL     1       6.729  -2.677  -9.493  0.00  0.00    -0.204 F 
ENDBRANCH  24  27
ENDBRANCH   4  21
BRANCH   3  34
ATOM     34  N   UNL     1       3.616  -1.751  -5.110  0.00  0.00    -0.353 N 
ATOM     35  H   UNL     1       2.810  -2.155  -4.751  0.00  0.00    +0.143 HD
ATOM     36  H   UNL     1       3.946  -2.019  -5.981  0.00  0.00    +0.143 HD
ENDBRANCH   3  34
TORSDOF 4
