REMARK  Name = ZINC12139913
REMARK  4 active torsions:
REMARK  status: ('A' for Active; 'I' for Inactive)
REMARK    1  A    between atoms: C_5  and  S_6
REMARK    2  A    between atoms: S_6  and  N_9
REMARK    3  A    between atoms: N_12  and  S_15
REMARK    4  A    between atoms: S_15  and  C_18
REMARK                            x       y       z     vdW  Elec       q    Type
REMARK                         _______ _______ _______ _____ _____    ______ ____
ROOT
ATOM      1  N   UNL     1       4.484  -0.618  -1.626  0.00  0.00    -0.174 NA
ATOM      2  C   UNL     1       4.298  -1.887  -2.344  0.00  0.00    +0.126 C 
ATOM      3  C   UNL     1       3.468  -1.611  -3.609  0.00  0.00    +0.126 C 
ATOM      4  N   UNL     1       4.066  -0.475  -4.324  0.00  0.00    -0.174 NA
ATOM      5  C   UNL     1       4.257   0.793  -3.604  0.00  0.00    +0.126 C 
ATOM      6  C   UNL     1       5.082   0.519  -2.340  0.00  0.00    +0.126 C 
ENDROOT
BRANCH   1   7
ATOM      7  S   UNL     1       4.034  -0.473  -0.039  0.00  0.00    +0.067 S 
ATOM      8  O   UNL     1       4.814   0.580   0.510  0.00  0.00    -0.152 OA
ATOM      9  O   UNL     1       4.036  -1.786   0.505  0.00  0.00    -0.152 OA
BRANCH   7  14
ATOM     10  C   UNL     1       1.221  -0.657  -0.013  0.00  0.00    +0.038 A 
ATOM     11  C   UNL     1       0.002  -0.004   0.002  0.00  0.00    +0.030 A 
ATOM     12  C   UNL     1      -0.016   1.352   0.009  0.00  0.00    +0.080 A 
ATOM     13  S   UNL     1       1.725   1.745  -0.005  0.00  0.00    -0.057 S 
ATOM     14  C   UNL     1       2.360   0.077  -0.020  0.00  0.00    +0.144 A 
ATOM     15 CL   UNL     1      -1.379   2.427   0.022  0.00  0.00    -0.076 Cl
ENDBRANCH   7  14
ENDBRANCH   1   7
BRANCH   4  16
ATOM     16  S   UNL     1       4.517  -0.619  -5.910  0.00  0.00    +0.067 S 
ATOM     17  O   UNL     1       3.738  -1.673  -6.460  0.00  0.00    -0.152 OA
ATOM     18  O   UNL     1       4.515   0.694  -6.454  0.00  0.00    -0.152 OA
BRANCH  16  19
ATOM     19  C   UNL     1       6.191  -1.169  -5.928  0.00  0.00    +0.144 A 
ATOM     20  C   UNL     1       6.673  -2.436  -5.939  0.00  0.00    +0.038 A 
ATOM     21  C   UNL     1       8.041  -2.633  -5.952  0.00  0.00    +0.030 A 
ATOM     22  C   UNL     1       8.861  -1.552  -5.954  0.00  0.00    +0.080 A 
ATOM     23  S   UNL     1       7.692  -0.202  -5.944  0.00  0.00    -0.057 S 
ATOM     24 CL   UNL     1      10.596  -1.495  -5.970  0.00  0.00    -0.076 Cl
ENDBRANCH  16  19
ENDBRANCH   4  16
TORSDOF 4
