REMARK  Name = ZINC15484183
REMARK  15 active torsions:
REMARK  status: ('A' for Active; 'I' for Inactive)
REMARK    1  A    between atoms: C_1  and  C_2
REMARK    2  A    between atoms: C_2  and  C_3
REMARK    3  A    between atoms: C_3  and  N_57
REMARK    4  A    between atoms: C_4  and  C_5
REMARK    5  A    between atoms: C_4  and  N_57
REMARK    6  A    between atoms: C_8  and  C_10
REMARK    7  A    between atoms: C_15  and  C_16
REMARK    8  A    between atoms: C_15  and  N_57
REMARK    9  A    between atoms: N_18  and  C_19
REMARK   10  A    between atoms: C_20  and  C_26
REMARK   11  A    between atoms: C_22  and  C_24
REMARK   12  A    between atoms: C_24  and  C_25
REMARK   13  A    between atoms: C_26  and  O_28
REMARK   14  A    between atoms: O_28  and  C_29
REMARK   15  A    between atoms: C_29  and  C_30
REMARK                            x       y       z     vdW  Elec       q    Type
REMARK                         _______ _______ _______ _____ _____    ______ ____
ROOT
ATOM      1  C   UNL     1       0.037   1.077   2.553  0.00  0.00    +0.020 C 
ENDROOT
BRANCH   1   2
ATOM      2  C   UNL     1      -0.680   1.554   3.790  0.00  0.00    +0.201 C 
ATOM      3  O   UNL     1      -1.642   2.285   3.690  0.00  0.00    -0.278 OA
ATOM      4  N   UNL     1      -0.252   1.167   5.008  0.00  0.00    -0.281 N 
ATOM      5  H   UNL     1       0.518   0.582   5.089  0.00  0.00    +0.155 HD
BRANCH   4   6
ATOM      6  C   UNL     1      -0.911   1.605   6.146  0.00  0.00    +0.086 A 
ATOM      7  C   UNL     1      -0.623   1.319   7.476  0.00  0.00    +0.088 A 
ATOM      8  C   UNL     1      -1.484   1.916   8.470  0.00  0.00    +0.028 A 
ATOM      9  C   UNL     1      -2.486   2.695   8.026  0.00  0.00    -0.008 A 
ATOM     10  S   UNL     1      -2.289   2.648   6.256  0.00  0.00    -0.078 S 
BRANCH   9  11
ATOM     11  C   UNL     1      -3.522   3.435   8.832  0.00  0.00    +0.039 C 
ATOM     12  C   UNL     1      -3.005   4.836   9.164  0.00  0.00    +0.009 C 
ENDBRANCH   9  11
BRANCH   7  13
ATOM     13  C   UNL     1       0.498   0.454   7.851  0.00  0.00    +0.342 C 
ATOM     14  O   UNL     1       1.205  -0.033   6.989  0.00  0.00    -0.245 OA
BRANCH  13  15
ATOM     15  O   UNL     1       0.748   0.198   9.151  0.00  0.00    -0.461 OA
BRANCH  15  16
ATOM     16  C   UNL     1       1.875  -0.667   9.448  0.00  0.00    +0.229 C 
ATOM     17  C   UNL     1       2.000  -0.840  10.964  0.00  0.00    +0.048 C 
ENDBRANCH  15  16
ENDBRANCH  13  15
ENDBRANCH   7  13
ENDBRANCH   4   6
ENDBRANCH   1   2
BRANCH   1  18
ATOM     18  N   UNL     1      -0.704   1.548   1.364  0.00  0.00    +0.391 N 
ATOM     19  H   UNL     1      -0.945   2.538   1.491  0.00  0.00    -0.080 HD
BRANCH  18  20
ATOM     20  C   UNL     1      -1.949   0.768   1.204  0.00  0.00    -0.078 C 
BRANCH  20  22
ATOM     21  C   UNL     1      -2.934  -1.490   0.782  0.00  0.00    +0.002 C 
ATOM     22  C   UNL     1      -1.630  -0.708   0.956  0.00  0.00    -0.022 C 
ENDBRANCH  20  22
ENDBRANCH  18  20
BRANCH  18  23
ATOM     23  C   UNL     1       0.137   1.409   0.157  0.00  0.00    +0.021 C 
BRANCH  23  24
ATOM     24  C   UNL     1      -0.550   2.094  -0.996  0.00  0.00    +0.202 A 
ATOM     25  N   UNL     1      -0.426   3.347  -1.331  0.00  0.00    -0.114 NA
ATOM     26  N   UNL     1      -1.152   3.591  -2.365  0.00  0.00    -0.107 NA
ATOM     27  C   UNL     1      -1.778   2.492  -2.724  0.00  0.00    +0.255 A 
ATOM     28  O   UNL     1      -1.408   1.523  -1.861  0.00  0.00    -0.422 OA
BRANCH  27  29
ATOM     29  C   UNL     1      -2.708   2.346  -3.853  0.00  0.00    +0.076 A 
ATOM     30  C   UNL     1      -3.130   3.297  -4.764  0.00  0.00    +0.021 A 
ATOM     31  C   UNL     1      -4.013   2.916  -5.747  0.00  0.00    +0.008 A 
ATOM     32  C   UNL     1      -4.448   1.630  -5.787  0.00  0.00    +0.046 A 
ATOM     33  S   UNL     1      -3.594   0.896  -4.402  0.00  0.00    -0.092 S 
ENDBRANCH  27  29
ENDBRANCH  23  24
ENDBRANCH  18  23
ENDBRANCH   1  18
TORSDOF 12
