REMARK  Name = ZINC43409907
REMARK  4 active torsions:
REMARK  status: ('A' for Active; 'I' for Inactive)
REMARK    1  A    between atoms: C_1  and  C_2
REMARK    2  A    between atoms: C_2  and  C_3
REMARK    3  A    between atoms: C_9  and  C_18
REMARK    4  A    between atoms: C_18  and  N_19
REMARK                            x       y       z     vdW  Elec       q    Type
REMARK                         _______ _______ _______ _____ _____    ______ ____
ROOT
ATOM      1  C   UNL     1       0.922   0.746   2.362  0.00  0.00    +0.115 A 
ATOM      2  N   UNL     1       2.175   0.419   2.201  0.00  0.00    -0.240 NA
ATOM      3  C   UNL     1       2.309  -0.908   2.337  0.00  0.00    +0.131 A 
ATOM      4  C   UNL     1       1.095  -1.430   2.593  0.00  0.00    +0.114 A 
ATOM      5  N   UNL     1       0.209  -0.383   2.615  0.00  0.00    -0.288 N 
ATOM      6  C   UNL     1      -1.167  -0.463   2.850  0.00  0.00    +0.140 A 
ATOM      7  C   UNL     1      -1.635  -1.078   4.005  0.00  0.00    -0.022 A 
ATOM      8  C   UNL     1      -2.998  -1.148   4.216  0.00  0.00    +0.010 A 
ATOM      9  C   UNL     1      -3.857  -0.598   3.266  0.00  0.00    -0.026 A 
ATOM     10  C   UNL     1      -3.327   0.003   2.148  0.00  0.00    +0.047 A 
ATOM     11  N   UNL     1      -2.012   0.052   1.977  0.00  0.00    -0.234 NA
ATOM     12  C   UNL     1      -4.191   0.635   1.087  0.00  0.00    +0.056 C 
ATOM     13  C   UNL     1      -5.629   0.133   1.195  0.00  0.00    +0.006 C 
ATOM     14  C   UNL     1      -6.095   0.306   2.645  0.00  0.00    +0.005 C 
ATOM     15  C   UNL     1      -5.338  -0.694   3.517  0.00  0.00    +0.037 C 
ENDROOT
BRANCH   1  17
ATOM     16  C   UNL     1       0.403   2.785   3.675  0.00  0.00    +0.012 C 
ATOM     17  C   UNL     1       0.360   2.143   2.287  0.00  0.00    +0.071 C 
ENDBRANCH   1  17
BRANCH   7  18
ATOM     18  C   UNL     1      -0.672  -1.660   5.008  0.00  0.00    -0.047 C 
BRANCH  18  19
ATOM     19  N   UNL     1      -0.035  -0.572   5.762  0.00  0.00    +0.381 N 
ATOM     20  H   UNL     1       0.610  -0.962   6.434  0.00  0.00    -0.090 HD
ATOM     21  H   UNL     1       0.466   0.029   5.126  0.00  0.00    -0.090 HD
ATOM     22  H   UNL     1      -0.741  -0.038   6.245  0.00  0.00    -0.090 HD
ENDBRANCH  18  19
ENDBRANCH   7  18
TORSDOF 3
