REMARK  Name = ZINC21198139
REMARK  15 active torsions:
REMARK  status: ('A' for Active; 'I' for Inactive)
REMARK    1  A    between atoms: C_1  and  C_2
REMARK    2  A    between atoms: C_2  and  C_3
REMARK    3  A    between atoms: C_3  and  N_4
REMARK    4  A    between atoms: C_5  and  N_32
REMARK    5  A    between atoms: C_6  and  N_13
REMARK    6  A    between atoms: N_13  and  C_14
REMARK    7  A    between atoms: C_14  and  C_15
REMARK    8  A    between atoms: C_15  and  O_16
REMARK    9  A    between atoms: O_16  and  C_17
REMARK   10  A    between atoms: C_18  and  C_20
REMARK   11  A    between atoms: C_22  and  O_29
REMARK   12  A    between atoms: C_23  and  O_27
REMARK   13  A    between atoms: O_27  and  C_28
REMARK   14  A    between atoms: O_29  and  C_30
REMARK   15  A    between atoms: C_30  and  C_31
REMARK                            x       y       z     vdW  Elec       q    Type
REMARK                         _______ _______ _______ _____ _____    ______ ____
ROOT
ATOM      1  N   UNL     1       2.500   4.286   0.467  0.00  0.00    -0.258 N 
ATOM      2  C   UNL     1       3.446   3.664  -0.264  0.00  0.00    +0.251 C 
ATOM      3  O   UNL     1       4.244   4.317  -0.909  0.00  0.00    -0.270 OA
ENDROOT
BRANCH   1   6
ATOM      4  N   UNL     1      -0.744   2.889   1.480  0.00  0.00    -0.280 N 
ATOM      5  C   UNL     1       0.188   3.640   0.802  0.00  0.00    +0.127 A 
ATOM      6  C   UNL     1       1.520   3.529   1.143  0.00  0.00    +0.140 A 
ATOM      7  C   UNL     1       1.885   2.647   2.178  0.00  0.00    +0.277 A 
ATOM      8  O   UNL     1       3.055   2.529   2.499  0.00  0.00    -0.266 OA
ATOM      9  N   UNL     1       0.933   1.934   2.810  0.00  0.00    -0.273 N 
ATOM     10  H   UNL     1       1.210   1.240   3.617  0.00  0.00    +0.173 HD
ATOM     11  C   UNL     1      -0.362   2.059   2.467  0.00  0.00    +0.331 A 
ATOM     12  O   UNL     1      -1.201   1.407   3.058  0.00  0.00    -0.246 OA
BRANCH   5  13
ATOM     13  N   UNL     1      -0.204   4.492  -0.203  0.00  0.00    -0.343 N 
ATOM     14  H   UNL     1       0.547   5.090  -0.741  0.00  0.00    +0.144 HD
ATOM     15  H   UNL     1      -1.268   4.576  -0.470  0.00  0.00    +0.144 HD
ENDBRANCH   5  13
BRANCH   4  16
ATOM     16  C   UNL     1      -2.162   2.998   1.128  0.00  0.00    +0.128 C 
BRANCH  16  18
ATOM     17  C   UNL     1      -3.979   2.085  -0.324  0.00  0.00    +0.005 C 
ATOM     18  C   UNL     1      -2.498   1.972   0.043  0.00  0.00    +0.018 C 
ENDBRANCH  16  18
ENDBRANCH   4  16
ENDBRANCH   1   6
BRANCH   2  19
ATOM     19  C   UNL     1       3.514   2.189  -0.281  0.00  0.00    +0.042 A 
ATOM     20  C   UNL     1       4.740   1.547  -0.482  0.00  0.00    +0.062 A 
ATOM     21  C   UNL     1       4.799   0.168  -0.497  0.00  0.00    +0.164 A 
ATOM     22  C   UNL     1       3.638  -0.582  -0.314  0.00  0.00    +0.175 A 
ATOM     23  C   UNL     1       2.421   0.055  -0.114  0.00  0.00    +0.064 A 
ATOM     24  C   UNL     1       2.356   1.433  -0.092  0.00  0.00    +0.032 A 
ATOM     25 BR   UNL     1       0.849  -0.967   0.134  0.00  0.00    -0.046 Br
BRANCH  22  26
ATOM     26  O   UNL     1       3.698  -1.939  -0.330  0.00  0.00    -0.490 OA
ATOM     27  C   UNL     1       3.929  -2.593   0.920  0.00  0.00    +0.277 C 
ENDBRANCH  22  26
BRANCH  21  28
ATOM     28  O   UNL     1       5.990  -0.460  -0.692  0.00  0.00    -0.489 OA
BRANCH  28  29
ATOM     29  C   UNL     1       7.138   0.371  -0.873  0.00  0.00    +0.226 C 
ATOM     30  C   UNL     1       8.375  -0.507  -1.075  0.00  0.00    +0.048 C 
ENDBRANCH  28  29
ENDBRANCH  21  28
ENDBRANCH   2  19
BRANCH   1  31
ATOM     31  C   UNL     1       2.488   5.748   0.558  0.00  0.00    +0.142 C 
BRANCH  31  32
ATOM     32  C   UNL     1       3.259   6.187   1.805  0.00  0.00    +0.179 C 
BRANCH  32  33
ATOM     33  O   UNL     1       4.635   5.827   1.665  0.00  0.00    -0.381 OA
ATOM     34  C   UNL     1       5.447   6.195   2.782  0.00  0.00    +0.194 C 
ENDBRANCH  32  33
ENDBRANCH  31  32
ENDBRANCH   1  31
TORSDOF 11
