REMARK  Name = ZINC39606726
REMARK  9 active torsions:
REMARK  status: ('A' for Active; 'I' for Inactive)
REMARK    1  A    between atoms: C_1  and  C_2
REMARK    2  A    between atoms: C_9  and  C_14
REMARK    3  A    between atoms: C_14  and  O_16
REMARK    4  A    between atoms: O_16  and  C_17
REMARK    5  A    between atoms: C_17  and  C_19
REMARK    6  A    between atoms: C_17  and  C_20
REMARK    7  A    between atoms: C_20  and  N_22
REMARK    8  A    between atoms: C_25  and  C_28
REMARK    9  A    between atoms: C_32  and  N_34
REMARK                            x       y       z     vdW  Elec       q    Type
REMARK                         _______ _______ _______ _____ _____    ______ ____
ROOT
ATOM      1  C   UNL     1      -0.460  -8.650   2.204  0.00  0.00    +0.261 C 
ATOM      2  C   UNL     1      -0.037  -9.344   0.908  0.00  0.00    +0.062 C 
ENDROOT
BRANCH   1   3
ATOM      3  C   UNL     1       0.135  -9.379   3.382  0.00  0.00    +0.279 C 
ATOM      4  O   UNL     1       0.887  -8.796   4.141  0.00  0.00    -0.270 OA
BRANCH   3   5
ATOM      5  N   UNL     1      -0.160 -10.655   3.590  0.00  0.00    -0.153 NA
ATOM      6  C   UNL     1       0.367 -11.301   4.632  0.00  0.00    +0.163 A 
ATOM      7  N   UNL     1       0.186 -12.597   4.999  0.00  0.00    -0.335 N 
ATOM      8  C   UNL     1       0.826 -13.063   6.113  0.00  0.00    +0.055 A 
ATOM      9  C   UNL     1       1.606 -12.184   6.780  0.00  0.00    +0.074 A 
ATOM     10  S   UNL     1       1.419 -10.706   5.800  0.00  0.00    -0.060 S 
ATOM     11  H   UNL     1      -0.388 -13.181   4.479  0.00  0.00    +0.168 HD
BRANCH   8  12
ATOM     12  C   UNL     1       0.672 -14.463   6.567  0.00  0.00    +0.001 A 
ATOM     13  C   UNL     1      -0.138 -15.346   5.852  0.00  0.00    +0.010 A 
ATOM     14  C   UNL     1      -0.278 -16.650   6.281  0.00  0.00    +0.003 A 
ATOM     15  C   UNL     1       0.383 -17.082   7.418  0.00  0.00    +0.033 A 
ATOM     16  C   UNL     1       1.187 -16.211   8.131  0.00  0.00    +0.127 A 
ATOM     17  C   UNL     1       1.339 -14.906   7.709  0.00  0.00    +0.042 A 
BRANCH  16  18
ATOM     18  N   UNL     1       1.889 -16.681   9.346  0.00  0.00    +0.056 N 
ATOM     19  O   UNL     1       1.759 -17.826   9.714  0.00  0.00    -0.126 OA
ATOM     20  O   UNL     1       2.592 -15.921   9.970  0.00  0.00    -0.126 OA
ENDBRANCH  16  18
ENDBRANCH   8  12
ENDBRANCH   3   5
ENDBRANCH   1   3
BRANCH   1  21
ATOM     21  O   UNL     1       0.005  -7.299   2.196  0.00  0.00    -0.449 OA
BRANCH  21  22
ATOM     22  C   UNL     1      -0.819  -6.371   1.671  0.00  0.00    +0.340 C 
ATOM     23  O   UNL     1      -1.904  -6.700   1.233  0.00  0.00    -0.245 OA
BRANCH  22  31
ATOM     24  C   UNL     1      -0.019   1.526   0.010  0.00  0.00    +0.029 C 
ATOM     25  C   UNL     1       0.002  -0.004   0.002  0.00  0.00    +0.134 C 
ATOM     26  C   UNL     1      -1.408  -0.527   0.019  0.00  0.00    +0.230 C 
ATOM     27  O   UNL     1      -2.287   0.178  -0.429  0.00  0.00    -0.274 OA
ATOM     28  N   UNL     1      -1.745  -1.722   0.500  0.00  0.00    -0.284 N 
ATOM     29  C   UNL     1      -0.877  -2.667   1.042  0.00  0.00    +0.048 A 
ATOM     30  C   UNL     1      -1.262  -3.997   1.083  0.00  0.00    +0.039 A 
ATOM     31  C   UNL     1      -0.406  -4.958   1.628  0.00  0.00    +0.061 A 
ATOM     32  C   UNL     1       0.843  -4.580   2.133  0.00  0.00    +0.016 A 
ATOM     33  C   UNL     1       1.227  -3.258   2.090  0.00  0.00    +0.017 A 
ATOM     34  C   UNL     1       0.377  -2.304   1.547  0.00  0.00    +0.030 A 
ATOM     35  S   UNL     1       0.874  -0.610   1.478  0.00  0.00    -0.111 S 
ATOM     36  H   UNL     1      -2.685  -1.956   0.469  0.00  0.00    +0.155 HD
ENDBRANCH  22  31
ENDBRANCH  21  22
ENDBRANCH   1  21
TORSDOF 7
