REMARK  Name = ZINC13032314
REMARK  15 active torsions:
REMARK  status: ('A' for Active; 'I' for Inactive)
REMARK    1  A    between atoms: C_1  and  C_2
REMARK    2  A    between atoms: C_2  and  C_3
REMARK    3  A    between atoms: C_3  and  C_4
REMARK    4  A    between atoms: C_3  and  C_5
REMARK    5  A    between atoms: C_3  and  N_6
REMARK    6  A    between atoms: C_7  and  C_9
REMARK    7  A    between atoms: C_9  and  C_11
REMARK    8  A    between atoms: C_9  and  N_18
REMARK    9  A    between atoms: C_14  and  O_17
REMARK   10  A    between atoms: N_18  and  C_19
REMARK   11  A    between atoms: C_22  and  C_25
REMARK   12  A    between atoms: C_25  and  O_27
REMARK   13  A    between atoms: O_27  and  C_28
REMARK   14  A    between atoms: C_29  and  C_31
REMARK   15  A    between atoms: C_31  and  N_32
REMARK                            x       y       z     vdW  Elec       q    Type
REMARK                         _______ _______ _______ _____ _____    ______ ____
ROOT
ATOM      1  N   UNL     1      -2.602   2.778   0.883  0.00  0.00    -0.254 N 
ATOM      2  C   UNL     1      -3.099   2.006  -0.103  0.00  0.00    +0.242 C 
ATOM      3  O   UNL     1      -3.053   2.387  -1.254  0.00  0.00    -0.273 OA
ENDROOT
BRANCH   1   4
ATOM      4  C   UNL     1      -2.581   2.306   2.195  0.00  0.00    +0.038 A 
ATOM      5  C   UNL     1      -3.622   2.623   3.063  0.00  0.00    +0.024 A 
ATOM      6  C   UNL     1      -3.607   2.154   4.357  0.00  0.00    +0.017 A 
ATOM      7  C   UNL     1      -2.541   1.368   4.802  0.00  0.00    +0.059 A 
ATOM      8  C   UNL     1      -1.494   1.056   3.929  0.00  0.00    +0.017 A 
ATOM      9  C   UNL     1      -1.518   1.523   2.635  0.00  0.00    +0.024 A 
BRANCH   7  10
ATOM     10  C   UNL     1      -2.519   0.869   6.189  0.00  0.00    +0.339 C 
ATOM     11  O   UNL     1      -1.592   0.185   6.575  0.00  0.00    -0.245 OA
BRANCH  10  12
ATOM     12  O   UNL     1      -3.529   1.170   7.030  0.00  0.00    -0.464 OA
ATOM     13  C   UNL     1      -3.441   0.645   8.381  0.00  0.00    +0.280 C 
ENDBRANCH  10  12
ENDBRANCH   7  10
ENDBRANCH   1   4
BRANCH   1  14
ATOM     14  C   UNL     1      -2.082   4.113   0.577  0.00  0.00    +0.197 C 
BRANCH  14  15
ATOM     15  C   UNL     1      -0.779   3.986  -0.169  0.00  0.00    -0.018 A 
ATOM     16  C   UNL     1      -0.450   2.792  -0.785  0.00  0.00    +0.009 A 
ATOM     17  C   UNL     1       0.741   2.675  -1.475  0.00  0.00    +0.046 A 
ATOM     18  C   UNL     1       1.613   3.752  -1.539  0.00  0.00    +0.117 A 
ATOM     19  C   UNL     1       1.284   4.946  -0.915  0.00  0.00    +0.046 A 
ATOM     20  C   UNL     1       0.088   5.061  -0.232  0.00  0.00    +0.009 A 
BRANCH  18  21
ATOM     21  O   UNL     1       2.789   3.637  -2.211  0.00  0.00    -0.507 OA
ATOM     22  H   UNL     1       3.525   3.326  -1.666  0.00  0.00    +0.292 HD
ENDBRANCH  18  21
ENDBRANCH  14  15
BRANCH  14  24
ATOM     23  N   UNL     1      -2.787   6.092  -0.728  0.00  0.00    -0.308 N 
ATOM     24  C   UNL     1      -3.078   4.857  -0.275  0.00  0.00    +0.239 C 
ATOM     25  O   UNL     1      -4.141   4.344  -0.552  0.00  0.00    -0.273 OA
ATOM     26  H   UNL     1      -1.936   6.502  -0.506  0.00  0.00    +0.149 HD
BRANCH  23  27
ATOM     27  C   UNL     1      -3.755   6.815  -1.556  0.00  0.00    +0.029 C 
ATOM     28  C   UNL     1      -4.040   6.012  -2.827  0.00  0.00    +0.031 C 
ATOM     29  C   UNL     1      -5.055   7.006  -0.772  0.00  0.00    +0.031 C 
BRANCH  27  31
ATOM     30  C   UNL     1      -4.194   8.938  -2.799  0.00  0.00    +0.006 C 
ATOM     31  C   UNL     1      -3.182   8.183  -1.934  0.00  0.00    +0.022 C 
ENDBRANCH  27  31
ENDBRANCH  23  27
ENDBRANCH  14  24
ENDBRANCH   1  14
BRANCH   2  32
ATOM     32  C   UNL     1      -3.715   0.670   0.223  0.00  0.00    +0.242 C 
BRANCH  32  33
ATOM     33  N   UNL     1      -5.169   0.813   0.323  0.00  0.00    -0.235 N 
ATOM     34  C   UNL     1      -6.081   0.674  -0.696  0.00  0.00    +0.090 A 
ATOM     35  C   UNL     1      -5.978   0.384  -2.053  0.00  0.00    +0.029 A 
ATOM     36  C   UNL     1      -7.106   0.315  -2.820  0.00  0.00    +0.002 A 
ATOM     37  C   UNL     1      -8.358   0.532  -2.258  0.00  0.00    +0.002 A 
ATOM     38  C   UNL     1      -8.486   0.819  -0.931  0.00  0.00    +0.032 A 
ATOM     39  C   UNL     1      -7.345   0.895  -0.121  0.00  0.00    +0.113 A 
ATOM     40  N   UNL     1      -7.159   1.153   1.188  0.00  0.00    -0.129 NA
ATOM     41  N   UNL     1      -5.906   1.112   1.478  0.00  0.00    -0.064 NA
ENDBRANCH  32  33
ENDBRANCH   2  32
TORSDOF 11
