REMARK  Name = ZINC00650905
REMARK  16 active torsions:
REMARK  status: ('A' for Active; 'I' for Inactive)
REMARK    1  A    between atoms: C_1  and  C_2
REMARK    2  A    between atoms: C_4  and  C_35
REMARK    3  A    between atoms: C_5  and  C_20
REMARK    4  A    between atoms: C_7  and  C_8
REMARK    5  A    between atoms: C_8  and  O_9
REMARK    6  A    between atoms: O_9  and  C_10
REMARK    7  A    between atoms: C_11  and  O_18
REMARK    8  A    between atoms: C_15  and  O_16
REMARK    9  A    between atoms: O_16  and  C_17
REMARK   10  A    between atoms: O_18  and  C_19
REMARK   11  A    between atoms: C_22  and  C_33
REMARK   12  A    between atoms: C_23  and  N_32
REMARK   13  A    between atoms: C_25  and  C_31
REMARK   14  A    between atoms: C_26  and  C_27
REMARK   15  A    between atoms: C_27  and  O_29
REMARK   16  A    between atoms: O_29  and  C_30
REMARK                            x       y       z     vdW  Elec       q    Type
REMARK                         _______ _______ _______ _____ _____    ______ ____
ROOT
ATOM      1  C   UNL     1      -1.738  -2.102   7.079  0.00  0.00    +0.044 C 
ATOM      2  C   UNL     1      -1.425  -0.956   6.153  0.00  0.00    -0.044 A 
ATOM      3  C   UNL     1      -0.549   0.037   6.553  0.00  0.00    +0.007 A 
ATOM      4  C   UNL     1      -0.262   1.088   5.703  0.00  0.00    -0.046 A 
ATOM      5  C   UNL     1      -0.849   1.148   4.453  0.00  0.00    -0.031 A 
ATOM      6  C   UNL     1      -1.729   0.159   4.056  0.00  0.00    +0.012 A 
ATOM      7  C   UNL     1      -2.013  -0.896   4.903  0.00  0.00    -0.007 A 
ATOM      8  C   UNL     1       0.693   2.170   6.139  0.00  0.00    +0.044 C 
ENDROOT
BRANCH   5   9
ATOM      9  C   UNL     1      -0.536   2.295   3.527  0.00  0.00    +0.105 C 
ATOM     10  C   UNL     1      -1.779   3.113   3.306  0.00  0.00    +0.098 C 
ATOM     11  C   UNL     1      -2.475   3.015   2.147  0.00  0.00    +0.198 C 
ATOM     12  O   UNL     1      -2.091   2.195   1.157  0.00  0.00    -0.445 OA
ATOM     13  C   UNL     1      -0.831   1.736   1.131  0.00  0.00    +0.115 C 
ATOM     14  C   UNL     1      -0.041   1.755   2.213  0.00  0.00    +0.087 C 
ATOM     15  C   UNL     1      -0.282   1.186  -0.160  0.00  0.00    +0.087 C 
BRANCH  11  16
ATOM     16  N   UNL     1      -3.603   3.780   1.980  0.00  0.00    -0.328 N 
ATOM     17  H   UNL     1      -4.180   3.712   1.046  0.00  0.00    +0.145 HD
ATOM     18  H   UNL     1      -3.931   4.460   2.780  0.00  0.00    +0.145 HD
ENDBRANCH  11  16
BRANCH  14  19
ATOM     19  C   UNL     1       1.282   1.260   2.117  0.00  0.00    +0.339 C 
ATOM     20  O   UNL     1       1.729   0.922   1.037  0.00  0.00    -0.245 OA
BRANCH  19  21
ATOM     21  O   UNL     1       2.048   1.162   3.224  0.00  0.00    -0.465 OA
ATOM     22  C   UNL     1       3.372   0.654   3.054  0.00  0.00    +0.280 C 
ENDBRANCH  19  21
ENDBRANCH  14  19
BRANCH  10  23
ATOM     23  C   UNL     1      -2.231   4.006   4.330  0.00  0.00    +0.101 C 
ATOM     24  N   UNL     1      -2.590   4.714   5.143  0.00  0.00    -0.191 NA
ENDBRANCH  10  23
ENDBRANCH   5   9
BRANCH   7  25
ATOM     25  C   UNL     1      -2.966  -1.978   4.467  0.00  0.00    +0.265 C 
BRANCH  25  26
ATOM     26  O   UNL     1      -3.437  -1.694   3.148  0.00  0.00    -0.480 OA
BRANCH  26  27
ATOM     27  C   UNL     1      -4.314  -2.580   2.601  0.00  0.00    +0.204 A 
ATOM     28  C   UNL     1      -3.844  -3.654   1.854  0.00  0.00    +0.165 A 
ATOM     29  C   UNL     1      -4.740  -4.557   1.302  0.00  0.00    +0.049 A 
ATOM     30  C   UNL     1      -6.099  -4.385   1.486  0.00  0.00    +0.007 A 
ATOM     31  C   UNL     1      -6.570  -3.315   2.223  0.00  0.00    +0.049 A 
ATOM     32  C   UNL     1      -5.681  -2.410   2.783  0.00  0.00    +0.165 A 
BRANCH  32  33
ATOM     33  O   UNL     1      -6.146  -1.358   3.508  0.00  0.00    -0.491 OA
ATOM     34  C   UNL     1      -7.563  -1.246   3.653  0.00  0.00    +0.277 C 
ENDBRANCH  32  33
BRANCH  28  35
ATOM     35  O   UNL     1      -2.507  -3.822   1.669  0.00  0.00    -0.491 OA
ATOM     36  C   UNL     1      -2.096  -4.948   0.891  0.00  0.00    +0.277 C 
ENDBRANCH  28  35
ENDBRANCH  26  27
ENDBRANCH  25  26
ENDBRANCH   7  25
TORSDOF 10
