REMARK  Name = ZINC35070249
REMARK  11 active torsions:
REMARK  status: ('A' for Active; 'I' for Inactive)
REMARK    1  A    between atoms: C_1  and  C_2
REMARK    2  A    between atoms: C_5  and  N_9
REMARK    3  A    between atoms: C_6  and  C_8
REMARK    4  A    between atoms: C_19  and  C_20
REMARK    5  A    between atoms: C_20  and  C_22
REMARK    6  A    between atoms: C_20  and  N_23
REMARK    7  A    between atoms: N_23  and  C_24
REMARK    8  A    between atoms: C_24  and  C_25
REMARK    9  A    between atoms: C_25  and  O_26
REMARK   10  A    between atoms: O_26  and  C_27
REMARK   11  A    between atoms: N_30  and  C_31
REMARK                            x       y       z     vdW  Elec       q    Type
REMARK                         _______ _______ _______ _____ _____    ______ ____
ROOT
ATOM      1  N   UNL     1       0.537  -4.868   1.080  0.00  0.00    -0.263 N 
ATOM      2  C   UNL     1      -0.571  -5.643   1.148  0.00  0.00    +0.266 A 
ATOM      3  O   UNL     1      -1.171  -5.796   2.196  0.00  0.00    -0.267 OA
ATOM      4  C   UNL     1      -1.020  -6.291  -0.092  0.00  0.00    +0.065 A 
ATOM      5  C   UNL     1      -2.149  -7.108  -0.129  0.00  0.00    +0.015 A 
ATOM      6  C   UNL     1      -2.526  -7.691  -1.319  0.00  0.00    +0.001 A 
ATOM      7  C   UNL     1      -1.792  -7.471  -2.477  0.00  0.00    +0.002 A 
ATOM      8  C   UNL     1      -0.674  -6.668  -2.462  0.00  0.00    +0.028 A 
ATOM      9  C   UNL     1      -0.272  -6.065  -1.268  0.00  0.00    +0.078 A 
ATOM     10  N   UNL     1       0.823  -5.266  -1.208  0.00  0.00    -0.231 NA
ATOM     11  C   UNL     1       1.193  -4.701  -0.100  0.00  0.00    +0.138 A 
ENDROOT
BRANCH   1  16
ATOM     12  C   UNL     1       2.443  -2.272   5.753  0.00  0.00    +0.044 C 
ATOM     13  C   UNL     1       1.937  -2.962   4.512  0.00  0.00    -0.050 A 
ATOM     14  C   UNL     1       1.099  -2.288   3.641  0.00  0.00    +0.005 A 
ATOM     15  C   UNL     1       0.634  -2.917   2.503  0.00  0.00    +0.027 A 
ATOM     16  C   UNL     1       1.008  -4.227   2.233  0.00  0.00    +0.054 A 
ATOM     17  C   UNL     1       1.849  -4.900   3.109  0.00  0.00    -0.026 A 
ATOM     18  C   UNL     1       2.315  -4.264   4.243  0.00  0.00    +0.008 A 
ATOM     19  C   UNL     1       2.256  -6.322   2.820  0.00  0.00    +0.046 C 
ENDBRANCH   1  16
BRANCH  11  20
ATOM     20  C   UNL     1       2.417  -3.821  -0.119  0.00  0.00    +0.141 C 
ATOM     21  C   UNL     1       2.255  -2.745  -1.194  0.00  0.00    +0.036 C 
BRANCH  20  22
ATOM     22  N   UNL     1       3.598  -4.635  -0.417  0.00  0.00    -0.273 N 
ATOM     23  C   UNL     1       4.613  -4.699   0.468  0.00  0.00    +0.307 C 
ATOM     24  O   UNL     1       4.548  -4.082   1.513  0.00  0.00    -0.252 OA
ATOM     25  N   UNL     1       5.700  -5.448   0.194  0.00  0.00    -0.267 N 
ATOM     26  H   UNL     1       5.718  -6.003  -0.602  0.00  0.00    +0.156 HD
BRANCH  25  27
ATOM     27  C   UNL     1       6.803  -5.425   1.058  0.00  0.00    +0.070 A 
ATOM     28  C   UNL     1       7.023  -4.324   1.875  0.00  0.00    +0.029 A 
ATOM     29  C   UNL     1       8.111  -4.303   2.726  0.00  0.00    +0.040 A 
ATOM     30  C   UNL     1       8.982  -5.378   2.766  0.00  0.00    +0.126 A 
ATOM     31  C   UNL     1       8.767  -6.477   1.952  0.00  0.00    +0.078 A 
ATOM     32  C   UNL     1       7.676  -6.506   1.103  0.00  0.00    +0.147 A 
ATOM     33  F   UNL     1       7.461  -7.581   0.313  0.00  0.00    -0.203 F 
ATOM     34  F   UNL     1      10.046  -5.354   3.599  0.00  0.00    -0.205 F 
ENDBRANCH  25  27
BRANCH  22  35
ATOM     35  C   UNL     1       3.677  -5.379  -1.677  0.00  0.00    +0.138 C 
BRANCH  35  36
ATOM     36  C   UNL     1       4.328  -4.501  -2.748  0.00  0.00    +0.178 C 
BRANCH  36  37
ATOM     37  O   UNL     1       5.683  -4.230  -2.383  0.00  0.00    -0.381 OA
ATOM     38  C   UNL     1       6.385  -3.413  -3.321  0.00  0.00    +0.194 C 
ENDBRANCH  36  37
ENDBRANCH  35  36
ENDBRANCH  22  35
ENDBRANCH  20  22
ENDBRANCH  11  20
TORSDOF 7
