REMARK  Name = ZINC15955394
REMARK  4 active torsions:
REMARK  status: ('A' for Active; 'I' for Inactive)
REMARK    1  A    between atoms: C_4  and  C_7
REMARK    2  A    between atoms: C_7  and  N_70
REMARK    3  A    between atoms: C_10  and  N_13
REMARK    4  A    between atoms: C_33  and  C_35
REMARK                            x       y       z     vdW  Elec       q    Type
REMARK                         _______ _______ _______ _____ _____    ______ ____
ROOT
ATOM      1  N   UNL     1      -1.240   3.306  -0.158  0.00  0.00    -0.288 N 
ATOM      2  C   UNL     1      -1.354   1.857  -0.136  0.00  0.00    +0.204 C 
ATOM      3  C   UNL     1      -0.018   1.190  -0.088  0.00  0.00    +0.234 C 
ATOM      4  O   UNL     1       0.008  -0.023  -0.084  0.00  0.00    -0.274 OA
ATOM      5  N   UNL     1       1.148   1.837  -0.055  0.00  0.00    -0.276 N 
ATOM      6  C   UNL     1       1.253   3.294   0.023  0.00  0.00    +0.167 C 
ATOM      7  C   UNL     1      -0.081   3.959  -0.093  0.00  0.00    +0.237 C 
ATOM      8  O   UNL     1      -0.110   5.171  -0.132  0.00  0.00    -0.274 OA
ATOM      9  C   UNL     1       1.908   3.683   1.355  0.00  0.00    +0.069 C 
ATOM     10  C   UNL     1       3.101   2.792   1.591  0.00  0.00    -0.015 A 
ATOM     11  C   UNL     1       4.202   2.991   2.511  0.00  0.00    +0.003 A 
ATOM     12  C   UNL     1       4.505   4.009   3.421  0.00  0.00    +0.010 A 
ATOM     13  C   UNL     1       5.660   3.865   4.150  0.00  0.00    +0.001 A 
ATOM     14  C   UNL     1       6.493   2.769   4.002  0.00  0.00    +0.002 A 
ATOM     15  C   UNL     1       6.219   1.749   3.107  0.00  0.00    +0.026 A 
ATOM     16  C   UNL     1       5.054   1.867   2.353  0.00  0.00    +0.047 A 
ATOM     17  N   UNL     1       4.494   1.065   1.401  0.00  0.00    -0.356 N 
ATOM     18  H   UNL     1       4.865   0.224   1.090  0.00  0.00    +0.166 HD
ATOM     19  C   UNL     1       3.328   1.625   0.950  0.00  0.00    +0.046 A 
ATOM     20  C   UNL     1       2.403   1.057  -0.103  0.00  0.00    +0.154 C 
ENDROOT
BRANCH   1  23
ATOM     21  C   UNL     1      -4.517   4.507  -1.633  0.00  0.00    -0.077 C 
ATOM     22  C   UNL     1      -3.203   3.726  -1.558  0.00  0.00    +0.004 C 
ATOM     23  C   UNL     1      -2.470   4.093  -0.264  0.00  0.00    +0.073 C 
ATOM     24  C   UNL     1      -3.377   3.789   0.932  0.00  0.00    +0.004 C 
ATOM     25  C   UNL     1      -4.687   4.567   0.783  0.00  0.00    -0.077 C 
ATOM     26  N   UNL     1      -5.354   4.150  -0.469  0.00  0.00    +0.382 N 
ATOM     27  H   UNL     1      -5.487   3.132  -0.453  0.00  0.00    -0.081 HD
BRANCH  26  28
ATOM     28  C   UNL     1      -6.675   4.803  -0.578  0.00  0.00    -0.043 C 
BRANCH  28  32
ATOM     29  C   UNL     1      -8.755   4.383   3.129  0.00  0.00    +0.000 A 
ATOM     30  C   UNL     1      -7.960   5.491   2.905  0.00  0.00    +0.000 A 
ATOM     31  C   UNL     1      -7.287   5.627   1.705  0.00  0.00    +0.002 A 
ATOM     32  C   UNL     1      -7.409   4.655   0.730  0.00  0.00    -0.064 A 
ATOM     33  C   UNL     1      -8.209   3.550   0.952  0.00  0.00    +0.002 A 
ATOM     34  C   UNL     1      -8.878   3.411   2.154  0.00  0.00    +0.000 A 
ENDBRANCH  28  32
ENDBRANCH  26  28
ENDBRANCH   1  23
BRANCH  20  35
ATOM     35  C   UNL     1       2.118  -0.392   0.194  0.00  0.00    -0.021 A 
ATOM     36  C   UNL     1       1.703  -0.770   1.457  0.00  0.00    +0.006 A 
ATOM     37  C   UNL     1       1.436  -2.099   1.728  0.00  0.00    +0.000 A 
ATOM     38  C   UNL     1       1.594  -3.052   0.739  0.00  0.00    +0.000 A 
ATOM     39  C   UNL     1       2.013  -2.674  -0.523  0.00  0.00    +0.000 A 
ATOM     40  C   UNL     1       2.275  -1.345  -0.795  0.00  0.00    +0.006 A 
ENDBRANCH  20  35
TORSDOF 4
