REMARK  Name = ZINC16661538
REMARK  8 active torsions:
REMARK  status: ('A' for Active; 'I' for Inactive)
REMARK    1  A    between atoms: C_1  and  C_2
REMARK    2  A    between atoms: C_5  and  C_9
REMARK    3  A    between atoms: C_6  and  C_8
REMARK    4  A    between atoms: N_11  and  N_12
REMARK    5  A    between atoms: C_16  and  C_17
REMARK    6  A    between atoms: C_20  and  O_25
REMARK    7  A    between atoms: C_21  and  O_23
REMARK    8  A    between atoms: O_23  and  C_24
REMARK                            x       y       z     vdW  Elec       q    Type
REMARK                         _______ _______ _______ _____ _____    ______ ____
ROOT
ATOM      1  N   UNL     1      -0.691   9.399   0.666  0.00  0.00    -0.169 N 
ATOM      2  C   UNL     1      -0.437   8.118   0.874  0.00  0.00    +0.275 C 
ATOM      3  O   UNL     1      -0.708   7.575   1.929  0.00  0.00    -0.267 OA
ATOM      4  C   UNL     1       0.192   7.380  -0.240  0.00  0.00    +0.079 C 
ATOM      5  C   UNL     1       0.562   6.076  -0.313  0.00  0.00    +0.028 C 
ATOM      6  S   UNL     1       0.338   8.677  -1.461  0.00  0.00    -0.059 S 
ATOM      7  C   UNL     1      -0.389   9.997  -0.504  0.00  0.00    +0.138 C 
ATOM      8  S   UNL     1      -0.636  11.629  -0.959  0.00  0.00    -0.026 S 
ENDROOT
BRANCH   5   9
ATOM      9  C   UNL     1       0.190   5.145   0.760  0.00  0.00    -0.020 A 
ATOM     10  C   UNL     1       1.079   4.138   1.155  0.00  0.00    +0.012 A 
ATOM     11  C   UNL     1       0.727   3.266   2.162  0.00  0.00    +0.050 A 
ATOM     12  C   UNL     1      -0.507   3.383   2.787  0.00  0.00    +0.158 A 
ATOM     13  C   UNL     1      -1.398   4.384   2.400  0.00  0.00    +0.162 A 
ATOM     14  C   UNL     1      -1.056   5.259   1.388  0.00  0.00    +0.057 A 
BRANCH  13  15
ATOM     15  O   UNL     1      -2.606   4.494   3.015  0.00  0.00    -0.491 OA
ATOM     16  C   UNL     1      -3.468   5.542   2.567  0.00  0.00    +0.277 C 
ENDBRANCH  13  15
BRANCH  12  17
ATOM     17  O   UNL     1      -0.848   2.521   3.780  0.00  0.00    -0.503 OA
ATOM     18  H   UNL     1      -1.302   1.724   3.470  0.00  0.00    +0.292 HD
ENDBRANCH  12  17
ENDBRANCH   5   9
BRANCH   1  21
ATOM     19  C   UNL     1      -0.548  11.026   2.398  0.00  0.00    +0.261 C 
ATOM     20  O   UNL     1       0.635  11.161   2.156  0.00  0.00    -0.269 OA
ATOM     21  N   UNL     1      -1.287  10.153   1.686  0.00  0.00    -0.222 N 
ATOM     22  H   UNL     1      -2.232  10.046   1.880  0.00  0.00    +0.174 HD
BRANCH  19  27
ATOM     23  C   UNL     1      -2.997  14.120   6.588  0.00  0.00    +0.044 C 
ATOM     24  C   UNL     1      -2.355  13.310   5.491  0.00  0.00    -0.050 A 
ATOM     25  C   UNL     1      -3.139  12.515   4.674  0.00  0.00    +0.004 A 
ATOM     26  C   UNL     1      -2.559  11.771   3.667  0.00  0.00    +0.013 A 
ATOM     27  C   UNL     1      -1.177  11.822   3.474  0.00  0.00    +0.041 A 
ATOM     28  C   UNL     1      -0.392  12.621   4.306  0.00  0.00    -0.038 A 
ATOM     29  C   UNL     1      -0.986  13.364   5.305  0.00  0.00    +0.007 A 
ATOM     30  C   UNL     1       1.101  12.678   4.108  0.00  0.00    +0.044 C 
ENDBRANCH  19  27
ENDBRANCH   1  21
TORSDOF 5
