REMARK  Name = ZINC15306190
REMARK  8 active torsions:
REMARK  status: ('A' for Active; 'I' for Inactive)
REMARK    1  A    between atoms: C_1  and  O_2
REMARK    2  A    between atoms: O_2  and  C_3
REMARK    3  A    between atoms: C_6  and  C_9
REMARK    4  A    between atoms: C_14  and  O_41
REMARK    5  A    between atoms: C_15  and  O_40
REMARK    6  A    between atoms: C_26  and  C_32
REMARK    7  A    between atoms: C_35  and  O_38
REMARK    8  A    between atoms: O_38  and  C_39
REMARK                            x       y       z     vdW  Elec       q    Type
REMARK                         _______ _______ _______ _____ _____    ______ ____
ROOT
ATOM      1  C   UNL     1      -0.388   0.898   2.563  0.00  0.00    +0.061 C 
ATOM      2  C   UNL     1      -1.233   1.584   3.624  0.00  0.00    +0.006 A 
ATOM      3  C   UNL     1      -1.382   0.958   4.850  0.00  0.00    +0.011 A 
ATOM      4  C   UNL     1      -2.148   1.537   5.842  0.00  0.00    +0.050 A 
ATOM      5  C   UNL     1      -2.773   2.753   5.612  0.00  0.00    +0.162 A 
ATOM      6  C   UNL     1      -2.624   3.386   4.386  0.00  0.00    +0.201 A 
ATOM      7  C   UNL     1      -1.848   2.801   3.386  0.00  0.00    +0.172 A 
ATOM      8  O   UNL     1      -1.717   3.481   2.204  0.00  0.00    -0.464 OA
ATOM      9  C   UNL     1      -0.593   3.077   1.415  0.00  0.00    +0.186 C 
ATOM     10  C   UNL     1      -0.714   1.569   1.248  0.00  0.00    +0.064 C 
ATOM     11  C   UNL     1      -0.013   1.086   0.008  0.00  0.00    +0.010 C 
ATOM     12  C   UNL     1      -0.753   1.594  -1.240  0.00  0.00    +0.001 C 
ATOM     13  C   UNL     1      -1.377   2.974  -0.969  0.00  0.00    +0.011 C 
ATOM     14  C   UNL     1      -0.540   3.707   0.036  0.00  0.00    +0.077 C 
ATOM     15  C   UNL     1      -0.633   5.208   0.141  0.00  0.00    +0.111 C 
ATOM     16  N   UNL     1       0.453   5.633   1.048  0.00  0.00    -0.319 N 
ATOM     17  C   UNL     1       1.033   4.782   1.908  0.00  0.00    +0.134 C 
ATOM     18  S   UNL     1       2.384   5.341   2.799  0.00  0.00    -0.019 S 
ATOM     19  N   UNL     1       0.621   3.511   2.116  0.00  0.00    -0.289 N 
ATOM     20  H   UNL     1       0.755   6.555   1.021  0.00  0.00    +0.148 HD
ATOM     21  H   UNL     1       1.107   2.911   2.704  0.00  0.00    +0.151 HD
ENDROOT
BRANCH   1  25
ATOM     22  C   UNL     1      -1.370  -3.256   2.369  0.00  0.00    +0.120 A 
ATOM     23  C   UNL     1      -0.064  -2.862   2.622  0.00  0.00    +0.046 A 
ATOM     24  C   UNL     1       0.251  -1.518   2.684  0.00  0.00    +0.008 A 
ATOM     25  C   UNL     1      -0.734  -0.567   2.495  0.00  0.00    -0.039 A 
ATOM     26  C   UNL     1      -2.038  -0.957   2.249  0.00  0.00    +0.008 A 
ATOM     27  C   UNL     1      -2.357  -2.299   2.180  0.00  0.00    +0.046 A 
BRANCH  22  29
ATOM     28  C   UNL     1      -3.047  -4.910   2.043  0.00  0.00    +0.277 C 
ATOM     29  O   UNL     1      -1.683  -4.577   2.307  0.00  0.00    -0.495 OA
ENDBRANCH  22  29
ENDBRANCH   1  25
BRANCH  15  30
ATOM     30  C   UNL     1      -0.447   5.834  -1.217  0.00  0.00    -0.027 A 
ATOM     31  C   UNL     1       0.825   5.996  -1.734  0.00  0.00    +0.009 A 
ATOM     32  C   UNL     1       0.998   6.564  -2.981  0.00  0.00    +0.046 A 
ATOM     33  C   UNL     1      -0.105   6.983  -3.710  0.00  0.00    +0.120 A 
ATOM     34  C   UNL     1      -1.380   6.825  -3.187  0.00  0.00    +0.046 A 
ATOM     35  C   UNL     1      -1.548   6.250  -1.942  0.00  0.00    +0.009 A 
BRANCH  33  36
ATOM     36  O   UNL     1       0.063   7.548  -4.934  0.00  0.00    -0.495 OA
ATOM     37  C   UNL     1       1.404   7.680  -5.410  0.00  0.00    +0.277 C 
ENDBRANCH  33  36
ENDBRANCH  15  30
BRANCH   6  38
ATOM     38  O   UNL     1      -3.237   4.580   4.158  0.00  0.00    -0.501 OA
ATOM     39  H   UNL     1      -4.127   4.501   3.787  0.00  0.00    +0.292 HD
ENDBRANCH   6  38
BRANCH   5  40
ATOM     40  O   UNL     1      -3.531   3.325   6.586  0.00  0.00    -0.503 OA
ATOM     41  H   UNL     1      -4.462   3.067   6.562  0.00  0.00    +0.292 HD
ENDBRANCH   5  40
TORSDOF 6
