REMARK  Name = ZINC22434615
REMARK  12 active torsions:
REMARK  status: ('A' for Active; 'I' for Inactive)
REMARK    1  A    between atoms: C_1  and  C_2
REMARK    2  A    between atoms: C_2  and  N_3
REMARK    3  A    between atoms: N_3  and  C_4
REMARK    4  A    between atoms: N_3  and  C_6
REMARK    5  A    between atoms: C_4  and  C_5
REMARK    6  A    between atoms: C_9  and  C_12
REMARK    7  A    between atoms: C_15  and  S_18
REMARK    8  A    between atoms: N_16  and  C_17
REMARK    9  A    between atoms: S_18  and  C_19
REMARK   10  A    between atoms: C_19  and  C_20
REMARK   11  A    between atoms: N_22  and  C_23
REMARK   12  A    between atoms: C_28  and  N_29
REMARK                            x       y       z     vdW  Elec       q    Type
REMARK                         _______ _______ _______ _____ _____    ______ ____
ROOT
ATOM      1  S   UNL     1       2.517   1.160   0.093  0.00  0.00    -0.077 S 
ENDROOT
BRANCH   1   5
ATOM      2  C   UNL     1       5.908   3.085   0.345  0.00  0.00    +0.165 A 
ATOM      3  N   UNL     1       5.021   4.043   0.481  0.00  0.00    -0.128 NA
ATOM      4  N   UNL     1       3.834   3.556   0.412  0.00  0.00    -0.122 NA
ATOM      5  C   UNL     1       3.890   2.255   0.238  0.00  0.00    +0.192 A 
ATOM      6  N   UNL     1       5.211   1.910   0.186  0.00  0.00    -0.305 N 
ATOM      7  C   UNL     1       5.769   0.568  -0.001  0.00  0.00    +0.153 C 
BRANCH   2  11
ATOM      8  C   UNL     1      10.133   3.530   0.388  0.00  0.00    +0.030 A 
ATOM      9  C   UNL     1       9.563   2.375  -0.135  0.00  0.00    +0.024 A 
ATOM     10  C   UNL     1       8.193   2.228  -0.150  0.00  0.00    +0.013 A 
ATOM     11  C   UNL     1       7.378   3.240   0.361  0.00  0.00    +0.019 A 
ATOM     12  C   UNL     1       7.954   4.401   0.880  0.00  0.00    +0.013 A 
ATOM     13  C   UNL     1       9.324   4.540   0.897  0.00  0.00    +0.024 A 
BRANCH   8  14
ATOM     14  N   UNL     1      11.521   3.677   0.402  0.00  0.00    -0.330 N 
BRANCH  14  16
ATOM     15  C   UNL     1      12.386   4.701   2.447  0.00  0.00    +0.024 C 
ATOM     16  C   UNL     1      12.124   4.893   0.952  0.00  0.00    +0.102 C 
ENDBRANCH  14  16
BRANCH  14  17
ATOM     17  C   UNL     1      12.375   2.614  -0.135  0.00  0.00    +0.102 C 
ATOM     18  C   UNL     1      12.620   2.860  -1.625  0.00  0.00    +0.024 C 
ENDBRANCH  14  17
ENDBRANCH   8  14
ENDBRANCH   2  11
ENDBRANCH   1   5
BRANCH   1  19
ATOM     19  C   UNL     1       1.155   2.340   0.260  0.00  0.00    +0.173 C 
BRANCH  19  20
ATOM     20  C   UNL     1      -0.159   1.607   0.164  0.00  0.00    +0.228 C 
ATOM     21  O   UNL     1      -0.173   0.406  -0.001  0.00  0.00    -0.275 OA
ATOM     22  N   UNL     1      -1.318   2.288   0.257  0.00  0.00    -0.283 N 
ATOM     23  H   UNL     1      -1.307   3.366   0.476  0.00  0.00    +0.155 HD
BRANCH  22  24
ATOM     24  C   UNL     1      -2.537   1.623   0.074  0.00  0.00    +0.061 A 
ATOM     25  C   UNL     1      -2.649   0.277   0.390  0.00  0.00    +0.045 A 
ATOM     26  C   UNL     1      -3.855  -0.376   0.213  0.00  0.00    +0.043 A 
ATOM     27  C   UNL     1      -4.949   0.308  -0.290  0.00  0.00    +0.022 A 
ATOM     28  C   UNL     1      -4.843   1.647  -0.612  0.00  0.00    +0.031 A 
ATOM     29  C   UNL     1      -3.639   2.311  -0.433  0.00  0.00    +0.088 A 
ATOM     30 CL   UNL     1      -3.996  -2.058   0.615  0.00  0.00    -0.083 Cl
BRANCH  29  31
ATOM     31  N   UNL     1      -3.530   3.671  -0.760  0.00  0.00    -0.218 N 
ATOM     32  C   UNL     1      -4.526   4.491  -1.147  0.00  0.00    +0.225 A 
ATOM     33  N   UNL     1      -4.016   5.678  -1.355  0.00  0.00    -0.222 NA
ATOM     34  C   UNL     1      -2.704   5.654  -1.122  0.00  0.00    +0.245 A 
ATOM     35  N   UNL     1      -2.359   4.447  -0.756  0.00  0.00    -0.153 NA
ENDBRANCH  29  31
ENDBRANCH  22  24
ENDBRANCH  19  20
ENDBRANCH   1  19
TORSDOF 9
