REMARK  Name = ZINC14899937
REMARK  5 active torsions:
REMARK  status: ('A' for Active; 'I' for Inactive)
REMARK    1  A    between atoms: C_1  and  C_2
REMARK    2  A    between atoms: C_4  and  C_17
REMARK    3  A    between atoms: C_6  and  C_12
REMARK    4  A    between atoms: N_9  and  C_11
REMARK    5  A    between atoms: N_19  and  C_20
REMARK                            x       y       z     vdW  Elec       q    Type
REMARK                         _______ _______ _______ _____ _____    ______ ____
ROOT
ATOM      1  C   UNL     1      -0.931   1.050   4.941  0.00  0.00    +0.068 C 
ATOM      2  C   UNL     1      -1.159   0.958   3.454  0.00  0.00    +0.070 A 
ATOM      3  C   UNL     1      -2.182   1.613   2.737  0.00  0.00    +0.054 A 
ATOM      4  C   UNL     1      -3.232   2.486   3.108  0.00  0.00    +0.052 A 
ATOM      5  C   UNL     1      -4.075   2.954   2.109  0.00  0.00    +0.045 A 
ATOM      6  C   UNL     1      -3.858   2.549   0.785  0.00  0.00    +0.109 A 
ATOM      7  N   UNL     1      -2.866   1.730   0.468  0.00  0.00    -0.224 NA
ATOM      8  C   UNL     1      -2.029   1.260   1.381  0.00  0.00    +0.160 A 
ATOM      9  N   UNL     1      -0.952   0.414   1.321  0.00  0.00    -0.249 N 
ATOM     10  N   UNL     1      -0.446   0.259   2.618  0.00  0.00    -0.174 NA
ATOM     11  C   UNL     1      -0.418  -0.214   0.110  0.00  0.00    +0.174 C 
ENDROOT
BRANCH   6  12
ATOM     12  C   UNL     1      -4.754   3.044  -0.278  0.00  0.00    +0.153 A 
ATOM     13  C   UNL     1      -4.664   2.744  -1.603  0.00  0.00    +0.051 A 
ATOM     14  C   UNL     1      -5.714   3.428  -2.245  0.00  0.00    +0.042 A 
ATOM     15  C   UNL     1      -6.381   4.112  -1.294  0.00  0.00    +0.196 A 
ATOM     16  O   UNL     1      -5.798   3.878  -0.108  0.00  0.00    -0.461 OA
ENDBRANCH   6  12
BRANCH   4  17
ATOM     17  C   UNL     1      -3.425   2.889   4.518  0.00  0.00    +0.249 C 
ATOM     18  O   UNL     1      -2.461   3.105   5.226  0.00  0.00    -0.270 OA
ATOM     19  N   UNL     1      -4.670   3.017   5.018  0.00  0.00    -0.280 N 
ATOM     20  H   UNL     1      -5.437   2.764   4.480  0.00  0.00    +0.155 HD
BRANCH  19  21
ATOM     21  C   UNL     1      -4.857   3.515   6.313  0.00  0.00    +0.051 A 
ATOM     22  C   UNL     1      -3.853   4.254   6.924  0.00  0.00    +0.073 A 
ATOM     23  C   UNL     1      -4.040   4.752   8.204  0.00  0.00    +0.164 A 
ATOM     24  C   UNL     1      -5.230   4.503   8.878  0.00  0.00    +0.163 A 
ATOM     25  C   UNL     1      -6.229   3.759   8.267  0.00  0.00    +0.066 A 
ATOM     26  C   UNL     1      -6.044   3.266   6.989  0.00  0.00    +0.043 A 
ATOM     27 BR   UNL     1      -7.409   2.252   6.160  0.00  0.00    -0.048 Br
ATOM     28  O   UNL     1      -5.432   4.983  10.136  0.00  0.00    -0.485 OA
ATOM     29  C   UNL     1      -4.270   5.405  10.858  0.00  0.00    +0.270 C 
ATOM     30  C   UNL     1      -3.411   6.269   9.924  0.00  0.00    +0.270 C 
ATOM     31  O   UNL     1      -3.046   5.476   8.790  0.00  0.00    -0.485 OA
ENDBRANCH  19  21
ENDBRANCH   4  17
TORSDOF 3
