REMARK  Name = ZINC45805486
REMARK  5 active torsions:
REMARK  status: ('A' for Active; 'I' for Inactive)
REMARK    1  A    between atoms: C_1  and  C_2
REMARK    2  A    between atoms: C_2  and  C_3
REMARK    3  A    between atoms: C_4  and  C_17
REMARK    4  A    between atoms: C_5  and  C_10
REMARK    5  A    between atoms: C_8  and  C_9
REMARK                            x       y       z     vdW  Elec       q    Type
REMARK                         _______ _______ _______ _____ _____    ______ ____
ROOT
ATOM      1  C   UNL     1       0.707  -0.490  -1.238  0.00  0.00    -0.024 A 
ATOM      2  C   UNL     1       0.109  -0.760  -2.472  0.00  0.00    -0.022 A 
ATOM      3  C   UNL     1       1.112  -1.179  -3.326  0.00  0.00    +0.058 A 
ATOM      4  N   UNL     1       2.292  -1.162  -2.619  0.00  0.00    -0.358 N 
ATOM      5  H   UNL     1       3.164  -1.408  -2.967  0.00  0.00    +0.166 HD
ATOM      6  C   UNL     1       2.034  -0.737  -1.355  0.00  0.00    +0.017 A 
ATOM      7  C   UNL     1       3.057  -0.570  -0.261  0.00  0.00    +0.063 C 
ATOM      8  C   UNL     1      -1.353  -0.622  -2.808  0.00  0.00    +0.046 C 
ENDROOT
BRANCH   3   9
ATOM      9  C   UNL     1       0.948  -1.571  -4.727  0.00  0.00    +0.100 C 
ATOM     10  C   UNL     1       0.409  -2.742  -5.414  0.00  0.00    +0.242 C 
ATOM     11  C   UNL     1       0.715  -2.127  -6.720  0.00  0.00    +0.273 C 
ATOM     12  O   UNL     1       0.579  -2.452  -7.884  0.00  0.00    -0.280 OA
ATOM     13  C   UNL     1       1.251  -0.947  -6.013  0.00  0.00    +0.242 C 
ATOM     14  O   UNL     1       1.746   0.117  -6.362  0.00  0.00    -0.283 OA
ATOM     15  O   UNL     1      -0.092  -3.800  -5.053  0.00  0.00    -0.283 OA
ENDBRANCH   3   9
BRANCH   1  17
ATOM     16  C   UNL     1      -0.019   1.526   0.010  0.00  0.00    +0.009 C 
ATOM     17  C   UNL     1       0.002  -0.004   0.002  0.00  0.00    +0.034 C 
ENDBRANCH   1  17
TORSDOF 2
