REMARK  Name = ZINC64623272
REMARK  8 active torsions:
REMARK  status: ('A' for Active; 'I' for Inactive)
REMARK    1  A    between atoms: C_1  and  C_2
REMARK    2  A    between atoms: C_5  and  C_8
REMARK    3  A    between atoms: C_15  and  O_20
REMARK    4  A    between atoms: O_20  and  C_21
REMARK    5  A    between atoms: N_27  and  C_28
REMARK    6  A    between atoms: C_32  and  C_34
REMARK    7  A    between atoms: C_34  and  O_36
REMARK    8  A    between atoms: O_36  and  C_37
REMARK                            x       y       z     vdW  Elec       q    Type
REMARK                         _______ _______ _______ _____ _____    ______ ____
ROOT
ATOM      1  C   UNL     1      -0.495  -4.592   0.760  0.00  0.00    +0.134 C 
ATOM      2  C   UNL     1      -1.599  -5.473   1.356  0.00  0.00    +0.131 C 
ATOM      3  C   UNL     1      -1.090  -6.907   1.295  0.00  0.00    -0.035 C 
ATOM      4  C   UNL     1      -1.999  -7.599   0.619  0.00  0.00    +0.003 A 
ATOM      5  C   UNL     1      -2.102  -9.030   0.294  0.00  0.00    +0.055 A 
ATOM      6  C   UNL     1      -3.182  -9.413  -0.442  0.00  0.00    +0.121 A 
ATOM      7  C   UNL     1      -4.175  -8.531  -0.894  0.00  0.00    +0.047 A 
ATOM      8  C   UNL     1      -4.180  -7.196  -0.649  0.00  0.00    +0.029 A 
ATOM      9  C   UNL     1      -3.063  -6.662   0.143  0.00  0.00    +0.043 A 
ATOM     10  N   UNL     1      -2.822  -5.431   0.552  0.00  0.00    -0.375 N 
ATOM     11  C   UNL     1       0.247  -7.317   1.863  0.00  0.00    +0.052 C 
ATOM     12  C   UNL     1       1.289  -6.337   1.294  0.00  0.00    +0.114 C 
ATOM     13  N   UNL     1       0.777  -4.967   1.398  0.00  0.00    -0.276 N 
ATOM     14  C   UNL     1       1.477  -4.043   2.084  0.00  0.00    +0.307 C 
ATOM     15  O   UNL     1       0.986  -2.955   2.315  0.00  0.00    -0.252 OA
ATOM     16  N   UNL     1       2.723  -4.324   2.516  0.00  0.00    -0.269 N 
ATOM     17  H   UNL     1       3.152  -5.153   2.251  0.00  0.00    +0.156 HD
ATOM     18  H   UNL     1      -3.346  -4.638   0.357  0.00  0.00    +0.160 HD
ENDROOT
BRANCH   1  23
ATOM     19  C   UNL     1      -1.645   0.972   1.820  0.00  0.00    +0.044 C 
ATOM     20  C   UNL     1      -1.345  -0.479   1.544  0.00  0.00    -0.050 A 
ATOM     21  C   UNL     1      -1.652  -1.441   2.488  0.00  0.00    +0.004 A 
ATOM     22  C   UNL     1      -1.377  -2.772   2.235  0.00  0.00    +0.006 A 
ATOM     23  C   UNL     1      -0.795  -3.141   1.036  0.00  0.00    -0.025 A 
ATOM     24  C   UNL     1      -0.489  -2.180   0.091  0.00  0.00    +0.006 A 
ATOM     25  C   UNL     1      -0.768  -0.849   0.343  0.00  0.00    +0.004 A 
ENDBRANCH   1  23
BRANCH  16  26
ATOM     26  C   UNL     1       3.397  -3.420   3.345  0.00  0.00    +0.036 A 
ATOM     27  C   UNL     1       3.140  -2.058   3.243  0.00  0.00    +0.023 A 
ATOM     28  C   UNL     1       3.803  -1.161   4.059  0.00  0.00    +0.003 A 
ATOM     29  C   UNL     1       4.726  -1.612   4.981  0.00  0.00    +0.015 A 
ATOM     30  C   UNL     1       4.992  -2.978   5.091  0.00  0.00    +0.061 A 
ATOM     31  C   UNL     1       4.318  -3.884   4.271  0.00  0.00    +0.038 A 
BRANCH  30  32
ATOM     32  C   UNL     1       5.980  -3.464   6.076  0.00  0.00    +0.339 C 
ATOM     33  O   UNL     1       6.210  -4.653   6.170  0.00  0.00    -0.245 OA
BRANCH  32  34
ATOM     34  O   UNL     1       6.626  -2.588   6.870  0.00  0.00    -0.464 OA
ATOM     35  C   UNL     1       7.568  -3.127   7.800  0.00  0.00    +0.280 C 
ENDBRANCH  32  34
ENDBRANCH  30  32
ENDBRANCH  16  26
BRANCH   6  36
ATOM     36  O   UNL     1      -3.305 -10.729  -0.758  0.00  0.00    -0.495 OA
ATOM     37  C   UNL     1      -4.446 -11.106  -1.531  0.00  0.00    +0.277 C 
ENDBRANCH   6  36
TORSDOF 5
