REMARK  Name = ZINC21109801
REMARK  11 active torsions:
REMARK  status: ('A' for Active; 'I' for Inactive)
REMARK    1  A    between atoms: C_1  and  C_2
REMARK    2  A    between atoms: C_3  and  C_14
REMARK    3  A    between atoms: C_4  and  C_13
REMARK    4  A    between atoms: N_5  and  C_7
REMARK    5  A    between atoms: C_15  and  C_16
REMARK    6  A    between atoms: C_16  and  O_18
REMARK    7  A    between atoms: O_18  and  C_19
REMARK    8  A    between atoms: C_19  and  C_20
REMARK    9  A    between atoms: N_22  and  C_23
REMARK   10  A    between atoms: C_26  and  N_33
REMARK   11  A    between atoms: C_28  and  C_29
REMARK                            x       y       z     vdW  Elec       q    Type
REMARK                         _______ _______ _______ _____ _____    ______ ____
ROOT
ATOM      1  O   UNL     1       1.184   2.105  -0.225  0.00  0.00    -0.452 OA
ENDROOT
BRANCH   1   2
ATOM      2  C   UNL     1      -0.062   1.587  -0.204  0.00  0.00    +0.332 C 
ATOM      3  O   UNL     1      -0.220   0.381  -0.205  0.00  0.00    -0.246 OA
BRANCH   2   5
ATOM      4  C   UNL     1      -2.434   1.930  -0.169  0.00  0.00    +0.018 C 
ATOM      5  C   UNL     1      -1.186   2.448  -0.185  0.00  0.00    +0.092 C 
BRANCH   4   8
ATOM      6  C   UNL     1      -2.871   4.366   1.816  0.00  0.00    +0.068 C 
ATOM      7  C   UNL     1      -3.811   3.912   0.728  0.00  0.00    +0.068 A 
ATOM      8  C   UNL     1      -3.600   2.823  -0.150  0.00  0.00    +0.019 A 
ATOM      9  C   UNL     1      -4.697   2.760  -0.991  0.00  0.00    +0.049 A 
ATOM     10  N   UNL     1      -5.533   3.754  -0.635  0.00  0.00    -0.236 N 
ATOM     11  N   UNL     1      -4.958   4.456   0.431  0.00  0.00    -0.171 NA
ATOM     12  C   UNL     1      -4.918   1.762  -2.098  0.00  0.00    +0.066 C 
BRANCH  10  13
ATOM     13  C   UNL     1      -6.767   4.041  -1.233  0.00  0.00    +0.066 A 
ATOM     14  C   UNL     1      -7.130   5.358  -1.483  0.00  0.00    +0.028 A 
ATOM     15  C   UNL     1      -8.344   5.636  -2.079  0.00  0.00    +0.002 A 
ATOM     16  C   UNL     1      -9.204   4.607  -2.416  0.00  0.00    +0.000 A 
ATOM     17  C   UNL     1      -8.847   3.295  -2.163  0.00  0.00    +0.002 A 
ATOM     18  C   UNL     1      -7.632   3.009  -1.573  0.00  0.00    +0.028 A 
ENDBRANCH  10  13
ENDBRANCH   4   8
ENDBRANCH   2   5
ENDBRANCH   1   2
BRANCH   1  19
ATOM     19  C   UNL     1       2.271   1.178  -0.249  0.00  0.00    +0.328 C 
BRANCH  19  20
ATOM     20  C   UNL     1       3.575   1.933  -0.271  0.00  0.00    +0.255 C 
ATOM     21  O   UNL     1       3.573   3.146  -0.266  0.00  0.00    -0.272 OA
ATOM     22  N   UNL     1       4.743   1.261  -0.295  0.00  0.00    -0.282 N 
ATOM     23  H   UNL     1       4.748   0.164  -0.211  0.00  0.00    +0.155 HD
BRANCH  22  24
ATOM     24  C   UNL     1       5.949   1.958  -0.428  0.00  0.00    +0.045 A 
ATOM     25  C   UNL     1       5.964   3.216  -1.016  0.00  0.00    +0.026 A 
ATOM     26  C   UNL     1       7.156   3.902  -1.146  0.00  0.00    +0.034 A 
ATOM     27  C   UNL     1       8.333   3.337  -0.690  0.00  0.00    +0.127 A 
ATOM     28  C   UNL     1       8.321   2.085  -0.103  0.00  0.00    +0.047 A 
ATOM     29  C   UNL     1       7.131   1.397   0.034  0.00  0.00    +0.078 A 
BRANCH  29  30
ATOM     30  C   UNL     1       7.118   0.035   0.679  0.00  0.00    +0.419 C 
ATOM     31  F   UNL     1       8.419  -0.314   1.060  0.00  0.00    -0.166 F 
ATOM     32  F   UNL     1       6.294   0.062   1.809  0.00  0.00    -0.166 F 
ATOM     33  F   UNL     1       6.630  -0.908  -0.232  0.00  0.00    -0.166 F 
ENDBRANCH  29  30
BRANCH  27  34
ATOM     34  N   UNL     1       9.609   4.075  -0.829  0.00  0.00    +0.056 N 
ATOM     35  O   UNL     1       9.621   5.178  -1.346  0.00  0.00    -0.126 OA
ATOM     36  O   UNL     1      10.646   3.579  -0.428  0.00  0.00    -0.126 OA
ENDBRANCH  27  34
ENDBRANCH  22  24
ENDBRANCH  19  20
ENDBRANCH   1  19
TORSDOF 9
