REMARK  Name = ZINC35369475
REMARK  4 active torsions:
REMARK  status: ('A' for Active; 'I' for Inactive)
REMARK    1  A    between atoms: C_1  and  C_2
REMARK    2  A    between atoms: C_6  and  C_7
REMARK    3  A    between atoms: C_7  and  C_9
REMARK    4  A    between atoms: CA_11  and  C_15
REMARK                            x       y       z     vdW  Elec       q    Type
REMARK                         _______ _______ _______ _____ _____    ______ ____
ROOT
ATOM      1  C   UNL     1       0.055  -1.401   3.575  0.00  0.00    +0.043 A 
ATOM      2  C   UNL     1       0.059  -1.142   4.962  0.00  0.00    +0.046 A 
ATOM      3  CA  UNL     1       0.084  -2.352   5.595  0.00  0.00    +0.129 A 
ATOM      4  N   UNL     1       0.095  -3.342   4.635  0.00  0.00    -0.355 N 
ATOM      5  H   UNL     1       0.112  -4.296   4.811  0.00  0.00    +0.166 HD
ATOM      6  C   UNL     1       0.072  -2.776   3.418  0.00  0.00    +0.095 A 
ENDROOT
BRANCH   3   7
ATOM      7  C   UNL     1       0.097  -2.562   7.043  0.00  0.00    +0.402 C 
ATOM      8  O   UNL     1       0.119  -3.700   7.497  0.00  0.00    -0.239 OA
ATOM      9  OXT UNL     1       0.085  -1.601   7.802  0.00  0.00    -0.239 OA
ENDBRANCH   3   7
BRANCH   1  10
ATOM     10  C   UNL     1       0.031  -0.396   2.496  0.00  0.00    +0.230 C 
ATOM     11  O   UNL     1       0.017   0.790   2.769  0.00  0.00    -0.283 OA
BRANCH  10  17
ATOM     12  C   UNL     1      -0.018   1.503   0.010  0.00  0.00    +0.048 C 
ATOM     13  C   UNL     1       0.002  -0.004   0.002  0.00  0.00    -0.001 A 
ATOM     14  C   UNL     1       0.009  -0.835  -1.128  0.00  0.00    +0.045 A 
ATOM     15  C   UNL     1       0.028  -2.112  -0.683  0.00  0.00    +0.196 A 
ATOM     16  O   UNL     1       0.033  -2.102   0.656  0.00  0.00    -0.459 OA
ATOM     17  C   UNL     1       0.024  -0.826   1.094  0.00  0.00    +0.178 A 
ENDBRANCH  10  17
ENDBRANCH   1  10
TORSDOF 3
