REMARK  Name = ZINC21851820
REMARK  5 active torsions:
REMARK  status: ('A' for Active; 'I' for Inactive)
REMARK    1  A    between atoms: C_1  and  C_2
REMARK    2  A    between atoms: C_2  and  C_28
REMARK    3  A    between atoms: C_7  and  C_9
REMARK    4  A    between atoms: N_16  and  C_17
REMARK    5  A    between atoms: N_30  and  C_31
REMARK                            x       y       z     vdW  Elec       q    Type
REMARK                         _______ _______ _______ _____ _____    ______ ____
ROOT
ATOM      1  C   UNL     1       3.859  -0.454   1.955  0.00  0.00    +0.044 C 
ATOM      2  C   UNL     1       4.036  -0.347   0.439  0.00  0.00    +0.131 C 
ATOM      3  C   UNL     1       3.556   1.030  -0.018  0.00  0.00    +0.179 C 
ATOM      4  N   UNL     1       2.090   1.076   0.042  0.00  0.00    -0.256 N 
ATOM      5  C   UNL     1       1.333  -0.061  -0.148  0.00  0.00    +0.124 A 
ATOM      6  C   UNL     1       0.023   0.307  -0.071  0.00  0.00    +0.065 A 
ATOM      7  C   UNL     1       0.049   1.695   0.196  0.00  0.00    +0.128 A 
ATOM      8  N   UNL     1       1.315   2.068   0.249  0.00  0.00    -0.167 NA
ATOM      9  C   UNL     1       1.966  -1.367  -0.399  0.00  0.00    +0.266 C 
ATOM     10  O   UNL     1       1.321  -2.332  -0.764  0.00  0.00    -0.268 OA
ATOM     11  N   UNL     1       3.304  -1.435  -0.200  0.00  0.00    -0.273 N 
ENDROOT
BRANCH  11  12
ATOM     12  C   UNL     1       4.033  -2.629  -0.636  0.00  0.00    +0.108 C 
ATOM     13  C   UNL     1       3.968  -2.729  -2.159  0.00  0.00    +0.028 C 
ATOM     14  C   UNL     1       4.544  -4.087  -2.578  0.00  0.00    +0.007 C 
ATOM     15  C   UNL     1       3.569  -5.179  -2.143  0.00  0.00    +0.035 C 
ATOM     16  C   UNL     1       3.209  -5.020  -0.689  0.00  0.00    -0.042 A 
ATOM     17  C   UNL     1       3.418  -3.847   0.002  0.00  0.00    -0.024 A 
ATOM     18  C   UNL     1       3.057  -3.763   1.340  0.00  0.00    +0.006 A 
ATOM     19  C   UNL     1       2.494  -4.846   1.983  0.00  0.00    +0.000 A 
ATOM     20  C   UNL     1       2.287  -6.025   1.291  0.00  0.00    +0.000 A 
ATOM     21  C   UNL     1       2.644  -6.109  -0.040  0.00  0.00    +0.004 A 
ENDBRANCH  11  12
BRANCH   7  22
ATOM     22  C   UNL     1      -1.129   2.571   0.377  0.00  0.00    +0.155 A 
ATOM     23  C   UNL     1      -1.098   3.904   0.639  0.00  0.00    +0.051 A 
ATOM     24  C   UNL     1      -2.438   4.332   0.730  0.00  0.00    +0.042 A 
ATOM     25  C   UNL     1      -3.212   3.248   0.529  0.00  0.00    +0.196 A 
ATOM     26  O   UNL     1      -2.418   2.186   0.316  0.00  0.00    -0.461 OA
ENDBRANCH   7  22
BRANCH   2  27
ATOM     27  C   UNL     1       5.500  -0.484   0.109  0.00  0.00    +0.239 C 
ATOM     28  O   UNL     1       6.329  -0.419   0.992  0.00  0.00    -0.273 OA
ATOM     29  N   UNL     1       5.888  -0.680  -1.167  0.00  0.00    -0.311 N 
ATOM     30  H   UNL     1       5.134  -0.816  -1.956  0.00  0.00    +0.149 HD
BRANCH  29  31
ATOM     31  C   UNL     1       7.313  -0.711  -1.502  0.00  0.00    +0.073 C 
ATOM     32  C   UNL     1       7.815   0.737  -1.687  0.00  0.00    +0.022 C 
ATOM     33  C   UNL     1       9.311   0.748  -1.519  0.00  0.00    +0.002 C 
ATOM     34  C   UNL     1      10.054   0.625  -2.863  0.00  0.00    +0.000 C 
ATOM     35  C   UNL     1       9.411  -0.407  -3.809  0.00  0.00    +0.000 C 
ATOM     36  C   UNL     1       8.984  -1.658  -3.090  0.00  0.00    +0.002 C 
ATOM     37  C   UNL     1       7.498  -1.516  -2.700  0.00  0.00    +0.022 C 
ENDBRANCH  29  31
ENDBRANCH   2  27
TORSDOF 4
