REMARK  Name = ZINC40003597
REMARK  11 active torsions:
REMARK  status: ('A' for Active; 'I' for Inactive)
REMARK    1  A    between atoms: C_1  and  C_2
REMARK    2  A    between atoms: C_9  and  C_35
REMARK    3  A    between atoms: C_10  and  C_11
REMARK    4  A    between atoms: C_11  and  C_13
REMARK    5  A    between atoms: N_17  and  C_29
REMARK    6  A    between atoms: C_18  and  C_20
REMARK    7  A    between atoms: C_23  and  N_26
REMARK    8  A    between atoms: C_29  and  C_30
REMARK    9  A    between atoms: C_30  and  C_31
REMARK   10  A    between atoms: C_31  and  O_32
REMARK   11  A    between atoms: O_32  and  C_33
REMARK                            x       y       z     vdW  Elec       q    Type
REMARK                         _______ _______ _______ _____ _____    ______ ____
ROOT
ATOM      1  C   UNL     1       0.163  -3.520   4.310  0.00  0.00    +0.078 C 
ATOM      2  C   UNL     1       0.106  -4.643   5.062  0.00  0.00    +0.249 C 
ATOM      3  C   UNL     1       0.083  -4.271   6.489  0.00  0.00    +0.288 C 
ATOM      4  O   UNL     1       0.033  -5.058   7.414  0.00  0.00    -0.266 OA
ATOM      5  N   UNL     1       0.126  -2.933   6.617  0.00  0.00    -0.283 N 
ATOM      6  C   UNL     1       0.185  -2.353   5.270  0.00  0.00    +0.145 C 
ATOM      7  O   UNL     1       0.074  -5.908   4.580  0.00  0.00    -0.282 OA
ENDROOT
BRANCH   6   8
ATOM      8  C   UNL     1      -1.012  -1.468   5.036  0.00  0.00    -0.022 A 
ATOM      9  C   UNL     1      -2.265  -1.874   5.454  0.00  0.00    +0.008 A 
ATOM     10  C   UNL     1      -3.362  -1.062   5.239  0.00  0.00    +0.033 A 
ATOM     11  C   UNL     1      -3.207   0.158   4.607  0.00  0.00    +0.126 A 
ATOM     12  C   UNL     1      -1.953   0.565   4.190  0.00  0.00    +0.033 A 
ATOM     13  C   UNL     1      -0.855  -0.246   4.409  0.00  0.00    +0.008 A 
BRANCH  11  14
ATOM     14  N   UNL     1      -4.382   1.028   4.377  0.00  0.00    +0.056 N 
ATOM     15  O   UNL     1      -5.478   0.671   4.742  0.00  0.00    -0.126 OA
ATOM     16  O   UNL     1      -4.246   2.094   3.824  0.00  0.00    -0.126 OA
ENDBRANCH  11  14
ENDBRANCH   6   8
BRANCH   1  17
ATOM     17  C   UNL     1       0.203  -3.449   2.844  0.00  0.00    +0.213 C 
ATOM     18  O   UNL     1      -0.836  -3.405   2.207  0.00  0.00    -0.285 OA
BRANCH  17  28
ATOM     19  C   UNL     1       4.992  -3.295  -0.955  0.00  0.00    +0.047 C 
ATOM     20  C   UNL     1       3.505  -3.277  -0.710  0.00  0.00    -0.008 A 
ATOM     21  C   UNL     1       2.637  -3.181  -1.758  0.00  0.00    +0.008 A 
ATOM     22  C   UNL     1       1.257  -3.165  -1.513  0.00  0.00    +0.018 A 
ATOM     23  C   UNL     1       0.791  -3.245  -0.245  0.00  0.00    +0.093 A 
ATOM     24  N   UNL     1       1.651  -3.341   0.804  0.00  0.00    -0.296 N 
ATOM     25  C   UNL     1       3.001  -3.365   0.599  0.00  0.00    +0.141 A 
ATOM     26  N   UNL     1       3.610  -3.470   1.780  0.00  0.00    -0.232 NA
ATOM     27  C   UNL     1       2.709  -3.521   2.746  0.00  0.00    +0.068 A 
ATOM     28  C   UNL     1       1.449  -3.432   2.169  0.00  0.00    +0.116 A 
ATOM     29  C   UNL     1       3.000  -3.641   4.220  0.00  0.00    +0.068 C 
ENDBRANCH  17  28
ENDBRANCH   1  17
BRANCH   5  30
ATOM     30  C   UNL     1       0.120  -2.186   7.877  0.00  0.00    +0.111 C 
BRANCH  30  31
ATOM     31  C   UNL     1       1.559  -1.975   8.352  0.00  0.00    +0.047 C 
BRANCH  31  32
ATOM     32  C   UNL     1       1.553  -1.194   9.668  0.00  0.00    +0.161 C 
BRANCH  32  33
ATOM     33  O   UNL     1       2.897  -0.998  10.111  0.00  0.00    -0.383 OA
ATOM     34  C   UNL     1       3.004  -0.275  11.339  0.00  0.00    +0.193 C 
ENDBRANCH  32  33
ENDBRANCH  31  32
ENDBRANCH  30  31
ENDBRANCH   5  30
TORSDOF 8
