REMARK  Name = ZINC02182389
REMARK  11 active torsions:
REMARK  status: ('A' for Active; 'I' for Inactive)
REMARK    1  A    between atoms: C_1  and  C_2
REMARK    2  A    between atoms: C_2  and  O_3
REMARK    3  A    between atoms: O_3  and  C_4
REMARK    4  A    between atoms: C_7  and  N_10
REMARK    5  A    between atoms: C_11  and  C_13
REMARK    6  A    between atoms: C_17  and  N_18
REMARK    7  A    between atoms: C_19  and  C_21
REMARK    8  A    between atoms: C_27  and  C_31
REMARK    9  A    between atoms: C_31  and  C_32
REMARK   10  A    between atoms: C_31  and  C_33
REMARK   11  A    between atoms: C_31  and  C_34
REMARK                            x       y       z     vdW  Elec       q    Type
REMARK                         _______ _______ _______ _____ _____    ______ ____
ROOT
ATOM      1  C   UNL     1      -3.386  -7.975   0.198  0.00  0.00    +0.069 A 
ATOM      2  C   UNL     1      -3.405  -8.645   1.487  0.00  0.00    -0.023 A 
ATOM      3  C   UNL     1      -3.564  -9.984   1.412  0.00  0.00    -0.004 A 
ATOM      4  S   UNL     1      -3.682 -10.325  -0.319  0.00  0.00    -0.077 S 
ATOM      5  C   UNL     1      -3.535  -8.768  -0.930  0.00  0.00    +0.085 A 
ATOM      6  C   UNL     1      -3.622 -10.948   2.556  0.00  0.00    +0.046 C 
ATOM      7  C   UNL     1      -3.098 -10.238   3.813  0.00  0.00    -0.000 C 
ATOM      8  C   UNL     1      -3.777  -8.870   3.929  0.00  0.00    +0.009 C 
ATOM      9  C   UNL     1      -3.264  -7.939   2.828  0.00  0.00    +0.037 C 
ENDROOT
BRANCH   1  11
ATOM     10  N   UNL     1      -1.989  -5.989  -0.011  0.00  0.00    -0.281 N 
ATOM     11  C   UNL     1      -3.222  -6.522   0.094  0.00  0.00    +0.251 C 
ATOM     12  O   UNL     1      -4.200  -5.797   0.103  0.00  0.00    -0.270 OA
ATOM     13  H   UNL     1      -1.215  -6.569  -0.096  0.00  0.00    +0.155 HD
BRANCH  10  17
ATOM     14  C   UNL     1      -1.498  -1.849   0.024  0.00  0.00    +0.121 A 
ATOM     15  C   UNL     1      -0.648  -2.642  -0.734  0.00  0.00    +0.047 A 
ATOM     16  C   UNL     1      -0.810  -4.013  -0.747  0.00  0.00    +0.027 A 
ATOM     17  C   UNL     1      -1.823  -4.599   0.001  0.00  0.00    +0.034 A 
ATOM     18  C   UNL     1      -2.673  -3.805   0.760  0.00  0.00    +0.027 A 
ATOM     19  C   UNL     1      -2.507  -2.434   0.775  0.00  0.00    +0.047 A 
BRANCH  14  20
ATOM     20  O   UNL     1      -1.338  -0.499   0.035  0.00  0.00    -0.492 OA
BRANCH  20  22
ATOM     21  C   UNL     1      -0.255   1.559  -0.622  0.00  0.00    +0.048 C 
ATOM     22  C   UNL     1      -0.279   0.035  -0.761  0.00  0.00    +0.225 C 
ENDBRANCH  20  22
ENDBRANCH  14  20
ENDBRANCH  10  17
ENDBRANCH   1  11
BRANCH   5  23
ATOM     23  N   UNL     1      -3.555  -8.367  -2.256  0.00  0.00    -0.275 N 
ATOM     24  C   UNL     1      -3.711  -9.282  -3.233  0.00  0.00    +0.255 C 
ATOM     25  O   UNL     1      -3.834 -10.459  -2.952  0.00  0.00    -0.269 OA
ATOM     26  H   UNL     1      -3.457  -7.429  -2.480  0.00  0.00    +0.156 HD
BRANCH  24  27
ATOM     27  C   UNL     1      -3.732  -8.858  -4.636  0.00  0.00    +0.074 A 
ATOM     28  C   UNL     1      -3.885  -9.628  -5.780  0.00  0.00    +0.021 A 
ATOM     29  C   UNL     1      -3.864  -8.940  -6.969  0.00  0.00    +0.008 A 
ATOM     30  C   UNL     1      -3.699  -7.594  -6.949  0.00  0.00    +0.046 A 
ATOM     31  S   UNL     1      -3.576  -7.218  -5.317  0.00  0.00    -0.092 S 
ENDBRANCH  24  27
ENDBRANCH   5  23
BRANCH   7  32
ATOM     32  C   UNL     1      -3.421 -11.079   5.049  0.00  0.00    -0.035 C 
ATOM     33  C   UNL     1      -2.752 -12.449   4.923  0.00  0.00    +0.011 C 
ATOM     34  C   UNL     1      -2.899 -10.370   6.300  0.00  0.00    +0.011 C 
ATOM     35  C   UNL     1      -4.937 -11.260   5.161  0.00  0.00    +0.011 C 
ENDBRANCH   7  32
TORSDOF 7
