REMARK  Name = ZINC11841479
REMARK  8 active torsions:
REMARK  status: ('A' for Active; 'I' for Inactive)
REMARK    1  A    between atoms: N_9  and  C_10
REMARK    2  A    between atoms: C_10  and  C_11
REMARK    3  A    between atoms: C_11  and  N_68
REMARK    4  A    between atoms: C_12  and  N_68
REMARK    5  A    between atoms: N_15  and  C_18
REMARK    6  A    between atoms: C_21  and  C_24
REMARK    7  A    between atoms: N_26  and  C_27
REMARK    8  A    between atoms: C_27  and  C_28
REMARK                            x       y       z     vdW  Elec       q    Type
REMARK                         _______ _______ _______ _____ _____    ______ ____
ROOT
ATOM      1  C   UNL     1       0.160   7.600   9.659  0.00  0.00    -0.069 C 
ATOM      2  C   UNL     1       1.333   6.668   9.343  0.00  0.00    +0.003 C 
ATOM      3  C   UNL     1       1.181   6.131   7.918  0.00  0.00    +0.103 C 
ATOM      4  N   UNL     1       1.155   7.253   6.971  0.00  0.00    -0.330 N 
ATOM      5  C   UNL     1       0.010   8.136   7.225  0.00  0.00    +0.103 C 
ATOM      6  C   UNL     1       0.127   8.733   8.630  0.00  0.00    +0.003 C 
ENDROOT
BRANCH   4   7
ATOM      7  C   UNL     1       1.150   6.796   5.657  0.00  0.00    +0.030 A 
ATOM      8  C   UNL     1       1.126   7.707   4.605  0.00  0.00    +0.024 A 
ATOM      9  C   UNL     1       1.122   7.258   3.304  0.00  0.00    +0.015 A 
ATOM     10  C   UNL     1       1.140   5.886   3.040  0.00  0.00    +0.037 A 
ATOM     11  C   UNL     1       1.158   4.973   4.099  0.00  0.00    +0.015 A 
ATOM     12  C   UNL     1       1.169   5.428   5.398  0.00  0.00    +0.024 A 
BRANCH  10  13
ATOM     13  C   UNL     1       1.135   5.401   1.647  0.00  0.00    +0.244 C 
ATOM     14  O   UNL     1       1.114   6.196   0.727  0.00  0.00    -0.270 OA
ATOM     15  N   UNL     1       1.153   4.077   1.394  0.00  0.00    -0.307 N 
ATOM     16  H   UNL     1       1.169   3.443   2.128  0.00  0.00    +0.149 HD
BRANCH  15  17
ATOM     17  C   UNL     1       1.147   3.596   0.010  0.00  0.00    +0.140 C 
BRANCH  17  18
ATOM     18  C   UNL     1       1.171   2.089   0.002  0.00  0.00    -0.027 A 
ATOM     19  C   UNL     1       2.379   1.418  -0.011  0.00  0.00    +0.009 A 
ATOM     20  C   UNL     1       2.405   0.036  -0.020  0.00  0.00    +0.050 A 
ATOM     21  C   UNL     1       1.220  -0.680  -0.013  0.00  0.00    +0.166 A 
ATOM     22  C   UNL     1       0.002  -0.004   0.002  0.00  0.00    +0.167 A 
ATOM     23  C   UNL     1      -0.017   1.381   0.010  0.00  0.00    +0.054 A 
ATOM     24  O   UNL     1      -1.007  -0.923   0.006  0.00  0.00    -0.453 OA
ATOM     25  C   UNL     1      -0.404  -2.159  -0.418  0.00  0.00    +0.466 C 
ATOM     26  O   UNL     1       0.973  -2.023  -0.018  0.00  0.00    -0.453 OA
ENDBRANCH  17  18
ENDBRANCH  15  17
ENDBRANCH  10  13
ENDBRANCH   4   7
BRANCH   1  27
ATOM     27  N   UNL     1       0.341   8.166  11.010  0.00  0.00    +0.382 N 
ATOM     28  H   UNL     1       0.779   7.463  11.616  0.00  0.00    -0.085 HD
ATOM     29  H   UNL     1       0.945   8.994  10.952  0.00  0.00    -0.085 HD
BRANCH  27  30
ATOM     30  C   UNL     1      -0.963   8.555  11.580  0.00  0.00    -0.060 C 
BRANCH  30  31
ATOM     31  C   UNL     1      -0.745   9.137  12.978  0.00  0.00    +0.103 C 
BRANCH  31  40
ATOM     32  C   UNL     1      -4.976   7.510  15.633  0.00  0.00    +0.001 A 
ATOM     33  C   UNL     1      -3.874   6.755  15.255  0.00  0.00    +0.002 A 
ATOM     34  C   UNL     1      -2.835   7.330  14.556  0.00  0.00    +0.026 A 
ATOM     35  C   UNL     1      -2.892   8.679  14.220  0.00  0.00    +0.049 A 
ATOM     36  C   UNL     1      -4.008   9.441  14.610  0.00  0.00    -0.000 A 
ATOM     37  C   UNL     1      -5.050   8.837  15.318  0.00  0.00    +0.010 A 
ATOM     38  C   UNL     1      -3.763  10.799  14.120  0.00  0.00    +0.027 A 
ATOM     39  C   UNL     1      -2.573  10.783  13.499  0.00  0.00    +0.087 A 
ATOM     40  N   UNL     1      -2.036   9.526  13.552  0.00  0.00    -0.348 N 
ENDBRANCH  31  40
ENDBRANCH  30  31
ENDBRANCH  27  30
ENDBRANCH   1  27
TORSDOF 8
