REMARK  Name = ZINC51336610
REMARK  13 active torsions:
REMARK  status: ('A' for Active; 'I' for Inactive)
REMARK    1  A    between atoms: C_1  and  C_2
REMARK    2  A    between atoms: C_2  and  N_3
REMARK    3  A    between atoms: N_3  and  C_4
REMARK    4  A    between atoms: N_3  and  C_6
REMARK    5  A    between atoms: C_4  and  C_5
REMARK    6  A    between atoms: C_6  and  C_7
REMARK    7  A    between atoms: C_7  and  N_8
REMARK    8  A    between atoms: C_9  and  C_11
REMARK    9  A    between atoms: C_11  and  O_12
REMARK   10  A    between atoms: O_12  and  N_13
REMARK   11  A    between atoms: C_17  and  C_37
REMARK   12  A    between atoms: C_22  and  C_36
REMARK   13  A    between atoms: C_33  and  O_35
REMARK                            x       y       z     vdW  Elec       q    Type
REMARK                         _______ _______ _______ _____ _____    ______ ____
ROOT
ATOM      1  N   UNL     1       0.024  -7.580   5.739  0.00  0.00    -0.089 NA
ATOM      2  C   UNL     1       0.555  -7.933   6.867  0.00  0.00    +0.080 C 
ATOM      3  C   UNL     1       1.238  -6.905   7.735  0.00  0.00    +0.059 C 
ATOM      4  C   UNL     1       1.178  -7.359   9.196  0.00  0.00    +0.017 C 
ATOM      5  C   UNL     1       1.769  -8.756   9.339  0.00  0.00    -0.007 C 
ATOM      6  C   UNL     1       1.597  -9.259  10.780  0.00  0.00    +0.002 C 
ATOM      7  C   UNL     1       1.725  -8.115  11.777  0.00  0.00    +0.005 C 
ATOM      8  C   UNL     1       1.678  -8.616  13.226  0.00  0.00    +0.010 C 
ATOM      9  C   UNL     1       0.920  -9.917  13.324  0.00  0.00    -0.003 C 
ATOM     10  C   UNL     1      -0.246  -9.954  12.317  0.00  0.00    +0.001 C 
ATOM     11  C   UNL     1       0.219  -9.913  10.893  0.00  0.00    -0.003 C 
ATOM     12  C   UNL     1       0.197 -11.263  10.194  0.00  0.00    +0.008 C 
ATOM     13  C   UNL     1       0.951 -11.175   8.862  0.00  0.00    +0.031 C 
ATOM     14  C   UNL     1       1.044  -9.727   8.438  0.00  0.00    -0.062 C 
ATOM     15  C   UNL     1       0.493  -9.332   7.301  0.00  0.00    +0.026 C 
ATOM     16  C   UNL     1      -1.014 -11.211  12.754  0.00  0.00    +0.007 C 
ATOM     17  C   UNL     1      -0.940 -11.151  14.304  0.00  0.00    +0.032 C 
ATOM     18  C   UNL     1       0.156 -10.113  14.652  0.00  0.00    +0.121 C 
ATOM     19  C   UNL     1       1.864 -11.112  13.173  0.00  0.00    +0.014 C 
ATOM     20  C   UNL     1       3.260  -8.745   8.988  0.00  0.00    +0.016 C 
ENDROOT
BRANCH  18  21
ATOM     21  O   UNL     1      -0.439  -8.885  15.063  0.00  0.00    -0.391 OA
ATOM     22  H   UNL     1      -0.933  -8.946  15.893  0.00  0.00    +0.210 HD
ENDBRANCH  18  21
BRANCH   1  23
ATOM     23  O   UNL     1       0.084  -6.229   5.319  0.00  0.00    -0.384 OA
BRANCH  23  24
ATOM     24  C   UNL     1      -0.542  -5.983   4.058  0.00  0.00    +0.358 C 
BRANCH  24  26
ATOM     25  N   UNL     1      -0.939  -4.055   2.560  0.00  0.00    -0.314 N 
ATOM     26  C   UNL     1      -0.419  -4.521   3.713  0.00  0.00    +0.253 C 
ATOM     27  O   UNL     1       0.148  -3.764   4.472  0.00  0.00    -0.272 OA
ATOM     28  H   UNL     1      -1.393  -4.660   1.953  0.00  0.00    +0.149 HD
BRANCH  25  29
ATOM     29  C   UNL     1      -0.820  -2.634   2.224  0.00  0.00    +0.086 C 
BRANCH  29  30
ATOM     30  C   UNL     1      -1.489  -2.371   0.874  0.00  0.00    -0.060 C 
BRANCH  30  31
ATOM     31  N   UNL     1      -1.370  -0.946   0.537  0.00  0.00    +0.380 N 
ATOM     32  H   UNL     1      -1.748  -0.390   1.289  0.00  0.00    -0.082 HD
BRANCH  31  34
ATOM     33  C   UNL     1       0.184   0.903   0.133  0.00  0.00    -0.017 C 
ATOM     34  C   UNL     1       0.046  -0.606   0.342  0.00  0.00    -0.082 C 
ENDBRANCH  31  34
BRANCH  31  35
ATOM     35  C   UNL     1      -2.114  -0.671  -0.699  0.00  0.00    -0.082 C 
ATOM     36  C   UNL     1      -3.609  -0.887  -0.453  0.00  0.00    -0.017 C 
ENDBRANCH  31  35
ENDBRANCH  30  31
ENDBRANCH  29  30
ENDBRANCH  25  29
ENDBRANCH  24  26
ENDBRANCH  23  24
ENDBRANCH   1  23
TORSDOF 9
