REMARK  Name = ZINC12497748
REMARK  9 active torsions:
REMARK  status: ('A' for Active; 'I' for Inactive)
REMARK    1  A    between atoms: C_1  and  C_2
REMARK    2  A    between atoms: C_2  and  O_3
REMARK    3  A    between atoms: O_3  and  C_4
REMARK    4  A    between atoms: C_7  and  N_10
REMARK    5  A    between atoms: C_15  and  C_32
REMARK    6  A    between atoms: C_17  and  C_22
REMARK    7  A    between atoms: C_17  and  C_28
REMARK    8  A    between atoms: C_28  and  O_30
REMARK    9  A    between atoms: O_30  and  C_31
REMARK                            x       y       z     vdW  Elec       q    Type
REMARK                         _______ _______ _______ _____ _____    ______ ____
ROOT
ATOM      1  N   UNL     1      -1.790   5.642  -0.558  0.00  0.00    -0.210 N 
ATOM      2  C   UNL     1      -2.791   5.067  -1.302  0.00  0.00    +0.229 C 
ATOM      3  O   UNL     1      -3.541   5.620  -2.078  0.00  0.00    -0.275 OA
ATOM      4  C   UNL     1      -2.762   3.666  -0.955  0.00  0.00    +0.078 C 
ATOM      5  C   UNL     1      -3.242   2.367  -1.444  0.00  0.00    -0.019 C 
ATOM      6  C   UNL     1      -1.332   2.114   0.020  0.00  0.00    +0.070 C 
ATOM      7  C   UNL     1      -1.218   3.433  -0.738  0.00  0.00    +0.090 C 
ATOM      8  C   UNL     1      -0.942   4.715  -0.018  0.00  0.00    +0.229 C 
ATOM      9  O   UNL     1      -0.131   4.896   0.864  0.00  0.00    -0.275 OA
ATOM     10  N   UNL     1      -2.366   1.373  -0.759  0.00  0.00    +0.398 N 
ATOM     11  H   UNL     1      -1.911   0.773  -1.456  0.00  0.00    -0.083 HD
ATOM     12  H   UNL     1      -2.929   0.794  -0.124  0.00  0.00    -0.083 HD
ENDROOT
BRANCH   1  16
ATOM     13  C   UNL     1      -1.340   9.758  -0.047  0.00  0.00    +0.121 A 
ATOM     14  C   UNL     1      -2.396   9.264  -0.799  0.00  0.00    +0.047 A 
ATOM     15  C   UNL     1      -2.545   7.902  -0.969  0.00  0.00    +0.027 A 
ATOM     16  C   UNL     1      -1.638   7.027  -0.386  0.00  0.00    +0.044 A 
ATOM     17  C   UNL     1      -0.585   7.521   0.371  0.00  0.00    +0.027 A 
ATOM     18  C   UNL     1      -0.434   8.884   0.535  0.00  0.00    +0.047 A 
BRANCH  13  19
ATOM     19  O   UNL     1      -1.194  11.099   0.119  0.00  0.00    -0.492 OA
BRANCH  19  21
ATOM     20  C   UNL     1      -0.085  13.066   0.981  0.00  0.00    +0.048 C 
ATOM     21  C   UNL     1      -0.084  11.538   0.906  0.00  0.00    +0.225 C 
ENDBRANCH  19  21
ENDBRANCH  13  19
ENDBRANCH   1  16
BRANCH   6  22
ATOM     22  C   UNL     1      -0.017   1.378   0.010  0.00  0.00    -0.047 A 
ATOM     23  C   UNL     1       1.171   2.086   0.002  0.00  0.00    +0.003 A 
ATOM     24  C   UNL     1       2.377   1.411  -0.014  0.00  0.00    +0.000 A 
ATOM     25  C   UNL     1       2.396   0.029  -0.022  0.00  0.00    +0.000 A 
ATOM     26  C   UNL     1       1.208  -0.679  -0.014  0.00  0.00    +0.000 A 
ATOM     27  C   UNL     1       0.002  -0.004   0.002  0.00  0.00    +0.003 A 
ENDBRANCH   6  22
BRANCH   5  28
ATOM     28  C   UNL     1      -3.079   2.275  -2.939  0.00  0.00    -0.023 A 
ATOM     29  C   UNL     1      -4.018   2.393  -3.909  0.00  0.00    +0.009 A 
ATOM     30  C   UNL     1      -3.635   2.272  -5.232  0.00  0.00    +0.008 A 
ATOM     31  C   UNL     1      -2.331   2.039  -5.520  0.00  0.00    +0.045 A 
ATOM     32  S   UNL     1      -1.597   1.991  -3.893  0.00  0.00    -0.103 S 
ENDBRANCH   5  28
BRANCH   6  33
ATOM     33  C   UNL     1      -1.797   2.350   1.434  0.00  0.00    +0.301 C 
ATOM     34  O   UNL     1      -1.560   3.402   1.980  0.00  0.00    -0.252 OA
BRANCH  33  35
ATOM     35  O   UNL     1      -2.474   1.393   2.086  0.00  0.00    -0.469 OA
ATOM     36  C   UNL     1      -2.891   1.690   3.445  0.00  0.00    +0.280 C 
ENDBRANCH  33  35
ENDBRANCH   6  33
TORSDOF 7
