REMARK  Name = ZINC02324323
REMARK  4 active torsions:
REMARK  status: ('A' for Active; 'I' for Inactive)
REMARK    1  A    between atoms: C_1  and  C_2
REMARK    2  A    between atoms: C_5  and  N_9
REMARK    3  A    between atoms: C_7  and  C_8
REMARK    4  A    between atoms: C_29  and  C_34
REMARK                            x       y       z     vdW  Elec       q    Type
REMARK                         _______ _______ _______ _____ _____    ______ ____
ROOT
ATOM      1  N   UNL     1       0.059  -4.172  -0.021  0.00  0.00    -0.210 N 
ATOM      2  C   UNL     1       0.167  -4.901   1.096  0.00  0.00    +0.228 C 
ATOM      3  O   UNL     1       0.258  -4.452   2.219  0.00  0.00    -0.275 OA
ATOM      4  C   UNL     1       0.157  -6.370   0.741  0.00  0.00    +0.074 C 
ATOM      5  C   UNL     1      -1.135  -7.017   1.273  0.00  0.00    -0.054 C 
ATOM      6  C   UNL     1      -1.662  -6.193   2.462  0.00  0.00    -0.016 C 
ATOM      7  C   UNL     1      -2.622  -5.154   1.849  0.00  0.00    -0.020 C 
ATOM      8  C   UNL     1      -2.580  -5.414   0.330  0.00  0.00    -0.076 C 
ATOM      9  N   UNL     1      -2.138  -6.847   0.179  0.00  0.00    +0.395 N 
ATOM     10  C   UNL     1      -1.363  -7.009  -1.062  0.00  0.00    +0.053 C 
ATOM     11  C   UNL     1       0.020  -6.364  -0.806  0.00  0.00    +0.089 C 
ATOM     12  C   UNL     1      -0.036  -4.891  -1.146  0.00  0.00    +0.229 C 
ATOM     13  O   UNL     1      -0.146  -4.433  -2.263  0.00  0.00    -0.275 OA
ATOM     14  C   UNL     1      -1.224  -8.457  -1.440  0.00  0.00    -0.026 A 
ATOM     15  C   UNL     1      -0.682  -9.553  -0.807  0.00  0.00    +0.024 A 
ATOM     16  C   UNL     1      -0.702 -10.791  -1.427  0.00  0.00    +0.042 A 
ATOM     17  C   UNL     1      -1.269 -10.923  -2.683  0.00  0.00    +0.025 A 
ATOM     18  C   UNL     1      -1.813  -9.827  -3.319  0.00  0.00    -0.028 A 
ATOM     19  C   UNL     1      -1.796  -8.578  -2.703  0.00  0.00    +0.039 A 
ATOM     20  N   UNL     1      -2.275  -7.340  -3.137  0.00  0.00    -0.286 N 
ATOM     21  C   UNL     1      -2.059  -6.366  -2.232  0.00  0.00    +0.212 C 
ATOM     22  O   UNL     1      -2.366  -5.198  -2.338  0.00  0.00    -0.277 OA
ATOM     23  C   UNL     1      -2.428  -9.981  -4.686  0.00  0.00    +0.046 C 
ATOM     24 CL   UNL     1      -0.019 -12.174  -0.631  0.00  0.00    -0.084 Cl
ATOM     25  H   UNL     1      -2.711  -7.197  -3.991  0.00  0.00    +0.155 HD
ATOM     26  H   UNL     1      -2.904  -7.499   0.251  0.00  0.00    -0.079 HD
ENDROOT
BRANCH   1  31
ATOM     27  C   UNL     1      -0.017   1.503   0.012  0.00  0.00    +0.044 C 
ATOM     28  C   UNL     1       0.003  -0.004   0.003  0.00  0.00    -0.047 A 
ATOM     29  C   UNL     1      -1.130  -0.707  -0.365  0.00  0.00    +0.005 A 
ATOM     30  C   UNL     1      -1.114  -2.088  -0.374  0.00  0.00    +0.024 A 
ATOM     31  C   UNL     1       0.040  -2.771  -0.013  0.00  0.00    +0.044 A 
ATOM     32  C   UNL     1       1.175  -2.062   0.355  0.00  0.00    +0.027 A 
ATOM     33  C   UNL     1       1.155  -0.681   0.358  0.00  0.00    -0.046 A 
ATOM     34  C   UNL     1       2.389   0.089   0.752  0.00  0.00    +0.044 C 
ENDBRANCH   1  31
TORSDOF 1
