REMARK  Name = ZINC12490444
REMARK  17 active torsions:
REMARK  status: ('A' for Active; 'I' for Inactive)
REMARK    1  A    between atoms: C_1  and  C_2
REMARK    2  A    between atoms: C_6  and  C_42
REMARK    3  A    between atoms: C_9  and  O_11
REMARK    4  A    between atoms: O_11  and  P_12
REMARK    5  A    between atoms: P_12  and  C_14
REMARK    6  A    between atoms: P_12  and  O_28
REMARK    7  A    between atoms: C_14  and  C_16
REMARK    8  A    between atoms: C_14  and  O_22
REMARK    9  A    between atoms: O_22  and  C_23
REMARK   10  A    between atoms: C_23  and  C_25
REMARK   11  A    between atoms: O_28  and  C_29
REMARK   12  A    between atoms: C_32  and  C_39
REMARK   13  A    between atoms: C_36  and  C_38
REMARK   14  A    between atoms: C_39  and  C_40
REMARK   15  A    between atoms: C_39  and  C_41
REMARK   16  A    between atoms: C_42  and  C_43
REMARK   17  A    between atoms: C_42  and  C_44
REMARK                            x       y       z     vdW  Elec       q    Type
REMARK                         _______ _______ _______ _____ _____    ______ ____
ROOT
ATOM      1  P   UNL     1       2.547   1.249   2.957  0.00  0.00    +0.378 P 
ATOM      2  O   UNL     1       2.992   0.947   4.336  0.00  0.00    -0.254 OA
ENDROOT
BRANCH   1   3
ATOM      3  O   UNL     1       1.643   0.036   2.407  0.00  0.00    -0.302 OA
BRANCH   3  10
ATOM      4  C   UNL     1       0.974  -1.209   4.915  0.00  0.00    +0.010 C 
ATOM      5  C   UNL     1       0.946  -1.958   3.581  0.00  0.00    +0.015 C 
ATOM      6  C   UNL     1      -0.452  -1.856   2.968  0.00  0.00    +0.006 C 
ATOM      7  C   UNL     1      -0.480  -2.606   1.635  0.00  0.00    +0.004 C 
ATOM      8  C   UNL     1       0.541  -1.986   0.679  0.00  0.00    -0.006 C 
ATOM      9  C   UNL     1       1.940  -2.087   1.292  0.00  0.00    +0.036 C 
ATOM     10  C   UNL     1       1.968  -1.338   2.626  0.00  0.00    +0.131 C 
BRANCH   8  11
ATOM     11  C   UNL     1       0.513  -2.735  -0.654  0.00  0.00    -0.014 C 
ATOM     12  C   UNL     1      -0.885  -2.633  -1.267  0.00  0.00    +0.007 C 
ATOM     13  C   UNL     1       1.535  -2.115  -1.609  0.00  0.00    +0.007 C 
ENDBRANCH   8  11
ENDBRANCH   3  10
ENDBRANCH   1   3
BRANCH   1  14
ATOM     14  C   UNL     1       4.003   1.458   1.881  0.00  0.00    +0.321 C 
BRANCH  14  15
ATOM     15  C   UNL     1       5.009   0.377   2.181  0.00  0.00    +0.023 A 
ATOM     16  C   UNL     1       5.864   0.495   3.266  0.00  0.00    +0.011 A 
ATOM     17  C   UNL     1       6.773  -0.524   3.504  0.00  0.00    +0.020 A 
ATOM     18  C   UNL     1       6.797  -1.617   2.657  0.00  0.00    +0.111 A 
ATOM     19  N   UNL     1       5.968  -1.695   1.634  0.00  0.00    -0.263 NA
ATOM     20  C   UNL     1       5.087  -0.747   1.381  0.00  0.00    +0.118 A 
ENDBRANCH  14  15
BRANCH  14  21
ATOM     21  O   UNL     1       4.593   2.738   2.121  0.00  0.00    -0.444 OA
BRANCH  21  22
ATOM     22  C   UNL     1       3.966   3.805   1.602  0.00  0.00    +0.311 C 
ATOM     23  O   UNL     1       3.005   3.652   0.886  0.00  0.00    -0.251 OA
BRANCH  22  24
ATOM     24  C   UNL     1       4.461   5.194   1.913  0.00  0.00    +0.098 C 
ATOM     25  C   UNL     1       3.573   6.081   2.788  0.00  0.00    +0.015 C 
ATOM     26  C   UNL     1       3.704   6.369   1.292  0.00  0.00    +0.015 C 
ENDBRANCH  22  24
ENDBRANCH  21  22
ENDBRANCH  14  21
ENDBRANCH   1  14
BRANCH   1  27
ATOM     27  O   UNL     1       1.681   2.607   2.958  0.00  0.00    -0.302 OA
BRANCH  27  28
ATOM     28  C   UNL     1       0.525   2.792   3.778  0.00  0.00    +0.131 C 
ATOM     29  C   UNL     1       0.816   3.861   4.834  0.00  0.00    +0.036 C 
ATOM     30  C   UNL     1      -0.421   4.059   5.712  0.00  0.00    -0.006 C 
ATOM     31  C   UNL     1      -1.598   4.508   4.843  0.00  0.00    +0.004 C 
ATOM     32  C   UNL     1      -1.888   3.439   3.787  0.00  0.00    +0.006 C 
ATOM     33  C   UNL     1      -0.651   3.240   2.909  0.00  0.00    +0.015 C 
ATOM     34  C   UNL     1      -0.941   2.172   1.853  0.00  0.00    +0.010 C 
BRANCH  30  35
ATOM     35  C   UNL     1      -0.131   5.128   6.768  0.00  0.00    -0.014 C 
ATOM     36  C   UNL     1      -1.368   5.327   7.646  0.00  0.00    +0.007 C 
ATOM     37  C   UNL     1       1.045   4.680   7.638  0.00  0.00    +0.007 C 
ENDBRANCH  30  35
ENDBRANCH  27  28
ENDBRANCH   1  27
TORSDOF 11
