REMARK  Name = ZINC34900840
REMARK  4 active torsions:
REMARK  status: ('A' for Active; 'I' for Inactive)
REMARK    1  A    between atoms: N_9  and  C_10
REMARK    2  A    between atoms: C_20  and  C_23
REMARK    3  A    between atoms: N_25  and  C_26
REMARK    4  A    between atoms: C_26  and  C_27
REMARK                            x       y       z     vdW  Elec       q    Type
REMARK                         _______ _______ _______ _____ _____    ______ ____
ROOT
ATOM      1  C   UNL     1       0.881   1.874   0.745  0.00  0.00    +0.002 A 
ATOM      2  C   UNL     1       0.883   1.916  -0.642  0.00  0.00    +0.002 A 
ATOM      3  C   UNL     1       1.388   0.861  -1.372  0.00  0.00    +0.028 A 
ATOM      4  C   UNL     1       1.897  -0.251  -0.718  0.00  0.00    +0.068 A 
ATOM      5  C   UNL     1       1.898  -0.299   0.686  0.00  0.00    +0.065 A 
ATOM      6  C   UNL     1       1.383   0.778   1.411  0.00  0.00    +0.028 A 
ATOM      7  N   UNL     1       2.449  -1.488   1.045  0.00  0.00    -0.327 N 
ATOM      8  C   UNL     1       2.780  -2.161  -0.028  0.00  0.00    +0.177 A 
ATOM      9  N   UNL     1       2.461  -1.442  -1.144  0.00  0.00    -0.310 N 
ATOM     10  N   UNL     1       3.365  -3.410  -0.031  0.00  0.00    -0.302 N 
ATOM     11  C   UNL     1       4.825  -3.554  -0.111  0.00  0.00    +0.108 C 
ATOM     12  C   UNL     1       5.298  -4.430   1.054  0.00  0.00    +0.020 C 
ATOM     13  C   UNL     1       4.535  -5.756   1.033  0.00  0.00    +0.016 C 
ATOM     14  C   UNL     1       3.038  -5.487   1.208  0.00  0.00    +0.092 C 
ATOM     15  C   UNL     1       2.539  -4.623   0.052  0.00  0.00    +0.120 C 
ATOM     16  H   UNL     1       2.577  -1.792   1.958  0.00  0.00    +0.169 HD
ENDROOT
BRANCH   9  17
ATOM     17  C   UNL     1       2.675  -1.854  -2.534  0.00  0.00    +0.090 C 
ATOM     18  C   UNL     1       3.594  -0.847  -3.228  0.00  0.00    +0.025 C 
ATOM     19  C   UNL     1       3.817  -1.277  -4.680  0.00  0.00    +0.002 C 
ATOM     20  C   UNL     1       2.473  -1.329  -5.409  0.00  0.00    +0.000 C 
ATOM     21  C   UNL     1       1.554  -2.335  -4.714  0.00  0.00    +0.002 C 
ATOM     22  C   UNL     1       1.331  -1.905  -3.263  0.00  0.00    +0.025 C 
ENDBRANCH   9  17
BRANCH  14  23
ATOM     23  C   UNL     1       2.290  -6.796   1.221  0.00  0.00    +0.218 C 
ATOM     24  O   UNL     1       1.440  -7.016   0.385  0.00  0.00    -0.275 OA
ATOM     25  N   UNL     1       2.567  -7.721   2.161  0.00  0.00    -0.309 N 
ATOM     26  H   UNL     1       3.248  -7.545   2.829  0.00  0.00    +0.149 HD
BRANCH  25  27
ATOM     27  C   UNL     1       1.840  -8.993   2.173  0.00  0.00    +0.159 C 
BRANCH  27  28
ATOM     28  C   UNL     1       2.335  -9.843   3.315  0.00  0.00    +0.058 A 
ATOM     29  C   UNL     1       1.659  -9.827   4.521  0.00  0.00    +0.025 A 
ATOM     30  C   UNL     1       2.123 -10.613   5.565  0.00  0.00    +0.003 A 
ATOM     31  C   UNL     1       3.253 -11.389   5.356  0.00  0.00    +0.020 A 
ATOM     32  C   UNL     1       3.876 -11.353   4.123  0.00  0.00    +0.111 A 
ATOM     33  N   UNL     1       3.404 -10.597   3.150  0.00  0.00    -0.258 NA
ENDBRANCH  27  28
ENDBRANCH  25  27
ENDBRANCH  14  23
TORSDOF 4
