REMARK  Name = ZINC05186992
REMARK  4 active torsions:
REMARK  status: ('A' for Active; 'I' for Inactive)
REMARK    1  A    between atoms: C_4  and  C_7
REMARK    2  A    between atoms: C_7  and  C_8
REMARK    3  A    between atoms: C_20  and  O_32
REMARK    4  A    between atoms: C_24  and  C_26
REMARK                            x       y       z     vdW  Elec       q    Type
REMARK                         _______ _______ _______ _____ _____    ______ ____
ROOT
ATOM      1  C   UNL     1      -3.679  -0.253   2.002  0.00  0.00    +0.156 A 
ATOM      2  N   UNL     1      -2.624  -0.056   1.213  0.00  0.00    -0.211 NA
ATOM      3  C   UNL     1      -1.916   0.950   1.669  0.00  0.00    +0.167 A 
ATOM      4  C   UNL     1      -0.733   1.565   1.231  0.00  0.00    +0.070 A 
ATOM      5  C   UNL     1      -0.275   2.620   1.974  0.00  0.00    +0.230 A 
ATOM      6  N   UNL     1      -0.935   3.026   3.070  0.00  0.00    -0.201 NA
ATOM      7  C   UNL     1      -2.039   2.468   3.502  0.00  0.00    +0.229 A 
ATOM      8  N   UNL     1      -2.547   1.420   2.807  0.00  0.00    -0.201 N 
ATOM      9  N   UNL     1      -3.669   0.624   2.984  0.00  0.00    -0.148 NA
ATOM     10  O   UNL     1       0.857   3.269   1.615  0.00  0.00    -0.437 OA
ATOM     11  C   UNL     1       1.762   2.671   0.804  0.00  0.00    +0.138 A 
ATOM     12  C   UNL     1       3.070   3.139   0.784  0.00  0.00    +0.092 A 
ATOM     13  C   UNL     1       4.009   2.538  -0.038  0.00  0.00    +0.120 A 
ATOM     14  C   UNL     1       3.642   1.469  -0.843  0.00  0.00    +0.046 A 
ATOM     15  C   UNL     1       2.341   1.006  -0.823  0.00  0.00    +0.012 A 
ATOM     16  C   UNL     1       1.401   1.603  -0.003  0.00  0.00    +0.007 A 
ATOM     17  C   UNL     1      -0.013   1.086   0.008  0.00  0.00    +0.091 C 
ENDROOT
BRANCH  17  18
ATOM     18  C   UNL     1      -0.735   1.582  -1.218  0.00  0.00    -0.035 A 
ATOM     19  C   UNL     1      -0.887   2.939  -1.429  0.00  0.00    +0.004 A 
ATOM     20  C   UNL     1      -1.545   3.394  -2.556  0.00  0.00    +0.000 A 
ATOM     21  C   UNL     1      -2.060   2.491  -3.468  0.00  0.00    +0.000 A 
ATOM     22  C   UNL     1      -1.912   1.133  -3.254  0.00  0.00    +0.000 A 
ATOM     23  C   UNL     1      -1.250   0.679  -2.130  0.00  0.00    +0.004 A 
ENDBRANCH  17  18
BRANCH  13  24
ATOM     24  O   UNL     1       5.289   2.996  -0.057  0.00  0.00    -0.507 OA
ATOM     25  H   UNL     1       5.449   3.689  -0.712  0.00  0.00    +0.292 HD
ENDBRANCH  13  24
BRANCH   1  26
ATOM     26  C   UNL     1      -4.725  -1.319   1.802  0.00  0.00    +0.113 C 
BRANCH  26  30
ATOM     27  C   UNL     1      -7.876   0.220  -0.638  0.00  0.00    +0.000 A 
ATOM     28  C   UNL     1      -6.792  -0.408  -1.224  0.00  0.00    +0.000 A 
ATOM     29  C   UNL     1      -5.772  -0.906  -0.434  0.00  0.00    +0.004 A 
ATOM     30  C   UNL     1      -5.836  -0.776   0.941  0.00  0.00    -0.040 A 
ATOM     31  C   UNL     1      -6.923  -0.153   1.526  0.00  0.00    +0.004 A 
ATOM     32  C   UNL     1      -7.940   0.349   0.736  0.00  0.00    +0.000 A 
ENDBRANCH  26  30
ENDBRANCH   1  26
TORSDOF 4
