REMARK  Name = ZINC09766520
REMARK  15 active torsions:
REMARK  status: ('A' for Active; 'I' for Inactive)
REMARK    1  A    between atoms: C_1  and  C_2
REMARK    2  A    between atoms: C_2  and  C_3
REMARK    3  A    between atoms: C_3  and  C_4
REMARK    4  A    between atoms: C_4  and  N_5
REMARK    5  A    between atoms: N_5  and  C_6
REMARK    6  A    between atoms: N_5  and  S_8
REMARK    7  A    between atoms: C_6  and  C_7
REMARK    8  A    between atoms: S_8  and  C_11
REMARK    9  A    between atoms: C_14  and  C_17
REMARK   10  A    between atoms: C_17  and  N_19
REMARK   11  A    between atoms: N_21  and  C_30
REMARK   12  A    between atoms: C_30  and  C_31
REMARK   13  A    between atoms: C_31  and  O_32
REMARK   14  A    between atoms: O_32  and  C_33
REMARK   15  A    between atoms: C_33  and  C_34
REMARK                            x       y       z     vdW  Elec       q    Type
REMARK                         _______ _______ _______ _____ _____    ______ ____
ROOT
ATOM      1  C   UNL     1      -3.196   3.107   4.828  0.00  0.00    +0.269 C 
ATOM      2  O   UNL     1      -4.002   2.340   5.325  0.00  0.00    -0.268 OA
ENDROOT
BRANCH   1   3
ATOM      3  N   UNL     1      -2.974   4.300   5.389  0.00  0.00    -0.152 NA
ATOM      4  C   UNL     1      -3.633   4.650   6.488  0.00  0.00    +0.167 A 
ATOM      5  N   UNL     1      -3.538   5.807   7.197  0.00  0.00    -0.318 N 
ATOM      6  C   UNL     1      -4.315   5.995   8.325  0.00  0.00    +0.076 A 
ATOM      7  C   UNL     1      -5.155   4.920   8.649  0.00  0.00    +0.040 A 
ATOM      8  S   UNL     1      -4.815   3.737   7.370  0.00  0.00    -0.052 S 
ATOM      9  C   UNL     1      -5.990   4.939   9.741  0.00  0.00    +0.017 A 
ATOM     10  C   UNL     1      -6.014   6.052  10.564  0.00  0.00    +0.003 A 
ATOM     11  C   UNL     1      -5.196   7.129  10.269  0.00  0.00    +0.022 A 
ATOM     12  C   UNL     1      -4.360   7.112   9.176  0.00  0.00    +0.066 A 
ATOM     13 CL   UNL     1      -3.351   8.485   8.845  0.00  0.00    -0.081 Cl
BRANCH   5  14
ATOM     14  C   UNL     1      -2.614   6.858   6.761  0.00  0.00    +0.152 C 
BRANCH  14  15
ATOM     15  C   UNL     1      -1.304   6.742   7.544  0.00  0.00    +0.181 C 
BRANCH  15  16
ATOM     16  O   UNL     1      -0.403   7.767   7.120  0.00  0.00    -0.378 OA
BRANCH  16  17
ATOM     17  C   UNL     1       0.857   7.748   7.793  0.00  0.00    +0.156 C 
ATOM     18  C   UNL     1       1.736   8.882   7.261  0.00  0.00    +0.034 C 
ENDBRANCH  16  17
ENDBRANCH  15  16
ENDBRANCH  14  15
ENDBRANCH   5  14
ENDBRANCH   1   3
BRANCH   1  22
ATOM     19  C   UNL     1      -1.088   1.989   1.311  0.00  0.00    +0.106 A 
ATOM     20  C   UNL     1      -0.853   3.222   1.892  0.00  0.00    +0.029 A 
ATOM     21  C   UNL     1      -1.538   3.593   3.031  0.00  0.00    +0.015 A 
ATOM     22  C   UNL     1      -2.461   2.718   3.602  0.00  0.00    +0.039 A 
ATOM     23  C   UNL     1      -2.690   1.474   3.014  0.00  0.00    +0.015 A 
ATOM     24  C   UNL     1      -2.003   1.116   1.873  0.00  0.00    +0.029 A 
BRANCH  19  25
ATOM     25  S   UNL     1      -0.214   1.525  -0.147  0.00  0.00    +0.061 S 
ATOM     26  O   UNL     1      -0.208   0.104  -0.183  0.00  0.00    -0.153 OA
ATOM     27  O   UNL     1       0.982   2.292  -0.166  0.00  0.00    -0.153 OA
BRANCH  25  28
ATOM     28  N   UNL     1      -1.118   2.026  -1.441  0.00  0.00    -0.177 NA
BRANCH  28  29
ATOM     29  C   UNL     1      -2.124   1.134  -2.022  0.00  0.00    +0.106 C 
ATOM     30  C   UNL     1      -3.493   1.442  -1.411  0.00  0.00    +0.022 C 
ENDBRANCH  28  29
BRANCH  28  31
ATOM     31  C   UNL     1      -0.912   3.363  -2.004  0.00  0.00    +0.109 C 
BRANCH  31  32
ATOM     32  C   UNL     1       0.059   3.275  -3.183  0.00  0.00    +0.017 C 
BRANCH  32  34
ATOM     33  C   UNL     1       1.245   4.583  -4.951  0.00  0.00    +0.004 C 
ATOM     34  C   UNL     1       0.274   4.671  -3.772  0.00  0.00    -0.002 C 
ENDBRANCH  32  34
ENDBRANCH  31  32
ENDBRANCH  28  31
ENDBRANCH  25  28
ENDBRANCH  19  25
ENDBRANCH   1  22
TORSDOF 12
