REMARK  Name = ZINC63540993
REMARK  10 active torsions:
REMARK  status: ('A' for Active; 'I' for Inactive)
REMARK    1  A    between atoms: C_1  and  C_2
REMARK    2  A    between atoms: C_6  and  N_9
REMARK    3  A    between atoms: C_7  and  C_8
REMARK    4  A    between atoms: N_12  and  C_15
REMARK    5  A    between atoms: C_15  and  C_17
REMARK    6  A    between atoms: C_15  and  C_18
REMARK    7  A    between atoms: N_20  and  C_21
REMARK    8  A    between atoms: C_29  and  C_31
REMARK    9  A    between atoms: C_31  and  O_33
REMARK   10  A    between atoms: O_33  and  C_34
REMARK                            x       y       z     vdW  Elec       q    Type
REMARK                         _______ _______ _______ _____ _____    ______ ____
ROOT
ATOM      1  C   UNL     1       1.170  -3.667   7.356  0.00  0.00    +0.234 C 
ATOM      2  O   UNL     1       1.799  -4.440   6.664  0.00  0.00    -0.274 OA
ATOM      3  N   UNL     1       1.532  -3.463   8.638  0.00  0.00    -0.285 N 
ATOM      4  H   UNL     1       1.060  -2.808   9.176  0.00  0.00    +0.155 HD
ENDROOT
BRANCH   3   5
ATOM      5  C   UNL     1       2.559  -4.177   9.178  0.00  0.00    +0.053 C 
ATOM      6  C   UNL     1       2.884  -4.288  10.519  0.00  0.00    +0.019 A 
ATOM      7  C   UNL     1       2.308  -3.741  11.690  0.00  0.00    +0.026 A 
ATOM      8  C   UNL     1       2.849  -4.025  12.902  0.00  0.00    +0.019 A 
ATOM      9  C   UNL     1       3.970  -4.851  13.028  0.00  0.00    +0.017 A 
ATOM     10  C   UNL     1       4.574  -5.408  11.950  0.00  0.00    +0.027 A 
ATOM     11  C   UNL     1       4.066  -5.158  10.649  0.00  0.00    +0.045 A 
ATOM     12  N   UNL     1       4.465  -5.572   9.463  0.00  0.00    -0.367 N 
ATOM     13  C   UNL     1       3.575  -5.017   8.438  0.00  0.00    +0.234 C 
ATOM     14 BR   UNL     1       2.067  -3.287  14.457  0.00  0.00    -0.050 Br
ATOM     15  H   UNL     1       5.223  -6.154   9.296  0.00  0.00    +0.161 HD
BRANCH  13  16
ATOM     16  C   UNL     1       4.362  -4.157   7.482  0.00  0.00    +0.335 C 
ATOM     17  O   UNL     1       5.481  -3.804   7.769  0.00  0.00    -0.248 OA
BRANCH  16  18
ATOM     18  O   UNL     1       3.820  -3.784   6.313  0.00  0.00    -0.466 OA
ATOM     19  C   UNL     1       4.622  -2.970   5.456  0.00  0.00    +0.280 C 
ENDBRANCH  16  18
ENDBRANCH  13  16
ENDBRANCH   3   5
BRANCH   1  20
ATOM     20  C   UNL     1      -0.015  -2.935   6.781  0.00  0.00    +0.140 C 
ATOM     21  C   UNL     1       0.230  -1.427   6.861  0.00  0.00    +0.034 C 
BRANCH  20  25
ATOM     22  N   UNL     1      -0.457  -3.114   2.611  0.00  0.00    -0.327 N 
ATOM     23  C   UNL     1      -1.671  -3.299   3.420  0.00  0.00    +0.120 C 
ATOM     24  C   UNL     1      -1.417  -2.725   4.818  0.00  0.00    +0.104 C 
ATOM     25  N   UNL     1      -0.200  -3.328   5.378  0.00  0.00    -0.289 NA
ATOM     26  C   UNL     1       0.982  -2.986   4.575  0.00  0.00    +0.104 C 
ATOM     27  C   UNL     1       0.825  -3.576   3.165  0.00  0.00    +0.120 C 
BRANCH  22  33
ATOM     28  C   UNL     1      -0.287   0.932  -0.174  0.00  0.00    +0.044 C 
ATOM     29  C   UNL     1      -0.441  -0.560  -0.032  0.00  0.00    -0.046 A 
ATOM     30  C   UNL     1      -0.645  -1.344  -1.153  0.00  0.00    +0.004 A 
ATOM     31  C   UNL     1      -0.787  -2.713  -1.027  0.00  0.00    +0.002 A 
ATOM     32  C   UNL     1      -0.725  -3.304   0.220  0.00  0.00    +0.023 A 
ATOM     33  C   UNL     1      -0.520  -2.520   1.349  0.00  0.00    +0.033 A 
ATOM     34  C   UNL     1      -0.372  -1.145   1.218  0.00  0.00    -0.027 A 
ATOM     35  C   UNL     1      -0.144  -0.291   2.438  0.00  0.00    +0.046 C 
ENDBRANCH  22  33
ENDBRANCH  20  25
ENDBRANCH   1  20
TORSDOF 6
