REMARK  Name = ZINC44879472
REMARK  10 active torsions:
REMARK  status: ('A' for Active; 'I' for Inactive)
REMARK    1  A    between atoms: C_1  and  C_2
REMARK    2  A    between atoms: C_7  and  C_8
REMARK    3  A    between atoms: C_8  and  S_9
REMARK    4  A    between atoms: S_9  and  N_12
REMARK    5  A    between atoms: C_15  and  C_18
REMARK    6  A    between atoms: N_20  and  C_21
REMARK    7  A    between atoms: C_21  and  C_22
REMARK    8  A    between atoms: C_25  and  C_28
REMARK    9  A    between atoms: C_28  and  N_29
REMARK   10  A    between atoms: C_33  and  C_36
REMARK                            x       y       z     vdW  Elec       q    Type
REMARK                         _______ _______ _______ _____ _____    ______ ____
ROOT
ATOM      1  C   UNL     1      -3.445   2.979   7.787  0.00  0.00    +0.216 C 
ATOM      2  O   UNL     1      -4.223   2.211   8.311  0.00  0.00    -0.276 OA
ATOM      3  N   UNL     1      -3.511   4.297   8.061  0.00  0.00    -0.311 N 
ATOM      4  H   UNL     1      -2.888   4.911   7.642  0.00  0.00    +0.149 HD
ENDROOT
BRANCH   1   8
ATOM      5  N   UNL     1      -1.549   1.141   4.479  0.00  0.00    -0.181 NA
ATOM      6  C   UNL     1      -1.461   0.413   5.752  0.00  0.00    +0.110 C 
ATOM      7  C   UNL     1      -2.544   0.942   6.698  0.00  0.00    +0.030 C 
ATOM      8  C   UNL     1      -2.402   2.460   6.831  0.00  0.00    +0.077 C 
ATOM      9  C   UNL     1      -2.597   3.114   5.461  0.00  0.00    +0.030 C 
ATOM     10  C   UNL     1      -1.509   2.609   4.500  0.00  0.00    +0.110 C 
BRANCH   5  11
ATOM     11  S   UNL     1      -1.684   0.321   3.046  0.00  0.00    +0.036 S 
ATOM     12  O   UNL     1      -2.334   1.230   2.168  0.00  0.00    -0.158 OA
ATOM     13  O   UNL     1      -2.294  -0.915   3.391  0.00  0.00    -0.158 OA
BRANCH  11  14
ATOM     14  C   UNL     1       0.025   0.045   2.504  0.00  0.00    +0.220 C 
BRANCH  14  21
ATOM     15  C   UNL     1      -0.018   1.503   0.010  0.00  0.00    +0.044 C 
ATOM     16  C   UNL     1       0.002  -0.004   0.002  0.00  0.00    -0.046 A 
ATOM     17  C   UNL     1       0.006  -0.689  -1.199  0.00  0.00    +0.003 A 
ATOM     18  C   UNL     1       0.025  -2.071  -1.207  0.00  0.00    +0.000 A 
ATOM     19  C   UNL     1       0.040  -2.768  -0.013  0.00  0.00    +0.000 A 
ATOM     20  C   UNL     1       0.037  -2.084   1.188  0.00  0.00    +0.005 A 
ATOM     21  C   UNL     1       0.023  -0.702   1.195  0.00  0.00    -0.022 A 
ENDBRANCH  14  21
ENDBRANCH  11  14
ENDBRANCH   5  11
ENDBRANCH   1   8
BRANCH   3  22
ATOM     22  C   UNL     1      -4.524   4.802   8.991  0.00  0.00    +0.139 C 
BRANCH  22  23
ATOM     23  C   UNL     1      -4.385   6.297   9.122  0.00  0.00    -0.030 A 
ATOM     24  C   UNL     1      -3.555   6.832  10.089  0.00  0.00    +0.005 A 
ATOM     25  C   UNL     1      -3.428   8.203  10.210  0.00  0.00    +0.002 A 
ATOM     26  C   UNL     1      -4.130   9.040   9.362  0.00  0.00    -0.064 A 
ATOM     27  C   UNL     1      -4.959   8.505   8.393  0.00  0.00    +0.002 A 
ATOM     28  C   UNL     1      -5.083   7.133   8.270  0.00  0.00    +0.005 A 
BRANCH  26  29
ATOM     29  C   UNL     1      -3.991  10.534   9.493  0.00  0.00    -0.043 C 
BRANCH  29  30
ATOM     30  N   UNL     1      -2.889  11.001   8.642  0.00  0.00    +0.383 N 
ATOM     31  C   UNL     1      -1.624  10.441   9.132  0.00  0.00    -0.078 C 
ATOM     32  C   UNL     1      -0.483  10.858   8.201  0.00  0.00    -0.018 C 
ATOM     33  C   UNL     1      -0.389  12.386   8.171  0.00  0.00    -0.001 C 
ATOM     34  C   UNL     1      -1.737  12.962   7.730  0.00  0.00    -0.031 C 
ATOM     35  C   UNL     1      -2.832  12.467   8.678  0.00  0.00    -0.075 C 
ATOM     36  C   UNL     1      -1.678  14.491   7.771  0.00  0.00    +0.005 C 
ATOM     37  H   UNL     1      -3.045  10.695   7.693  0.00  0.00    -0.081 HD
ENDBRANCH  29  30
ENDBRANCH  26  29
ENDBRANCH  22  23
ENDBRANCH   3  22
TORSDOF 8
