REMARK  Name = ZINC35885933
REMARK  7 active torsions:
REMARK  status: ('A' for Active; 'I' for Inactive)
REMARK    1  A    between atoms: C_4  and  C_7
REMARK    2  A    between atoms: C_7  and  C_8
REMARK    3  A    between atoms: N_11  and  C_14
REMARK    4  A    between atoms: C_14  and  C_15
REMARK    5  A    between atoms: C_20  and  C_22
REMARK    6  A    between atoms: C_26  and  C_28
REMARK    7  A    between atoms: C_32  and  C_34
REMARK                            x       y       z     vdW  Elec       q    Type
REMARK                         _______ _______ _______ _____ _____    ______ ____
ROOT
ATOM      1  C   UNL     1       8.070  -1.714   4.676  0.00  0.00    -0.001 C 
ATOM      2  C   UNL     1       7.760  -3.122   4.124  0.00  0.00    +0.110 C 
ATOM      3  N   UNL     1       8.655  -4.026   4.883  0.00  0.00    -0.294 N 
ATOM      4  C   UNL     1       8.633  -3.490   6.263  0.00  0.00    +0.116 C 
ATOM      5  C   UNL     1       8.648  -1.954   6.086  0.00  0.00    +0.039 C 
ATOM      6  C   UNL     1       9.335  -5.094   4.421  0.00  0.00    +0.282 C 
ATOM      7  O   UNL     1       9.249  -5.411   3.249  0.00  0.00    -0.267 OA
ENDROOT
BRANCH   5   8
ATOM      8  C   UNL     1      10.057  -1.428   6.172  0.00  0.00    -0.042 A 
ATOM      9  C   UNL     1      11.034  -1.928   5.330  0.00  0.00    +0.004 A 
ATOM     10  C   UNL     1      12.327  -1.446   5.409  0.00  0.00    +0.001 A 
ATOM     11  C   UNL     1      12.643  -0.463   6.329  0.00  0.00    +0.012 A 
ATOM     12  C   UNL     1      11.667   0.037   7.169  0.00  0.00    +0.055 A 
ATOM     13  C   UNL     1      10.373  -0.442   7.087  0.00  0.00    +0.016 A 
BRANCH  12  14
ATOM     14  C   UNL     1      12.012   1.108   8.172  0.00  0.00    +0.417 C 
ATOM     15  F   UNL     1      13.369   1.429   8.062  0.00  0.00    -0.166 F 
ATOM     16  F   UNL     1      11.241   2.248   7.920  0.00  0.00    -0.166 F 
ATOM     17  F   UNL     1      11.745   0.641   9.463  0.00  0.00    -0.166 F 
ENDBRANCH  12  14
ENDBRANCH   5   8
BRANCH   6  18
ATOM     18  C   UNL     1      10.179  -5.875   5.331  0.00  0.00    +0.189 A 
ATOM     19  C   UNL     1      10.922  -6.971   4.995  0.00  0.00    +0.054 A 
ATOM     20  C   UNL     1      11.567  -7.396   6.167  0.00  0.00    +0.042 A 
ATOM     21  C   UNL     1      11.195  -6.552   7.154  0.00  0.00    +0.196 A 
ATOM     22  O   UNL     1      10.362  -5.634   6.646  0.00  0.00    -0.458 OA
ENDBRANCH   6  18
BRANCH   1  23
ATOM     23  C   UNL     1       6.789  -0.881   4.760  0.00  0.00    -0.073 C 
BRANCH  23  27
ATOM     24  C   UNL     1       5.429   1.197   1.298  0.00  0.00    -0.010 C 
ATOM     25  C   UNL     1       6.808   0.532   1.283  0.00  0.00    -0.015 C 
ATOM     26  C   UNL     1       7.266   0.289   2.723  0.00  0.00    -0.079 C 
ATOM     27  N   UNL     1       6.306  -0.588   3.404  0.00  0.00    +0.380 N 
ATOM     28  C   UNL     1       4.998   0.074   3.485  0.00  0.00    -0.079 C 
ATOM     29  C   UNL     1       4.453   0.309   2.075  0.00  0.00    -0.015 C 
ATOM     30  H   UNL     1       6.214  -1.450   2.888  0.00  0.00    -0.082 HD
BRANCH  24  31
ATOM     31  C   UNL     1       4.930   1.371  -0.138  0.00  0.00    +0.038 C 
BRANCH  31  35
ATOM     32  C   UNL     1       7.460   4.124  -2.204  0.00  0.00    +0.000 A 
ATOM     33  C   UNL     1       7.749   2.772  -2.221  0.00  0.00    +0.000 A 
ATOM     34  C   UNL     1       6.931   1.881  -1.553  0.00  0.00    +0.003 A 
ATOM     35  C   UNL     1       5.823   2.342  -0.866  0.00  0.00    -0.047 A 
ATOM     36  C   UNL     1       5.534   3.694  -0.848  0.00  0.00    +0.003 A 
ATOM     37  C   UNL     1       6.352   4.585  -1.518  0.00  0.00    +0.000 A 
ENDBRANCH  31  35
ENDBRANCH  24  31
ENDBRANCH  23  27
ENDBRANCH   1  23
TORSDOF 7
