REMARK  Name = ZINC40987537
REMARK  5 active torsions:
REMARK  status: ('A' for Active; 'I' for Inactive)
REMARK    1  A    between atoms: C_1  and  N_2
REMARK    2  A    between atoms: C_3  and  C_5
REMARK    3  A    between atoms: C_9  and  N_10
REMARK    4  A    between atoms: C_11  and  C_13
REMARK    5  A    between atoms: N_16  and  C_18
REMARK                            x       y       z     vdW  Elec       q    Type
REMARK                         _______ _______ _______ _____ _____    ______ ____
ROOT
ATOM      1  N   UNL     1      -1.158  -2.380  -2.479  0.00  0.00    -0.274 N 
ATOM      2  C   UNL     1      -1.156  -3.228  -3.526  0.00  0.00    +0.269 C 
ATOM      3  O   UNL     1      -1.138  -4.429  -3.336  0.00  0.00    -0.268 OA
ATOM      4  H   UNL     1      -1.172  -1.422  -2.632  0.00  0.00    +0.156 HD
ENDROOT
BRANCH   1   9
ATOM      5  C   UNL     1      -1.136  -2.160   0.001  0.00  0.00    +0.069 A 
ATOM      6  C   UNL     1      -1.119  -2.923   1.237  0.00  0.00    -0.023 A 
ATOM      7  C   UNL     1      -1.102  -4.262   1.059  0.00  0.00    -0.004 A 
ATOM      8  S   UNL     1      -1.109  -4.481  -0.696  0.00  0.00    -0.077 S 
ATOM      9  C   UNL     1      -1.138  -2.876  -1.186  0.00  0.00    +0.085 A 
ATOM     10  C   UNL     1      -1.081  -5.311   2.127  0.00  0.00    +0.043 C 
ATOM     11  C   UNL     1      -0.701  -4.639   3.455  0.00  0.00    +0.005 C 
ATOM     12  C   UNL     1      -1.554  -3.380   3.635  0.00  0.00    +0.005 C 
ATOM     13  C   UNL     1      -1.121  -2.310   2.630  0.00  0.00    +0.037 C 
BRANCH   5  16
ATOM     14  C   UNL     1      -0.018   1.461   0.010  0.00  0.00    +0.128 C 
ATOM     15  N   UNL     1       0.002  -0.004   0.002  0.00  0.00    -0.314 N 
ATOM     16  C   UNL     1      -1.156  -0.694   0.009  0.00  0.00    +0.246 C 
ATOM     17  O   UNL     1      -2.218  -0.100   0.023  0.00  0.00    -0.270 OA
ATOM     18  H   UNL     1       0.849  -0.478  -0.009  0.00  0.00    +0.149 HD
ENDBRANCH   5  16
ENDBRANCH   1   9
BRANCH   2  19
ATOM     19  C   UNL     1      -1.177  -2.700  -4.905  0.00  0.00    +0.151 A 
ATOM     20  C   UNL     1      -1.185  -3.452  -6.092  0.00  0.00    +0.006 A 
ATOM     21  C   UNL     1      -1.204  -2.550  -7.104  0.00  0.00    +0.044 A 
ATOM     22  N   UNL     1      -1.210  -1.328  -6.548  0.00  0.00    -0.263 N 
ATOM     23  N   UNL     1      -1.199  -1.427  -5.263  0.00  0.00    -0.166 NA
ATOM     24  C   UNL     1      -1.213  -2.925  -8.564  0.00  0.00    +0.055 C 
ATOM     25  C   UNL     1      -0.782  -4.392  -8.688  0.00  0.00    +0.006 C 
ATOM     26  C   UNL     1      -1.599  -5.253  -7.720  0.00  0.00    +0.005 C 
ATOM     27  C   UNL     1      -1.176  -4.944  -6.278  0.00  0.00    +0.039 C 
BRANCH  22  28
ATOM     28  C   UNL     1      -1.232  -0.066  -7.292  0.00  0.00    +0.130 C 
ATOM     29  C   UNL     1      -0.001   0.777  -6.921  0.00  0.00    +0.051 C 
ATOM     30  C   UNL     1      -0.175   2.223  -7.445  0.00  0.00    +0.168 C 
ATOM     31  S   UNL     1      -2.002   2.433  -7.453  0.00  0.00    -0.029 S 
ATOM     32  O   UNL     1      -2.437   2.641  -8.790  0.00  0.00    -0.174 OA
ATOM     33  O   UNL     1      -2.365   3.367  -6.446  0.00  0.00    -0.174 OA
ATOM     34  C   UNL     1      -2.505   0.745  -6.915  0.00  0.00    +0.192 C 
ENDBRANCH  22  28
ENDBRANCH   2  19
TORSDOF 4
