REMARK  Name = ZINC09033931
REMARK  2 active torsions:
REMARK  status: ('A' for Active; 'I' for Inactive)
REMARK    1  A    between atoms: C_14  and  C_16
REMARK    2  A    between atoms: C_16  and  C_18
REMARK                            x       y       z     vdW  Elec       q    Type
REMARK                         _______ _______ _______ _____ _____    ______ ____
ROOT
ATOM      1  C   UNL     1       0.348   0.726  -0.070  0.00  0.00    +0.000 A 
ATOM      2  C   UNL     1      -0.913   1.282   0.040  0.00  0.00    +0.002 A 
ATOM      3  C   UNL     1      -1.058   2.648   0.162  0.00  0.00    +0.023 A 
ATOM      4  C   UNL     1       0.063   3.475   0.166  0.00  0.00    +0.038 A 
ATOM      5  C   UNL     1       1.325   2.912   0.001  0.00  0.00    -0.012 A 
ATOM      6  C   UNL     1       1.464   1.544  -0.082  0.00  0.00    +0.006 A 
ATOM      7  C   UNL     1       2.290   4.067  -0.061  0.00  0.00    +0.071 C 
ATOM      8  C   UNL     1       3.444   3.862   0.908  0.00  0.00    -0.046 C 
ATOM      9  C   UNL     1       3.713   5.088   1.798  0.00  0.00    -0.016 C 
ATOM     10  C   UNL     1       5.261   5.025   1.969  0.00  0.00    -0.020 C 
ATOM     11  C   UNL     1       5.681   4.635   0.522  0.00  0.00    -0.076 C 
ATOM     12  C   UNL     1       4.347   3.666  -1.309  0.00  0.00    +0.052 C 
ATOM     13  C   UNL     1       2.921   4.213  -1.454  0.00  0.00    +0.080 C 
ATOM     14  C   UNL     1       5.301   4.490  -2.135  0.00  0.00    -0.027 A 
ATOM     15  C   UNL     1       5.609   5.832  -2.181  0.00  0.00    +0.004 A 
ATOM     16  C   UNL     1       6.575   6.299  -3.054  0.00  0.00    +0.000 A 
ATOM     17  C   UNL     1       7.215   5.420  -3.908  0.00  0.00    +0.002 A 
ATOM     18  C   UNL     1       6.884   4.082  -3.897  0.00  0.00    +0.023 A 
ATOM     19  C   UNL     1       5.913   3.607  -3.019  0.00  0.00    +0.036 A 
ATOM     20  N   UNL     1       5.406   2.320  -2.843  0.00  0.00    -0.286 N 
ATOM     21  C   UNL     1       4.465   2.273  -1.883  0.00  0.00    +0.212 C 
ATOM     22  O   UNL     1       3.861   1.281  -1.536  0.00  0.00    -0.277 OA
ATOM     23  C   UNL     1       1.448   5.278   0.237  0.00  0.00    +0.227 C 
ATOM     24  O   UNL     1       1.814   6.429   0.349  0.00  0.00    -0.275 OA
ATOM     25  N   UNL     1       0.170   4.858   0.314  0.00  0.00    -0.285 N 
ATOM     26  H   UNL     1       5.693   1.549  -3.356  0.00  0.00    +0.155 HD
ATOM     27  H   UNL     1      -0.587   5.449   0.452  0.00  0.00    +0.155 HD
ATOM     28  N   UNL     1       4.662   3.616   0.140  0.00  0.00    +0.395 N 
ATOM     29  H   UNL     1       5.025   2.683   0.367  0.00  0.00    -0.079 HD
ENDROOT
BRANCH  13  30
ATOM     30  C   UNL     1       2.137   3.482  -2.506  0.00  0.00    +0.167 C 
ATOM     31  O   UNL     1       1.951   2.288  -2.403  0.00  0.00    -0.292 OA
BRANCH  30  32
ATOM     32  C   UNL     1       1.596   4.214  -3.662  0.00  0.00    +0.018 A 
ATOM     33  C   UNL     1       1.907   5.565  -3.846  0.00  0.00    +0.013 A 
ATOM     34  C   UNL     1       1.399   6.243  -4.933  0.00  0.00    +0.020 A 
ATOM     35  C   UNL     1       0.574   5.593  -5.837  0.00  0.00    +0.041 A 
ATOM     36  C   UNL     1       0.258   4.255  -5.658  0.00  0.00    +0.020 A 
ATOM     37  C   UNL     1       0.762   3.563  -4.578  0.00  0.00    +0.013 A 
ATOM     38 CL   UNL     1      -0.066   6.457  -7.200  0.00  0.00    -0.084 Cl
ENDBRANCH  30  32
ENDBRANCH  13  30
TORSDOF 2
