REMARK  Name = ZINC04833636
REMARK  6 active torsions:
REMARK  status: ('A' for Active; 'I' for Inactive)
REMARK    1  A    between atoms: C_3  and  C_11
REMARK    2  A    between atoms: C_6  and  N_7
REMARK    3  A    between atoms: C_11  and  O_12
REMARK    4  A    between atoms: O_12  and  C_13
REMARK    5  A    between atoms: C_13  and  C_15
REMARK    6  A    between atoms: C_20  and  O_21
REMARK                            x       y       z     vdW  Elec       q    Type
REMARK                         _______ _______ _______ _____ _____    ______ ____
ROOT
ATOM      1  O   UNL     1       2.387   5.297   0.007  0.00  0.00    -0.456 OA
ENDROOT
BRANCH   1   2
ATOM      2  C   UNL     1       2.416   3.950   0.000  0.00  0.00    +0.343 C 
ATOM      3  O   UNL     1       3.480   3.365  -0.012  0.00  0.00    -0.245 OA
BRANCH   2   4
ATOM      4  C   UNL     1       1.155   3.186   0.008  0.00  0.00    +0.101 A 
ATOM      5  C   UNL     1      -0.072   3.855   0.022  0.00  0.00    +0.034 A 
ATOM      6  C   UNL     1      -1.247   3.135   0.030  0.00  0.00    +0.019 A 
ATOM      7  C   UNL     1      -1.218   1.749   0.017  0.00  0.00    +0.019 A 
ATOM      8  C   UNL     1      -0.013   1.076   0.008  0.00  0.00    +0.047 A 
ATOM      9  C   UNL     1       1.180   1.785   0.000  0.00  0.00    +0.131 A 
ATOM     10 BR   UNL     1      -2.907   4.041   0.050  0.00  0.00    -0.050 Br
BRANCH   9  11
ATOM     11  O   UNL     1       2.365   1.124  -0.015  0.00  0.00    -0.506 OA
ATOM     12  H   UNL     1       2.700   0.938  -0.902  0.00  0.00    +0.292 HD
ENDBRANCH   9  11
ENDBRANCH   2   4
ENDBRANCH   1   2
BRANCH   1  13
ATOM     13  C   UNL     1       3.667   5.984  -0.001  0.00  0.00    +0.269 C 
BRANCH  13  16
ATOM     14  C   UNL     1       1.940   9.341   0.032  0.00  0.00    +0.033 A 
ATOM     15  C   UNL     1       2.150   7.974   0.023  0.00  0.00    +0.010 A 
ATOM     16  C   UNL     1       3.438   7.473   0.009  0.00  0.00    +0.008 A 
ATOM     17  C   UNL     1       4.517   8.339   0.009  0.00  0.00    +0.050 A 
ATOM     18  C   UNL     1       4.306   9.706   0.014  0.00  0.00    +0.053 A 
ATOM     19  C   UNL     1       3.017  10.206   0.027  0.00  0.00    +0.128 A 
ATOM     20 CL   UNL     1       6.135   7.710  -0.001  0.00  0.00    -0.083 Cl
BRANCH  19  21
ATOM     21  N   UNL     1       2.792  11.669   0.037  0.00  0.00    +0.056 N 
ATOM     22  O   UNL     1       1.656  12.110   0.050  0.00  0.00    -0.126 OA
ATOM     23  O   UNL     1       3.741  12.432   0.033  0.00  0.00    -0.126 OA
ENDBRANCH  19  21
ENDBRANCH  13  16
ENDBRANCH   1  13
TORSDOF 6
