REMARK  Name = ZINC20230148
REMARK  7 active torsions:
REMARK  status: ('A' for Active; 'I' for Inactive)
REMARK    1  A    between atoms: C_3  and  C_22
REMARK    2  A    between atoms: C_6  and  C_7
REMARK    3  A    between atoms: C_10  and  C_12
REMARK    4  A    between atoms: C_17  and  C_18
REMARK    5  A    between atoms: N_23  and  O_24
REMARK    6  A    between atoms: O_24  and  C_25
REMARK    7  A    between atoms: C_25  and  C_27
REMARK                            x       y       z     vdW  Elec       q    Type
REMARK                         _______ _______ _______ _____ _____    ______ ____
ROOT
ATOM      1  C   UNL     1       2.339  -2.859  -0.042  0.00  0.00    +0.011 A 
ATOM      2  C   UNL     1       2.334  -4.236  -0.044  0.00  0.00    +0.012 A 
ATOM      3  C   UNL     1       1.122  -4.929  -0.036  0.00  0.00    +0.018 A 
ATOM      4  C   UNL     1      -0.084  -4.226  -0.021  0.00  0.00    +0.012 A 
ATOM      5  C   UNL     1      -0.078  -2.850  -0.013  0.00  0.00    +0.011 A 
ATOM      6  C   UNL     1       1.133  -2.157  -0.021  0.00  0.00    +0.001 A 
ENDROOT
BRANCH   6   7
ATOM      7  C   UNL     1       1.139  -0.675  -0.012  0.00  0.00    +0.079 A 
ATOM      8  C   UNL     1       2.326   0.013  -0.020  0.00  0.00    +0.075 A 
ATOM      9  S   UNL     1       1.731   1.699  -0.005  0.00  0.00    -0.075 S 
ATOM     10  C   UNL     1      -0.016   1.319   0.009  0.00  0.00    +0.111 A 
ATOM     11  N   UNL     1       0.002  -0.004   0.002  0.00  0.00    -0.239 NA
BRANCH  10  12
ATOM     12  C   UNL     1      -1.174   2.239   0.020  0.00  0.00    +0.037 A 
ATOM     13  C   UNL     1      -2.477   1.739   0.024  0.00  0.00    +0.121 A 
ATOM     14  N   UNL     1      -3.508   2.558   0.034  0.00  0.00    -0.263 NA
ATOM     15  C   UNL     1      -3.357   3.869   0.041  0.00  0.00    +0.111 A 
ATOM     16  C   UNL     1      -2.098   4.442   0.037  0.00  0.00    +0.033 A 
ATOM     17  C   UNL     1      -0.981   3.625   0.033  0.00  0.00    +0.067 A 
BRANCH  17  18
ATOM     18  C   UNL     1       0.407   4.212   0.035  0.00  0.00    +0.418 C 
ATOM     19  F   UNL     1       0.322   5.609   0.048  0.00  0.00    -0.166 F 
ATOM     20  F   UNL     1       1.096   3.776   1.171  0.00  0.00    -0.166 F 
ATOM     21  F   UNL     1       1.091   3.797  -1.113  0.00  0.00    -0.166 F 
ENDBRANCH  17  18
ENDBRANCH  10  12
ENDBRANCH   6   7
BRANCH   3  22
ATOM     22  C   UNL     1       1.117  -6.408  -0.045  0.00  0.00    +0.163 C 
ATOM     23  N   UNL     1       2.242  -7.064  -0.060  0.00  0.00    -0.059 NA
ATOM     24  N   UNL     1      -0.084  -7.095  -0.038  0.00  0.00    -0.340 N 
ATOM     25  H   UNL     1      -0.089  -8.195  -0.045  0.00  0.00    +0.144 HD
ATOM     26  H   UNL     1      -1.035  -6.542  -0.025  0.00  0.00    +0.144 HD
BRANCH  23  27
ATOM     27  O   UNL     1       2.237  -8.282  -0.067  0.00  0.00    -0.310 OA
BRANCH  27  28
ATOM     28  C   UNL     1       3.434  -8.897  -0.083  0.00  0.00    +0.366 C 
ATOM     29  O   UNL     1       4.455  -8.239  -0.088  0.00  0.00    -0.243 OA
BRANCH  28  30
ATOM     30  C   UNL     1       3.505 -10.372  -0.092  0.00  0.00    +0.061 A 
ATOM     31  C   UNL     1       2.333 -11.131  -0.080  0.00  0.00    +0.016 A 
ATOM     32  C   UNL     1       2.406 -12.508  -0.095  0.00  0.00    +0.021 A 
ATOM     33  C   UNL     1       3.640 -13.139  -0.111  0.00  0.00    +0.041 A 
ATOM     34  C   UNL     1       4.806 -12.392  -0.117  0.00  0.00    +0.021 A 
ATOM     35  C   UNL     1       4.746 -11.014  -0.108  0.00  0.00    +0.016 A 
ATOM     36 CL   UNL     1       3.724 -14.873  -0.123  0.00  0.00    -0.084 Cl
ENDBRANCH  28  30
ENDBRANCH  27  28
ENDBRANCH  23  27
ENDBRANCH   3  22
TORSDOF 7
