REMARK  Name = ZINC36064643
REMARK  14 active torsions:
REMARK  status: ('A' for Active; 'I' for Inactive)
REMARK    1  A    between atoms: C_1  and  C_2
REMARK    2  A    between atoms: C_2  and  C_3
REMARK    3  A    between atoms: C_4  and  C_34
REMARK    4  A    between atoms: C_5  and  C_24
REMARK    5  A    between atoms: C_8  and  C_13
REMARK    6  A    between atoms: C_14  and  N_16
REMARK    7  A    between atoms: N_16  and  C_17
REMARK    8  A    between atoms: C_17  and  C_18
REMARK    9  A    between atoms: C_26  and  O_32
REMARK   10  A    between atoms: C_29  and  O_30
REMARK   11  A    between atoms: O_30  and  C_31
REMARK   12  A    between atoms: O_32  and  C_33
REMARK   13  A    between atoms: C_34  and  O_36
REMARK   14  A    between atoms: O_36  and  C_37
REMARK                            x       y       z     vdW  Elec       q    Type
REMARK                         _______ _______ _______ _____ _____    ______ ____
ROOT
ATOM      1  C   UNL     1       0.667  -0.833   1.527  0.00  0.00    +0.056 C 
ATOM      2  C   UNL     1       0.129  -1.002   2.788  0.00  0.00    +0.083 C 
ATOM      3  C   UNL     1       1.079  -1.294   3.928  0.00  0.00    +0.153 C 
ATOM      4  N   UNL     1       2.527  -1.375   3.597  0.00  0.00    -0.267 N 
ATOM      5  C   UNL     1       3.566  -1.629   4.471  0.00  0.00    +0.048 C 
ATOM      6  C   UNL     1       4.818  -1.661   3.963  0.00  0.00    +0.072 C 
ATOM      7  S   UNL     1       4.525  -1.329   2.237  0.00  0.00    -0.060 S 
ATOM      8  C   UNL     1       2.854  -1.176   2.285  0.00  0.00    +0.166 C 
ATOM      9  N   UNL     1       1.973  -0.930   1.337  0.00  0.00    -0.229 NA
ENDROOT
BRANCH   3  10
ATOM     10  C   UNL     1       0.901  -0.218   4.968  0.00  0.00    +0.023 A 
ATOM     11  C   UNL     1       1.690   0.916   4.930  0.00  0.00    +0.055 A 
ATOM     12  C   UNL     1       1.526   1.906   5.887  0.00  0.00    +0.121 A 
ATOM     13  C   UNL     1       0.570   1.759   6.881  0.00  0.00    +0.049 A 
ATOM     14  C   UNL     1      -0.218   0.625   6.919  0.00  0.00    +0.049 A 
ATOM     15  C   UNL     1      -0.058  -0.363   5.959  0.00  0.00    +0.126 A 
BRANCH  15  16
ATOM     16  O   UNL     1      -0.838  -1.477   5.992  0.00  0.00    -0.495 OA
ATOM     17  C   UNL     1      -1.871  -1.516   6.978  0.00  0.00    +0.277 C 
ENDBRANCH  15  16
BRANCH  12  18
ATOM     18  O   UNL     1       2.302   3.022   5.851  0.00  0.00    -0.495 OA
ATOM     19  C   UNL     1       2.079   4.002   6.867  0.00  0.00    +0.277 C 
ENDBRANCH  12  18
ENDBRANCH   3  10
BRANCH   5  20
ATOM     20  C   UNL     1       3.319  -1.856   5.902  0.00  0.00    +0.091 C 
ATOM     21  C   UNL     1       4.331  -2.226   6.710  0.00  0.00    +0.239 C 
ATOM     22  O   UNL     1       5.597  -2.280   6.228  0.00  0.00    -0.271 OA
BRANCH  21  23
ATOM     23  N   UNL     1       4.079  -2.550   8.032  0.00  0.00    -0.309 N 
ATOM     24  H   UNL     1       3.166  -2.584   8.357  0.00  0.00    +0.149 HD
BRANCH  23  25
ATOM     25  C   UNL     1       5.191  -2.843   8.940  0.00  0.00    +0.136 C 
BRANCH  25  26
ATOM     26  C   UNL     1       4.639  -3.288  10.295  0.00  0.00    +0.135 C 
ATOM     27  C   UNL     1       5.800  -3.482  11.295  0.00  0.00    +0.035 C 
ATOM     28  C   UNL     1       5.356  -4.750  12.073  0.00  0.00    +0.031 C 
ATOM     29  C   UNL     1       4.632  -5.543  10.956  0.00  0.00    +0.160 C 
ATOM     30  O   UNL     1       3.970  -4.547  10.157  0.00  0.00    -0.375 OA
ENDBRANCH  25  26
ENDBRANCH  23  25
ENDBRANCH  21  23
ENDBRANCH   5  20
BRANCH   1  32
ATOM     31  C   UNL     1      -0.321   0.972   0.143  0.00  0.00    +0.010 C 
ATOM     32  C   UNL     1      -0.239  -0.541   0.359  0.00  0.00    +0.053 C 
ENDBRANCH   1  32
BRANCH   2  33
ATOM     33  C   UNL     1      -1.251  -0.907   3.004  0.00  0.00    +0.339 C 
ATOM     34  O   UNL     1      -1.919  -1.919   3.135  0.00  0.00    -0.245 OA
BRANCH  33  35
ATOM     35  O   UNL     1      -1.843   0.306   3.068  0.00  0.00    -0.465 OA
ATOM     36  C   UNL     1      -3.255   0.329   3.291  0.00  0.00    +0.280 C 
ENDBRANCH  33  35
ENDBRANCH   2  33
TORSDOF 10
