REMARK  Name = ZINC12469613
REMARK  10 active torsions:
REMARK  status: ('A' for Active; 'I' for Inactive)
REMARK    1  A    between atoms: C_1  and  C_2
REMARK    2  A    between atoms: C_4  and  N_31
REMARK    3  A    between atoms: C_7  and  N_8
REMARK    4  A    between atoms: C_9  and  C_11
REMARK    5  A    between atoms: C_11  and  S_12
REMARK    6  A    between atoms: S_12  and  C_13
REMARK    7  A    between atoms: C_23  and  C_27
REMARK    8  A    between atoms: C_27  and  C_28
REMARK    9  A    between atoms: C_27  and  C_29
REMARK   10  A    between atoms: C_27  and  C_30
REMARK                            x       y       z     vdW  Elec       q    Type
REMARK                         _______ _______ _______ _____ _____    ______ ____
ROOT
ATOM      1  C   UNL     1       3.340  -3.554  -4.727  0.00  0.00    +0.109 A 
ATOM      2  C   UNL     1       3.502  -2.385  -3.928  0.00  0.00    +0.043 A 
ATOM      3  C   UNL     1       2.577  -1.864  -2.936  0.00  0.00    -0.025 A 
ATOM      4  C   UNL     1       2.945  -0.730  -2.298  0.00  0.00    -0.004 A 
ATOM      5  S   UNL     1       4.528  -0.303  -2.981  0.00  0.00    -0.073 S 
ATOM      6  C   UNL     1       4.694  -1.641  -4.117  0.00  0.00    +0.113 A 
ATOM      7  N   UNL     1       5.632  -1.982  -4.979  0.00  0.00    -0.228 NA
ATOM      8  C   UNL     1       5.419  -3.083  -5.691  0.00  0.00    +0.223 A 
ATOM      9  N   UNL     1       4.336  -3.824  -5.570  0.00  0.00    -0.229 NA
ATOM     10  C   UNL     1       2.180   0.006  -1.242  0.00  0.00    +0.046 C 
ATOM     11  C   UNL     1       0.733  -0.508  -1.241  0.00  0.00    -0.000 C 
ATOM     12  C   UNL     1       0.754  -2.040  -1.252  0.00  0.00    +0.009 C 
ATOM     13  C   UNL     1       1.249  -2.542  -2.608  0.00  0.00    +0.037 C 
ENDROOT
BRANCH  11  14
ATOM     14  C   UNL     1       0.014  -0.014   0.016  0.00  0.00    -0.035 C 
ATOM     15  C   UNL     1       0.002   1.516   0.028  0.00  0.00    +0.011 C 
ATOM     16  C   UNL     1       0.745  -0.528   1.258  0.00  0.00    +0.011 C 
ATOM     17  C   UNL     1      -1.425  -0.535   0.018  0.00  0.00    +0.011 C 
ENDBRANCH  11  14
BRANCH   1  18
ATOM     18  S   UNL     1       1.912  -4.579  -4.607  0.00  0.00    -0.096 S 
BRANCH  18  19
ATOM     19  C   UNL     1       2.324  -5.838  -5.840  0.00  0.00    +0.171 C 
BRANCH  19  21
ATOM     20  N   UNL     1       1.301  -7.889  -6.770  0.00  0.00    -0.285 N 
ATOM     21  C   UNL     1       1.212  -6.853  -5.913  0.00  0.00    +0.227 C 
ATOM     22  O   UNL     1       0.237  -6.736  -5.202  0.00  0.00    -0.275 OA
ATOM     23  H   UNL     1       2.040  -7.940  -7.395  0.00  0.00    +0.155 HD
BRANCH  20  30
ATOM     24  C   UNL     1       0.882  -9.387  -9.153  0.00  0.00    +0.046 C 
ATOM     25  C   UNL     1       0.089  -9.647  -7.899  0.00  0.00    -0.027 A 
ATOM     26  C   UNL     1      -0.871 -10.640  -7.881  0.00  0.00    +0.038 A 
ATOM     27  C   UNL     1      -1.603 -10.877  -6.732  0.00  0.00    +0.127 A 
ATOM     28  C   UNL     1      -1.373 -10.123  -5.595  0.00  0.00    +0.034 A 
ATOM     29  C   UNL     1      -0.411  -9.133  -5.605  0.00  0.00    +0.026 A 
ATOM     30  C   UNL     1       0.326  -8.893  -6.757  0.00  0.00    +0.036 A 
BRANCH  27  31
ATOM     31  N   UNL     1      -2.635 -11.938  -6.719  0.00  0.00    +0.056 N 
ATOM     32  O   UNL     1      -3.281 -12.147  -5.708  0.00  0.00    -0.126 OA
ATOM     33  O   UNL     1      -2.838 -12.602  -7.720  0.00  0.00    -0.126 OA
ENDBRANCH  27  31
ENDBRANCH  20  30
ENDBRANCH  19  21
ENDBRANCH  18  19
ENDBRANCH   1  18
TORSDOF 6
