REMARK  Name = ZINC38740242
REMARK  4 active torsions:
REMARK  status: ('A' for Active; 'I' for Inactive)
REMARK    1  A    between atoms: C_13  and  C_15
REMARK    2  A    between atoms: C_21  and  C_23
REMARK    3  A    between atoms: C_28  and  C_31
REMARK    4  A    between atoms: C_28  and  O_38
REMARK                            x       y       z     vdW  Elec       q    Type
REMARK                         _______ _______ _______ _____ _____    ______ ____
ROOT
ATOM      1  C   UNL     1      -0.096  -6.665   1.192  0.00  0.00    +0.087 C 
ATOM      2  C   UNL     1      -0.855  -6.403  -0.111  0.00  0.00    +0.013 C 
ATOM      3  C   UNL     1      -2.125  -7.255  -0.141  0.00  0.00    +0.001 C 
ATOM      4  C   UNL     1      -1.748  -8.736  -0.060  0.00  0.00    +0.001 C 
ATOM      5  C   UNL     1      -0.989  -8.998   1.242  0.00  0.00    +0.013 C 
ATOM      6  C   UNL     1       0.281  -8.146   1.272  0.00  0.00    +0.087 C 
ENDROOT
BRANCH   1  19
ATOM      7  C   UNL     1      -0.181   0.866   4.201  0.00  0.00    +0.005 A 
ATOM      8  C   UNL     1       1.001   1.595   4.230  0.00  0.00    +0.018 A 
ATOM      9  C   UNL     1       2.192   0.963   3.935  0.00  0.00    +0.084 A 
ATOM     10  N   UNL     1       2.221  -0.320   3.628  0.00  0.00    -0.350 N 
ATOM     11  C   UNL     1       1.116  -1.049   3.590  0.00  0.00    +0.099 A 
ATOM     12  C   UNL     1      -0.120  -0.477   3.876  0.00  0.00    +0.042 A 
ATOM     13  N   UNL     1       1.192  -2.397   3.261  0.00  0.00    -0.314 N 
ATOM     14  C   UNL     1      -0.004  -3.250   3.320  0.00  0.00    +0.125 C 
ATOM     15  C   UNL     1      -0.196  -3.920   1.953  0.00  0.00    +0.126 C 
ATOM     16  N   UNL     1       1.082  -4.518   1.540  0.00  0.00    -0.298 N 
ATOM     17  C   UNL     1       2.277  -3.666   1.482  0.00  0.00    +0.126 C 
ATOM     18  C   UNL     1       2.468  -2.995   2.843  0.00  0.00    +0.125 C 
ATOM     19  C   UNL     1       1.155  -5.826   1.222  0.00  0.00    +0.219 C 
ATOM     20  O   UNL     1       2.228  -6.327   0.959  0.00  0.00    -0.275 OA
ATOM     21  H   UNL     1       3.072  -0.739   3.426  0.00  0.00    +0.166 HD
ENDBRANCH   1  19
BRANCH   6  22
ATOM     22  C   UNL     1       1.029  -8.405   2.555  0.00  0.00    +0.219 C 
ATOM     23  O   UNL     1       0.905  -7.646   3.493  0.00  0.00    -0.275 OA
ATOM     24  N   UNL     1       1.836  -9.479   2.660  0.00  0.00    -0.301 N 
ATOM     25  C   UNL     1       2.087 -10.343   1.498  0.00  0.00    +0.111 C 
ATOM     26  C   UNL     1       3.600 -10.471   1.297  0.00  0.00    +0.058 C 
ATOM     27  C   UNL     1       4.244 -10.961   2.595  0.00  0.00    +0.094 C 
ATOM     28  C   UNL     1       3.989  -9.943   3.709  0.00  0.00    +0.058 C 
ATOM     29  C   UNL     1       2.486  -9.806   3.937  0.00  0.00    +0.111 C 
BRANCH  27  30
ATOM     30  C   UNL     1       5.728 -11.120   2.391  0.00  0.00    -0.016 A 
ATOM     31  C   UNL     1       6.393 -10.309   1.490  0.00  0.00    +0.008 A 
ATOM     32  C   UNL     1       7.754 -10.455   1.301  0.00  0.00    +0.020 A 
ATOM     33  C   UNL     1       8.452 -11.413   2.015  0.00  0.00    +0.041 A 
ATOM     34  C   UNL     1       7.787 -12.225   2.916  0.00  0.00    +0.020 A 
ATOM     35  C   UNL     1       6.426 -12.074   3.108  0.00  0.00    +0.008 A 
ATOM     36 CL   UNL     1      10.162 -11.597   1.778  0.00  0.00    -0.084 Cl
ENDBRANCH  27  30
BRANCH  27  37
ATOM     37  O   UNL     1       3.676 -12.220   2.963  0.00  0.00    -0.384 OA
ATOM     38  H   UNL     1       4.039 -12.592   3.779  0.00  0.00    +0.211 HD
ENDBRANCH  27  37
ENDBRANCH   6  22
TORSDOF 4
