REMARK  Name = ZINC02978103
REMARK  5 active torsions:
REMARK  status: ('A' for Active; 'I' for Inactive)
REMARK    1  A    between atoms: C_1  and  O_2
REMARK    2  A    between atoms: O_2  and  C_3
REMARK    3  A    between atoms: C_12  and  C_13
REMARK    4  A    between atoms: C_25  and  S_28
REMARK    5  A    between atoms: S_28  and  C_29
REMARK                            x       y       z     vdW  Elec       q    Type
REMARK                         _______ _______ _______ _____ _____    ______ ____
ROOT
ATOM      1  C   UNL     1       2.335   5.446   0.010  0.00  0.00    +0.298 C 
ATOM      2  N   UNL     1       3.496   5.934   0.748  0.00  0.00    -0.305 N 
ATOM      3  C   UNL     1       3.480   5.875   2.145  0.00  0.00    +0.040 A 
ATOM      4  C   UNL     1       4.296   5.001   2.839  0.00  0.00    +0.025 A 
ATOM      5  C   UNL     1       4.230   4.944   4.219  0.00  0.00    +0.017 A 
ATOM      6  C   UNL     1       3.349   5.758   4.912  0.00  0.00    +0.019 A 
ATOM      7  C   UNL     1       2.532   6.642   4.233  0.00  0.00    +0.027 A 
ATOM      8  C   UNL     1       2.593   6.713   2.847  0.00  0.00    +0.029 A 
ATOM      9  C   UNL     1       1.748   7.654   2.082  0.00  0.00    +0.156 A 
ATOM     10  C   UNL     1       1.033   7.191   0.954  0.00  0.00    +0.248 A 
ATOM     11  N   UNL     1       0.294   8.050   0.274  0.00  0.00    -0.184 NA
ATOM     12  C   UNL     1       0.240   9.319   0.671  0.00  0.00    +0.212 A 
ATOM     13  N   UNL     1       0.913   9.732   1.737  0.00  0.00    -0.122 NA
ATOM     14  N   UNL     1       1.647   8.928   2.427  0.00  0.00    -0.141 NA
ATOM     15  O   UNL     1       1.114   5.888   0.593  0.00  0.00    -0.449 OA
ATOM     16 BR   UNL     1       3.264   5.659   6.798  0.00  0.00    -0.050 Br
ATOM     17  H   UNL     1       4.265   6.292   0.277  0.00  0.00    +0.150 HD
ENDROOT
BRANCH   1  27
ATOM     18  C   UNL     1       1.914   3.239   1.087  0.00  0.00    +0.129 A 
ATOM     19  C   UNL     1       1.927   1.841   1.094  0.00  0.00    +0.047 A 
ATOM     20  C   UNL     1       2.381   1.141   0.020  0.00  0.00    +0.012 A 
ATOM     21  C   UNL     1       2.845   1.829  -1.115  0.00  0.00    -0.017 A 
ATOM     22  C   UNL     1       3.321   1.137  -2.242  0.00  0.00    +0.008 A 
ATOM     23  C   UNL     1       3.767   1.835  -3.322  0.00  0.00    +0.001 A 
ATOM     24  C   UNL     1       3.749   3.228  -3.333  0.00  0.00    +0.001 A 
ATOM     25  C   UNL     1       3.296   3.932  -2.260  0.00  0.00    +0.009 A 
ATOM     26  C   UNL     1       2.832   3.246  -1.124  0.00  0.00    -0.006 A 
ATOM     27  C   UNL     1       2.357   3.939   0.001  0.00  0.00    +0.060 A 
BRANCH  18  29
ATOM     28  C   UNL     1       1.003   3.125   3.280  0.00  0.00    +0.277 C 
ATOM     29  O   UNL     1       1.453   3.911   2.175  0.00  0.00    -0.495 OA
ENDBRANCH  18  29
ENDBRANCH   1  27
BRANCH  12  30
ATOM     30  S   UNL     1      -0.742  10.469  -0.233  0.00  0.00    -0.088 S 
ATOM     31  C   UNL     1      -0.440  11.968   0.735  0.00  0.00    +0.093 C 
ENDBRANCH  12  30
TORSDOF 3
