REMARK  Name = ZINC00894193
REMARK  6 active torsions:
REMARK  status: ('A' for Active; 'I' for Inactive)
REMARK    1  A    between atoms: C_1  and  C_2
REMARK    2  A    between atoms: C_5  and  C_32
REMARK    3  A    between atoms: C_9  and  C_14
REMARK    4  A    between atoms: C_14  and  C_16
REMARK    5  A    between atoms: C_14  and  N_61
REMARK    6  A    between atoms: N_20  and  C_21
REMARK                            x       y       z     vdW  Elec       q    Type
REMARK                         _______ _______ _______ _____ _____    ______ ____
ROOT
ATOM      1  C   UNL     1       3.592   1.631   3.726  0.00  0.00    +0.039 C 
ENDROOT
BRANCH   1  10
ATOM      2  C   UNL     1       0.239   0.665  -0.139  0.00  0.00    +0.044 C 
ATOM      3  C   UNL     1      -0.566   1.141   1.044  0.00  0.00    -0.041 A 
ATOM      4  C   UNL     1      -1.924   1.249   0.950  0.00  0.00    +0.004 A 
ATOM      5  C   UNL     1      -2.675   1.681   2.035  0.00  0.00    +0.005 A 
ATOM      6  C   UNL     1      -2.063   2.019   3.223  0.00  0.00    -0.026 A 
ATOM      7  C   UNL     1      -0.681   1.922   3.340  0.00  0.00    +0.052 A 
ATOM      8  C   UNL     1       0.076   1.478   2.239  0.00  0.00    +0.002 A 
ATOM      9  C   UNL     1       1.531   1.379   2.372  0.00  0.00    +0.018 A 
ATOM     10  C   UNL     1       2.098   1.722   3.556  0.00  0.00    +0.011 A 
ATOM     11  C   UNL     1       1.293   2.161   4.629  0.00  0.00    +0.251 A 
ATOM     12  O   UNL     1       1.824   2.464   5.684  0.00  0.00    -0.268 OA
ATOM     13  N   UNL     1      -0.043   2.255   4.516  0.00  0.00    -0.322 N 
ATOM     14  H   UNL     1      -0.583   2.570   5.297  0.00  0.00    +0.169 HD
ATOM     15  C   UNL     1      -2.890   2.493   4.391  0.00  0.00    +0.046 C 
ENDBRANCH   1  10
BRANCH   1  21
ATOM     16  C   UNL     1       5.353   0.761   5.144  0.00  0.00    -0.049 C 
ATOM     17  C   UNL     1       5.626  -0.045   6.417  0.00  0.00    +0.141 C 
ATOM     18  O   UNL     1       5.048  -1.346   6.285  0.00  0.00    -0.383 OA
ATOM     19  C   UNL     1       3.637  -1.328   6.055  0.00  0.00    +0.141 C 
ATOM     20  C   UNL     1       3.343  -0.536   4.779  0.00  0.00    -0.049 C 
ATOM     21  N   UNL     1       3.892   0.829   4.931  0.00  0.00    +0.392 N 
ATOM     22  H   UNL     1       3.455   1.275   5.746  0.00  0.00    -0.080 HD
ENDBRANCH   1  21
BRANCH   1  23
ATOM     23  C   UNL     1       4.162   3.015   3.904  0.00  0.00    +0.143 A 
ATOM     24  N   UNL     1       4.089   3.758   4.981  0.00  0.00    -0.115 NA
ATOM     25  N   UNL     1       4.696   4.869   4.740  0.00  0.00    -0.023 NA
ATOM     26  N   UNL     1       5.154   4.854   3.537  0.00  0.00    -0.044 NA
ATOM     27  N   UNL     1       4.850   3.725   2.991  0.00  0.00    -0.227 N 
BRANCH  27  28
ATOM     28  C   UNL     1       5.187   3.298   1.631  0.00  0.00    +0.111 C 
ATOM     29  C   UNL     1       6.707   3.284   1.462  0.00  0.00    +0.027 C 
ATOM     30  C   UNL     1       7.059   2.838   0.042  0.00  0.00    +0.002 C 
ATOM     31  C   UNL     1       6.444   3.811  -0.965  0.00  0.00    +0.000 C 
ATOM     32  C   UNL     1       4.924   3.826  -0.797  0.00  0.00    +0.002 C 
ATOM     33  C   UNL     1       4.572   4.272   0.623  0.00  0.00    +0.027 C 
ENDBRANCH  27  28
ENDBRANCH   1  23
TORSDOF 4
