REMARK  Name = ZINC39466860
REMARK  7 active torsions:
REMARK  status: ('A' for Active; 'I' for Inactive)
REMARK    1  A    between atoms: C_1  and  C_2
REMARK    2  A    between atoms: C_2  and  O_3
REMARK    3  A    between atoms: O_3  and  C_4
REMARK    4  A    between atoms: P_13  and  C_29
REMARK    5  A    between atoms: C_21  and  C_22
REMARK    6  A    between atoms: C_22  and  C_23
REMARK    7  A    between atoms: C_29  and  C_30
REMARK                            x       y       z     vdW  Elec       q    Type
REMARK                         _______ _______ _______ _____ _____    ______ ____
ROOT
ATOM      1  C   UNL     1       0.802  -1.824   1.306  0.00  0.00    +0.120 C 
ATOM      2  C   UNL     1       0.281  -2.642   0.388  0.00  0.00    +0.023 C 
ATOM      3  C   UNL     1       0.419  -4.137   0.559  0.00  0.00    +0.019 C 
ATOM      4  C   UNL     1      -0.660  -4.623   1.527  0.00  0.00    -0.002 C 
ATOM      5  C   UNL     1      -0.477  -6.114   1.832  0.00  0.00    -0.020 C 
ATOM      6  C   UNL     1      -1.594  -6.516   2.805  0.00  0.00    +0.156 C 
ATOM      7  O   UNL     1      -1.503  -7.923   3.087  0.00  0.00    -0.319 OA
ATOM      8  P   UNL     1      -0.054  -8.511   3.539  0.00  0.00    +0.262 P 
ATOM      9  O   UNL     1       0.018  -9.964   3.269  0.00  0.00    -0.274 OA
ATOM     10  N   UNL     1       1.048  -7.702   2.615  0.00  0.00    -0.291 NA
ATOM     11  N   UNL     1       0.846  -6.353   2.413  0.00  0.00    +0.397 N 
ATOM     12  C   UNL     1       1.900  -5.924   1.479  0.00  0.00    -0.046 C 
ATOM     13  C   UNL     1       1.799  -4.440   1.151  0.00  0.00    +0.005 C 
ATOM     14  C   UNL     1       1.999  -3.628   2.402  0.00  0.00    -0.017 C 
ATOM     15  C   UNL     1       1.502  -2.389   2.476  0.00  0.00    -0.005 C 
ATOM     16  H   UNL     1       1.812  -8.160   2.230  0.00  0.00    +0.111 HD
ATOM     17  H   UNL     1       0.928  -5.858   3.288  0.00  0.00    -0.055 HD
ENDROOT
BRANCH   1  18
ATOM     18  O   UNL     1       0.693  -0.477   1.160  0.00  0.00    -0.492 OA
BRANCH  18  20
ATOM     19  C   UNL     1      -0.019   1.526   0.010  0.00  0.00    +0.048 C 
ATOM     20  C   UNL     1       0.002  -0.004   0.002  0.00  0.00    +0.225 C 
ENDBRANCH  18  20
ENDBRANCH   1  18
BRANCH  15  21
ATOM     21  C   UNL     1       1.674  -1.567   3.728  0.00  0.00    +0.073 C 
BRANCH  21  22
ATOM     22  C   UNL     1       2.901  -0.702   3.596  0.00  0.00    -0.043 A 
ATOM     23  C   UNL     1       4.130  -1.178   4.010  0.00  0.00    +0.004 A 
ATOM     24  C   UNL     1       5.255  -0.384   3.890  0.00  0.00    +0.000 A 
ATOM     25  C   UNL     1       5.151   0.886   3.354  0.00  0.00    +0.000 A 
ATOM     26  C   UNL     1       3.921   1.362   2.938  0.00  0.00    +0.000 A 
ATOM     27  C   UNL     1       2.797   0.566   3.055  0.00  0.00    +0.004 A 
ENDBRANCH  21  22
ENDBRANCH  15  21
BRANCH   8  28
ATOM     28  C   UNL     1       0.237  -8.183   5.309  0.00  0.00    +0.147 C 
BRANCH  28  29
ATOM     29  C   UNL     1      -0.840  -8.847   6.127  0.00  0.00    -0.037 A 
ATOM     30  C   UNL     1      -2.004  -8.163   6.423  0.00  0.00    +0.004 A 
ATOM     31  C   UNL     1      -2.992  -8.772   7.173  0.00  0.00    +0.000 A 
ATOM     32  C   UNL     1      -2.817 -10.066   7.627  0.00  0.00    +0.000 A 
ATOM     33  C   UNL     1      -1.653 -10.751   7.330  0.00  0.00    +0.000 A 
ATOM     34  C   UNL     1      -0.667 -10.143   6.576  0.00  0.00    +0.004 A 
ENDBRANCH  28  29
ENDBRANCH   8  28
TORSDOF 6
