REMARK  Name = ZINC03865104
REMARK  13 active torsions:
REMARK  status: ('A' for Active; 'I' for Inactive)
REMARK    1  A    between atoms: C_1  and  C_2
REMARK    2  A    between atoms: C_6  and  C_33
REMARK    3  A    between atoms: C_8  and  O_11
REMARK    4  A    between atoms: O_11  and  P_12
REMARK    5  A    between atoms: P_12  and  C_14
REMARK    6  A    between atoms: P_12  and  C_23
REMARK    7  A    between atoms: C_17  and  N_20
REMARK    8  A    between atoms: N_20  and  C_21
REMARK    9  A    between atoms: N_20  and  C_22
REMARK   10  A    between atoms: C_23  and  C_25
REMARK   11  A    between atoms: C_23  and  O_32
REMARK   12  A    between atoms: C_33  and  C_34
REMARK   13  A    between atoms: C_33  and  C_35
REMARK                            x       y       z     vdW  Elec       q    Type
REMARK                         _______ _______ _______ _____ _____    ______ ____
ROOT
ATOM      1  P   UNL     1      -0.331   3.473  -2.708  0.00  0.00    +0.266 P 
ATOM      2  O   UNL     1       1.040   2.988  -2.979  0.00  0.00    -0.283 OA
ENDROOT
BRANCH   1   3
ATOM      3  C   UNL     1      -1.397   3.096  -4.127  0.00  0.00    +0.040 A 
ATOM      4  C   UNL     1      -0.861   3.051  -5.400  0.00  0.00    +0.015 A 
ATOM      5  C   UNL     1      -1.668   2.759  -6.482  0.00  0.00    +0.024 A 
ATOM      6  C   UNL     1      -3.024   2.522  -6.290  0.00  0.00    +0.029 A 
ATOM      7  C   UNL     1      -3.561   2.573  -5.010  0.00  0.00    +0.024 A 
ATOM      8  C   UNL     1      -2.746   2.860  -3.933  0.00  0.00    +0.015 A 
BRANCH   6   9
ATOM      9  N   UNL     1      -3.845   2.232  -7.383  0.00  0.00    -0.336 N 
ATOM     10  C   UNL     1      -5.292   2.106  -7.198  0.00  0.00    +0.129 C 
ATOM     11  C   UNL     1      -3.258   2.054  -8.713  0.00  0.00    +0.129 C 
ENDBRANCH   6   9
ENDBRANCH   1   3
BRANCH   1  12
ATOM     12  O   UNL     1      -0.908   2.743  -1.394  0.00  0.00    -0.319 OA
BRANCH  12  18
ATOM     13  C   UNL     1      -2.918   3.065   0.059  0.00  0.00    +0.007 C 
ATOM     14  C   UNL     1      -2.977   1.544   0.209  0.00  0.00    -0.012 C 
ATOM     15  C   UNL     1      -2.144   1.117   1.419  0.00  0.00    +0.004 C 
ATOM     16  C   UNL     1      -0.691   1.554   1.218  0.00  0.00    +0.006 C 
ATOM     17  C   UNL     1      -0.131   0.896  -0.044  0.00  0.00    +0.021 C 
ATOM     18  C   UNL     1      -0.963   1.322  -1.254  0.00  0.00    +0.130 C 
ATOM     19  C   UNL     1      -2.416   0.885  -1.053  0.00  0.00    +0.035 C 
BRANCH  17  20
ATOM     20  C   UNL     1       1.322   1.332  -0.245  0.00  0.00    -0.012 C 
ATOM     21  C   UNL     1       2.155   0.906   0.966  0.00  0.00    +0.007 C 
ATOM     22  C   UNL     1       1.883   0.674  -1.507  0.00  0.00    +0.007 C 
ENDBRANCH  17  20
ENDBRANCH  12  18
ENDBRANCH   1  12
BRANCH   1  23
ATOM     23  C   UNL     1      -0.296   5.275  -2.436  0.00  0.00    +0.235 C 
BRANCH  23  24
ATOM     24  C   UNL     1       0.589   5.588  -1.257  0.00  0.00    -0.009 A 
ATOM     25  C   UNL     1       0.052   5.645   0.015  0.00  0.00    +0.008 A 
ATOM     26  C   UNL     1       0.865   5.927   1.097  0.00  0.00    +0.015 A 
ATOM     27  C   UNL     1       2.214   6.163   0.905  0.00  0.00    +0.018 A 
ATOM     28  C   UNL     1       2.750   6.111  -0.369  0.00  0.00    +0.015 A 
ATOM     29  C   UNL     1       1.938   5.824  -1.450  0.00  0.00    +0.008 A 
ATOM     30 BR   UNL     1       3.325   6.556   2.384  0.00  0.00    -0.050 Br
ENDBRANCH  23  24
BRANCH  23  31
ATOM     31  O   UNL     1       0.216   5.923  -3.602  0.00  0.00    -0.377 OA
ATOM     32  H   UNL     1       1.113   5.653  -3.840  0.00  0.00    +0.211 HD
ENDBRANCH  23  31
ENDBRANCH   1  23
TORSDOF 8
