REMARK  Name = ZINC06348429
REMARK  7 active torsions:
REMARK  status: ('A' for Active; 'I' for Inactive)
REMARK    1  A    between atoms: C_1  and  C_2
REMARK    2  A    between atoms: C_3  and  C_19
REMARK    3  A    between atoms: C_4  and  C_10
REMARK    4  A    between atoms: C_13  and  C_16
REMARK    5  A    between atoms: C_16  and  C_17
REMARK    6  A    between atoms: C_16  and  C_18
REMARK    7  A    between atoms: N_21  and  C_22
REMARK                            x       y       z     vdW  Elec       q    Type
REMARK                         _______ _______ _______ _____ _____    ______ ____
ROOT
ATOM      1  C   UNL     1      -5.325   4.995   4.357  0.00  0.00    +0.061 C 
ATOM      2  C   UNL     1      -3.937   4.443   4.556  0.00  0.00    +0.019 C 
ATOM      3  C   UNL     1      -3.658   3.187   4.151  0.00  0.00    +0.056 C 
ATOM      4  C   UNL     1      -2.250   2.671   4.370  0.00  0.00    +0.142 C 
ATOM      5  N   UNL     1      -1.295   3.590   5.011  0.00  0.00    -0.288 N 
ATOM      6  C   UNL     1      -1.723   4.819   5.360  0.00  0.00    +0.304 C 
ATOM      7  O   UNL     1      -0.942   5.586   5.890  0.00  0.00    -0.252 OA
ATOM      8  N   UNL     1      -2.981   5.224   5.143  0.00  0.00    -0.273 N 
ATOM      9  H   UNL     1      -0.379   3.318   5.178  0.00  0.00    +0.151 HD
ATOM     10  H   UNL     1      -3.228   6.121   5.418  0.00  0.00    +0.156 HD
ENDROOT
BRANCH   4  11
ATOM     11  C   UNL     1      -1.687   2.276   3.029  0.00  0.00    -0.023 A 
ATOM     12  C   UNL     1      -1.902   1.002   2.537  0.00  0.00    +0.006 A 
ATOM     13  C   UNL     1      -1.385   0.640   1.308  0.00  0.00    +0.004 A 
ATOM     14  C   UNL     1      -0.654   1.551   0.569  0.00  0.00    -0.045 A 
ATOM     15  C   UNL     1      -0.435   2.824   1.063  0.00  0.00    +0.004 A 
ATOM     16  C   UNL     1      -0.955   3.188   2.291  0.00  0.00    +0.006 A 
BRANCH  14  17
ATOM     17  C   UNL     1      -0.090   1.156  -0.771  0.00  0.00    +0.013 C 
ATOM     18  C   UNL     1       1.433   1.290  -0.744  0.00  0.00    +0.012 C 
ATOM     19  C   UNL     1      -0.663   2.072  -1.855  0.00  0.00    +0.012 C 
ENDBRANCH  14  17
ENDBRANCH   4  11
BRANCH   3  20
ATOM     20  C   UNL     1      -4.648   2.377   3.542  0.00  0.00    +0.248 C 
ATOM     21  O   UNL     1      -5.050   1.377   4.109  0.00  0.00    -0.270 OA
ATOM     22  N   UNL     1      -5.146   2.714   2.336  0.00  0.00    -0.282 N 
ATOM     23  H   UNL     1      -4.903   3.561   1.930  0.00  0.00    +0.155 HD
BRANCH  22  24
ATOM     24  C   UNL     1      -6.011   1.841   1.667  0.00  0.00    +0.034 A 
ATOM     25  C   UNL     1      -6.860   1.014   2.391  0.00  0.00    +0.026 A 
ATOM     26  C   UNL     1      -7.717   0.156   1.729  0.00  0.00    +0.040 A 
ATOM     27  C   UNL     1      -7.723   0.113   0.345  0.00  0.00    +0.124 A 
ATOM     28  C   UNL     1      -6.874   0.933  -0.379  0.00  0.00    +0.040 A 
ATOM     29  C   UNL     1      -6.019   1.796   0.279  0.00  0.00    +0.026 A 
ATOM     30  F   UNL     1      -8.559  -0.730  -0.300  0.00  0.00    -0.205 F 
ENDBRANCH  22  24
ENDBRANCH   3  20
TORSDOF 4
