REMARK  Name = ZINC10341990
REMARK  7 active torsions:
REMARK  status: ('A' for Active; 'I' for Inactive)
REMARK    1  A    between atoms: C_1  and  C_2
REMARK    2  A    between atoms: C_4  and  N_11
REMARK    3  A    between atoms: C_5  and  O_9
REMARK    4  A    between atoms: O_9  and  C_10
REMARK    5  A    between atoms: C_12  and  C_14
REMARK    6  A    between atoms: C_14  and  C_16
REMARK    7  A    between atoms: C_14  and  N_45
REMARK                            x       y       z     vdW  Elec       q    Type
REMARK                         _______ _______ _______ _____ _____    ______ ____
ROOT
ATOM      1  N   UNL     1      -0.205   1.402   0.153  0.00  0.00    -0.284 N 
ATOM      2  C   UNL     1      -1.316   2.162   0.101  0.00  0.00    +0.204 C 
ATOM      3  O   UNL     1      -2.409   1.648   0.217  0.00  0.00    -0.277 OA
ATOM      4  H   UNL     1       0.670   1.821   0.135  0.00  0.00    +0.155 HD
ENDROOT
BRANCH   1   8
ATOM      5  C   UNL     1      -2.800  -2.691  -0.676  0.00  0.00    +0.045 C 
ATOM      6  C   UNL     1      -1.559  -2.004  -0.169  0.00  0.00    -0.030 A 
ATOM      7  C   UNL     1      -1.454  -0.628  -0.241  0.00  0.00    +0.031 A 
ATOM      8  C   UNL     1      -0.313   0.006   0.226  0.00  0.00    +0.076 A 
ATOM      9  C   UNL     1       0.729  -0.748   0.762  0.00  0.00    +0.143 A 
ATOM     10  C   UNL     1       0.615  -2.126   0.837  0.00  0.00    +0.067 A 
ATOM     11  C   UNL     1      -0.527  -2.752   0.369  0.00  0.00    +0.047 A 
ATOM     12 CL   UNL     1      -0.665  -4.480   0.458  0.00  0.00    -0.083 Cl
BRANCH   9  13
ATOM     13  O   UNL     1       1.853  -0.131   1.216  0.00  0.00    -0.493 OA
ATOM     14  C   UNL     1       2.880  -0.967   1.753  0.00  0.00    +0.277 C 
ENDBRANCH   9  13
ENDBRANCH   1   8
BRANCH   2  15
ATOM     15  C   UNL     1      -1.202   3.651  -0.100  0.00  0.00    +0.017 C 
ATOM     16  C   UNL     1      -0.616   3.935  -1.484  0.00  0.00    -0.004 C 
BRANCH  15  25
ATOM     17  C   UNL     1      -3.387   3.860  -1.125  0.00  0.00    -0.072 C 
ATOM     18  C   UNL     1      -4.852   4.169  -0.774  0.00  0.00    +0.024 C 
ATOM     19  C   UNL     1      -4.903   5.554  -0.215  0.00  0.00    -0.011 A 
ATOM     20  C   UNL     1      -3.844   6.302   0.204  0.00  0.00    -0.054 A 
ATOM     21  C   UNL     1      -4.135   7.575   0.688  0.00  0.00    +0.009 A 
ATOM     22  C   UNL     1      -5.416   8.010   0.724  0.00  0.00    +0.045 A 
ATOM     23  S   UNL     1      -6.300   6.606   0.059  0.00  0.00    -0.101 S 
ATOM     24  C   UNL     1      -2.435   5.723   0.125  0.00  0.00    -0.041 C 
ATOM     25  N   UNL     1      -2.546   4.248   0.033  0.00  0.00    +0.390 N 
ATOM     26  H   UNL     1      -2.983   3.895   0.893  0.00  0.00    -0.080 HD
ENDBRANCH  15  25
ENDBRANCH   2  15
TORSDOF 4
