REMARK  Name = ZINC25850170
REMARK  11 active torsions:
REMARK  status: ('A' for Active; 'I' for Inactive)
REMARK    1  A    between atoms: C_1  and  C_2
REMARK    2  A    between atoms: C_2  and  O_3
REMARK    3  A    between atoms: O_3  and  C_4
REMARK    4  A    between atoms: C_9  and  N_10
REMARK    5  A    between atoms: C_11  and  C_13
REMARK    6  A    between atoms: C_13  and  C_15
REMARK    7  A    between atoms: C_13  and  O_21
REMARK    8  A    between atoms: O_21  and  C_22
REMARK    9  A    between atoms: C_22  and  C_24
REMARK   10  A    between atoms: C_28  and  C_37
REMARK   11  A    between atoms: N_29  and  C_31
REMARK                            x       y       z     vdW  Elec       q    Type
REMARK                         _______ _______ _______ _____ _____    ______ ____
ROOT
ATOM      1  C   UNL     1       1.670  -5.941   1.377  0.00  0.00    +0.292 C 
ENDROOT
BRANCH   1   2
ATOM      2  C   UNL     1       3.103  -6.171   0.970  0.00  0.00    +0.002 A 
ATOM      3  C   UNL     1       4.100  -5.346   1.456  0.00  0.00    +0.008 A 
ATOM      4  C   UNL     1       5.415  -5.560   1.086  0.00  0.00    +0.000 A 
ATOM      5  C   UNL     1       5.731  -6.593   0.224  0.00  0.00    +0.000 A 
ATOM      6  C   UNL     1       4.733  -7.414  -0.266  0.00  0.00    +0.000 A 
ATOM      7  C   UNL     1       3.419  -7.203   0.107  0.00  0.00    +0.008 A 
ENDBRANCH   1   2
BRANCH   1   9
ATOM      8  N   UNL     1       1.623  -7.851   2.948  0.00  0.00    -0.279 N 
ATOM      9  C   UNL     1       1.434  -6.532   2.743  0.00  0.00    +0.263 C 
ATOM     10  O   UNL     1       1.075  -5.822   3.657  0.00  0.00    -0.271 OA
ATOM     11  H   UNL     1       2.032  -8.480   2.143  0.00  0.00    +0.155 HD
BRANCH   8  17
ATOM     12  C   UNL     1       0.884  -9.749   4.256  0.00  0.00    +0.142 A 
ATOM     13  C   UNL     1       0.565 -10.307   5.483  0.00  0.00    +0.047 A 
ATOM     14  C   UNL     1       0.658  -9.547   6.634  0.00  0.00    +0.004 A 
ATOM     15  C   UNL     1       1.069  -8.229   6.565  0.00  0.00    +0.002 A 
ATOM     16  C   UNL     1       1.395  -7.666   5.346  0.00  0.00    +0.027 A 
ATOM     17  C   UNL     1       1.299  -8.421   4.186  0.00  0.00    +0.076 A 
BRANCH  12  18
ATOM     18  O   UNL     1       0.794 -10.496   3.123  0.00  0.00    -0.490 OA
BRANCH  18  20
ATOM     19  C   UNL     1       0.323 -12.526   1.900  0.00  0.00    +0.048 C 
ATOM     20  C   UNL     1       0.363 -11.850   3.272  0.00  0.00    +0.226 C 
ENDBRANCH  18  20
ENDBRANCH  12  18
ENDBRANCH   8  17
ENDBRANCH   1   9
BRANCH   1  21
ATOM     21  O   UNL     1       1.401  -4.514   1.414  0.00  0.00    -0.442 OA
BRANCH  21  22
ATOM     22  C   UNL     1       0.955  -3.946   0.277  0.00  0.00    +0.364 C 
ATOM     23  O   UNL     1       0.795  -4.624  -0.719  0.00  0.00    -0.243 OA
BRANCH  22  24
ATOM     24  C   UNL     1       0.660  -2.501   0.240  0.00  0.00    +0.215 A 
ATOM     25  C   UNL     1       0.172  -1.866  -0.995  0.00  0.00    +0.215 A 
ATOM     26  O   UNL     1      -0.001  -2.512  -2.017  0.00  0.00    -0.285 OA
ATOM     27  C   UNL     1      -0.092  -0.473  -0.947  0.00  0.00    +0.076 A 
ATOM     28  C   UNL     1       0.130   0.173   0.223  0.00  0.00    +0.044 A 
ATOM     29  N   UNL     1       0.581  -0.497   1.312  0.00  0.00    -0.236 N 
ATOM     30  N   UNL     1       0.828  -1.755   1.312  0.00  0.00    -0.156 NA
ATOM     31  C   UNL     1      -0.134   1.654   0.317  0.00  0.00    +0.066 C 
BRANCH  29  32
ATOM     32  C   UNL     1       0.788   0.221   2.494  0.00  0.00    +0.066 A 
ATOM     33  C   UNL     1       1.468   1.432   2.464  0.00  0.00    +0.028 A 
ATOM     34  C   UNL     1       1.666   2.140   3.633  0.00  0.00    +0.002 A 
ATOM     35  C   UNL     1       1.198   1.640   4.834  0.00  0.00    +0.000 A 
ATOM     36  C   UNL     1       0.525   0.432   4.869  0.00  0.00    +0.002 A 
ATOM     37  C   UNL     1       0.319  -0.279   3.703  0.00  0.00    +0.028 A 
ENDBRANCH  29  32
ENDBRANCH  22  24
ENDBRANCH  21  22
ENDBRANCH   1  21
TORSDOF 9
