REMARK  Name = ZINC31743927
REMARK  7 active torsions:
REMARK  status: ('A' for Active; 'I' for Inactive)
REMARK    1  A    between atoms: C_1  and  C_2
REMARK    2  A    between atoms: C_9  and  N_13
REMARK    3  A    between atoms: C_10  and  C_11
REMARK    4  A    between atoms: C_14  and  C_16
REMARK    5  A    between atoms: C_16  and  N_17
REMARK    6  A    between atoms: C_20  and  C_24
REMARK    7  A    between atoms: C_20  and  C_25
REMARK                            x       y       z     vdW  Elec       q    Type
REMARK                         _______ _______ _______ _____ _____    ______ ____
ROOT
ATOM      1  C   UNL     1       2.624  -7.488   3.399  0.00  0.00    +0.214 C 
ENDROOT
BRANCH   1   2
ATOM      2  N   UNL     1       2.915  -7.509   4.835  0.00  0.00    -0.215 N 
ATOM      3  C   UNL     1       4.136  -7.293   5.363  0.00  0.00    +0.251 C 
ATOM      4  O   UNL     1       5.162  -7.054   4.763  0.00  0.00    -0.272 OA
ATOM      5  C   UNL     1       3.959  -7.410   6.864  0.00  0.00    +0.138 C 
ATOM      6  N   UNL     1       2.525  -7.706   7.022  0.00  0.00    -0.281 N 
ATOM      7  C   UNL     1       2.000  -7.739   5.784  0.00  0.00    +0.310 C 
ATOM      8  O   UNL     1       0.827  -7.956   5.553  0.00  0.00    -0.252 OA
ATOM      9  C   UNL     1       4.809  -8.556   7.418  0.00  0.00    +0.047 C 
ATOM     10  H   UNL     1       2.051  -7.847   7.857  0.00  0.00    +0.152 HD
BRANCH   5  11
ATOM     11  C   UNL     1       4.311  -6.111   7.543  0.00  0.00    +0.022 A 
ATOM     12  C   UNL     1       3.363  -5.448   8.299  0.00  0.00    +0.047 A 
ATOM     13  C   UNL     1       3.686  -4.255   8.922  0.00  0.00    +0.124 A 
ATOM     14  C   UNL     1       4.958  -3.726   8.788  0.00  0.00    +0.041 A 
ATOM     15  C   UNL     1       5.906  -4.389   8.032  0.00  0.00    +0.041 A 
ATOM     16  C   UNL     1       5.584  -5.585   7.413  0.00  0.00    +0.129 A 
ATOM     17  F   UNL     1       6.512  -6.236   6.677  0.00  0.00    -0.205 F 
ATOM     18  F   UNL     1       2.759  -3.607   9.662  0.00  0.00    -0.205 F 
ENDBRANCH   5  11
ENDBRANCH   1   2
BRANCH   1  20
ATOM     19  N   UNL     1       1.941  -5.828   1.697  0.00  0.00    -0.278 N 
ATOM     20  C   UNL     1       2.252  -6.088   2.983  0.00  0.00    +0.236 C 
ATOM     21  O   UNL     1       2.232  -5.196   3.804  0.00  0.00    -0.274 OA
ATOM     22  H   UNL     1       1.957  -6.541   1.040  0.00  0.00    +0.155 HD
BRANCH  19  30
ATOM     23  C   UNL     1      -0.019   1.526   0.010  0.00  0.00    +0.008 C 
ATOM     24  C   UNL     1       0.002  -0.004   0.002  0.00  0.00    -0.009 C 
ATOM     25  C   UNL     1       0.724  -0.500  -1.254  0.00  0.00    +0.008 C 
ATOM     26  C   UNL     1       0.537  -2.012  -1.399  0.00  0.00    +0.037 C 
ATOM     27  C   UNL     1       0.935  -2.680  -0.092  0.00  0.00    -0.018 A 
ATOM     28  C   UNL     1       1.019  -1.977   1.059  0.00  0.00    -0.004 A 
ATOM     29  S   UNL     1       1.508  -3.165   2.275  0.00  0.00    -0.077 S 
ATOM     30  C   UNL     1       1.599  -4.539   1.313  0.00  0.00    +0.090 A 
ATOM     31  C   UNL     1       1.254  -4.090   0.049  0.00  0.00    +0.084 A 
ATOM     32  C   UNL     1       0.750  -0.515   1.242  0.00  0.00    +0.046 C 
BRANCH  31  33
ATOM     33  C   UNL     1       1.212  -4.980  -1.072  0.00  0.00    +0.102 C 
ATOM     34  N   UNL     1       1.180  -5.685  -1.962  0.00  0.00    -0.191 NA
ENDBRANCH  31  33
ENDBRANCH  19  30
ENDBRANCH   1  20
TORSDOF 5
