REMARK  Name = ZINC10255826
REMARK  2 active torsions:
REMARK  status: ('A' for Active; 'I' for Inactive)
REMARK    1  A    between atoms: C_8  and  C_24
REMARK    2  A    between atoms: C_11  and  C_13
REMARK                            x       y       z     vdW  Elec       q    Type
REMARK                         _______ _______ _______ _____ _____    ______ ____
ROOT
ATOM      1  C   UNL     1      -0.917   8.058   0.479  0.00  0.00    +0.000 A 
ATOM      2  C   UNL     1      -1.191   6.705   0.386  0.00  0.00    +0.002 A 
ATOM      3  C   UNL     1      -0.162   5.796   0.262  0.00  0.00    +0.024 A 
ATOM      4  C   UNL     1       1.164   6.233   0.229  0.00  0.00    +0.041 A 
ATOM      5  C   UNL     1       1.427   7.591   0.327  0.00  0.00    -0.024 A 
ATOM      6  C   UNL     1       0.393   8.498   0.458  0.00  0.00    +0.005 A 
ATOM      7  C   UNL     1       2.924   7.796   0.259  0.00  0.00    +0.069 C 
ATOM      8  C   UNL     1       3.502   6.379   0.114  0.00  0.00    +0.172 C 
ATOM      9  N   UNL     1       2.339   5.488   0.110  0.00  0.00    -0.252 N 
ATOM     10  C   UNL     1       2.394   4.146   0.001  0.00  0.00    +0.287 C 
ATOM     11  O   UNL     1       1.369   3.501  -0.099  0.00  0.00    -0.266 OA
ENDROOT
BRANCH  10  12
ATOM     12  C   UNL     1       3.705   3.456   0.002  0.00  0.00    +0.194 A 
ATOM     13  C   UNL     1       3.740   2.123  -0.240  0.00  0.00    +0.103 A 
ATOM     14  C   UNL     1       5.041   1.437  -0.238  0.00  0.00    +0.193 A 
ATOM     15  O   UNL     1       5.132   0.241  -0.449  0.00  0.00    -0.287 OA
ATOM     16  C   UNL     1       6.230   2.266   0.037  0.00  0.00    +0.064 A 
ATOM     17  C   UNL     1       7.510   1.712   0.066  0.00  0.00    +0.015 A 
ATOM     18  C   UNL     1       8.588   2.512   0.325  0.00  0.00    +0.001 A 
ATOM     19  C   UNL     1       8.416   3.870   0.557  0.00  0.00    +0.004 A 
ATOM     20  C   UNL     1       7.160   4.437   0.521  0.00  0.00    +0.047 A 
ATOM     21  C   UNL     1       6.048   3.641   0.265  0.00  0.00    +0.139 A 
ATOM     22  O   UNL     1       4.812   4.175   0.242  0.00  0.00    -0.450 OA
ENDBRANCH  10  12
BRANCH   8  23
ATOM     23  C   UNL     1       4.263   6.252  -1.181  0.00  0.00    +0.232 C 
ATOM     24  O   UNL     1       3.876   5.487  -2.039  0.00  0.00    -0.274 OA
ATOM     25  N   UNL     1       5.373   6.988  -1.385  0.00  0.00    -0.328 N 
ATOM     26  H   UNL     1       5.683   7.600  -0.699  0.00  0.00    +0.145 HD
ATOM     27  H   UNL     1       5.863   6.907  -2.219  0.00  0.00    +0.145 HD
ENDBRANCH   8  23
TORSDOF 2
