REMARK  Name = ZINC12472807
REMARK  11 active torsions:
REMARK  status: ('A' for Active; 'I' for Inactive)
REMARK    1  A    between atoms: C_1  and  C_2
REMARK    2  A    between atoms: C_6  and  N_8
REMARK    3  A    between atoms: N_8  and  C_9
REMARK    4  A    between atoms: C_9  and  C_11
REMARK    5  A    between atoms: C_9  and  C_17
REMARK    6  A    between atoms: C_14  and  C_16
REMARK    7  A    between atoms: N_19  and  C_20
REMARK    8  A    between atoms: C_20  and  C_21
REMARK    9  A    between atoms: C_27  and  C_29
REMARK   10  A    between atoms: C_30  and  N_37
REMARK   11  A    between atoms: C_31  and  C_34
REMARK                            x       y       z     vdW  Elec       q    Type
REMARK                         _______ _______ _______ _____ _____    ______ ____
ROOT
ATOM      1  N   UNL     1      -0.153   5.541   0.005  0.00  0.00    -0.248 N 
ATOM      2  C   UNL     1      -1.220   6.364   0.034  0.00  0.00    +0.262 C 
ATOM      3  O   UNL     1      -1.058   7.571   0.036  0.00  0.00    -0.269 OA
ENDROOT
BRANCH   1   9
ATOM      4  C   UNL     1      -0.919   1.580  -2.804  0.00  0.00    +0.044 C 
ATOM      5  C   UNL     1      -0.713   2.212  -1.452  0.00  0.00    -0.049 A 
ATOM      6  C   UNL     1      -0.709   1.425  -0.315  0.00  0.00    +0.003 A 
ATOM      7  C   UNL     1      -0.515   2.000   0.927  0.00  0.00    +0.002 A 
ATOM      8  C   UNL     1      -0.330   3.365   1.037  0.00  0.00    +0.023 A 
ATOM      9  C   UNL     1      -0.340   4.159  -0.102  0.00  0.00    +0.038 A 
ATOM     10  C   UNL     1      -0.535   3.578  -1.349  0.00  0.00    +0.027 A 
ENDBRANCH   1   9
BRANCH   2  11
ATOM     11  C   UNL     1      -2.574   5.808   0.062  0.00  0.00    +0.116 A 
ATOM     12  C   UNL     1      -3.803   6.466  -0.015  0.00  0.00    +0.076 A 
ATOM     13  C   UNL     1      -4.884   5.586   0.042  0.00  0.00    +0.155 A 
ATOM     14  N   UNL     1      -4.659   4.297   0.166  0.00  0.00    -0.203 NA
ATOM     15  S   UNL     1      -3.094   4.111   0.210  0.00  0.00    +0.019 S 
BRANCH  13  16
ATOM     16  C   UNL     1      -6.265   6.097  -0.030  0.00  0.00    +0.262 C 
ATOM     17  O   UNL     1      -6.466   7.291  -0.144  0.00  0.00    -0.269 OA
ATOM     18  N   UNL     1      -7.304   5.241   0.031  0.00  0.00    -0.324 N 
ATOM     19  H   UNL     1      -7.144   4.289   0.122  0.00  0.00    +0.145 HD
ATOM     20  H   UNL     1      -8.213   5.578  -0.017  0.00  0.00    +0.145 HD
ENDBRANCH  13  16
BRANCH  12  21
ATOM     21  N   UNL     1      -3.934   7.842  -0.138  0.00  0.00    -0.355 N 
ATOM     22  H   UNL     1      -3.144   8.404  -0.175  0.00  0.00    +0.142 HD
ATOM     23  H   UNL     1      -4.817   8.243  -0.186  0.00  0.00    +0.142 HD
ENDBRANCH  12  21
ENDBRANCH   2  11
BRANCH   1  24
ATOM     24  C   UNL     1       1.201   6.093   0.087  0.00  0.00    +0.233 C 
BRANCH  24  25
ATOM     25  C   UNL     1       1.898   5.536   1.301  0.00  0.00    +0.135 A 
ATOM     26  C   UNL     1       2.704   6.224   2.130  0.00  0.00    +0.047 A 
ATOM     27  C   UNL     1       3.137   5.318   3.126  0.00  0.00    +0.045 A 
ATOM     28  C   UNL     1       2.570   4.131   2.845  0.00  0.00    +0.102 A 
ATOM     29  O   UNL     1       1.816   4.271   1.742  0.00  0.00    -0.462 OA
ATOM     30  C   UNL     1       2.745   2.862   3.638  0.00  0.00    +0.086 C 
ENDBRANCH  24  25
BRANCH  24  31
ATOM     31  C   UNL     1       1.972   5.718  -1.152  0.00  0.00    +0.242 C 
ATOM     32  O   UNL     1       1.476   4.977  -1.974  0.00  0.00    -0.273 OA
ATOM     33  N   UNL     1       3.214   6.204  -1.346  0.00  0.00    -0.309 N 
ATOM     34  H   UNL     1       3.611   6.796  -0.688  0.00  0.00    +0.149 HD
BRANCH  33  35
ATOM     35  C   UNL     1       3.964   5.839  -2.550  0.00  0.00    +0.139 C 
BRANCH  35  36
ATOM     36  C   UNL     1       5.313   6.510  -2.525  0.00  0.00    -0.030 A 
ATOM     37  C   UNL     1       5.473   7.761  -3.092  0.00  0.00    +0.005 A 
ATOM     38  C   UNL     1       6.709   8.379  -3.064  0.00  0.00    +0.000 A 
ATOM     39  C   UNL     1       7.787   7.742  -2.479  0.00  0.00    +0.000 A 
ATOM     40  C   UNL     1       7.629   6.489  -1.918  0.00  0.00    +0.000 A 
ATOM     41  C   UNL     1       6.391   5.873  -1.941  0.00  0.00    +0.005 A 
ENDBRANCH  35  36
ENDBRANCH  33  35
ENDBRANCH  24  31
ENDBRANCH   1  24
TORSDOF 9
