REMARK  Name = ZINC30947167
REMARK  5 active torsions:
REMARK  status: ('A' for Active; 'I' for Inactive)
REMARK    1  A    between atoms: C_1  and  S_2
REMARK    2  A    between atoms: S_2  and  N_5
REMARK    3  A    between atoms: C_8  and  C_17
REMARK    4  A    between atoms: N_19  and  C_20
REMARK    5  A    between atoms: C_23  and  C_26
REMARK                            x       y       z     vdW  Elec       q    Type
REMARK                         _______ _______ _______ _____ _____    ______ ____
ROOT
ATOM      1  C   UNL     1      -0.289  -1.093  -1.469  0.00  0.00    +0.258 C 
ATOM      2  O   UNL     1       0.128  -2.229  -1.396  0.00  0.00    -0.271 OA
ATOM      3  N   UNL     1      -0.183  -0.408  -2.625  0.00  0.00    -0.282 N 
ATOM      4  H   UNL     1      -0.628   0.594  -2.714  0.00  0.00    +0.155 HD
ENDROOT
BRANCH   1   8
ATOM      5  N   UNL     1      -3.080  -0.131   1.791  0.00  0.00    -0.204 N 
ATOM      6  C   UNL     1      -3.068   0.630   0.533  0.00  0.00    +0.135 C 
ATOM      7  C   UNL     1      -2.394  -0.175  -0.562  0.00  0.00    +0.075 C 
ATOM      8  C   UNL     1      -0.925  -0.445  -0.266  0.00  0.00    +0.260 C 
ATOM      9  O   UNL     1      -0.777  -1.307   0.861  0.00  0.00    -0.478 OA
ATOM     10  C   UNL     1      -0.760  -0.706   2.088  0.00  0.00    +0.144 A 
ATOM     11  C   UNL     1      -1.921  -0.117   2.580  0.00  0.00    +0.092 A 
ATOM     12  C   UNL     1      -1.920   0.483   3.828  0.00  0.00    +0.028 A 
ATOM     13  C   UNL     1      -0.757   0.500   4.579  0.00  0.00    +0.002 A 
ATOM     14  C   UNL     1       0.398  -0.079   4.086  0.00  0.00    +0.004 A 
ATOM     15  C   UNL     1       0.399  -0.683   2.841  0.00  0.00    +0.047 A 
BRANCH   5  17
ATOM     16  C   UNL     1      -5.395   0.198   3.244  0.00  0.00    +0.218 C 
ATOM     17  S   UNL     1      -4.423  -0.978   2.263  0.00  0.00    +0.043 S 
ATOM     18  O   UNL     1      -5.102  -1.285   1.053  0.00  0.00    -0.155 OA
ATOM     19  O   UNL     1      -3.923  -2.014   3.096  0.00  0.00    -0.155 OA
ENDBRANCH   5  17
ENDBRANCH   1   8
BRANCH   3  20
ATOM     20  C   UNL     1       0.493  -0.972  -3.712  0.00  0.00    +0.034 A 
ATOM     21  C   UNL     1       1.230  -0.165  -4.569  0.00  0.00    +0.023 A 
ATOM     22  C   UNL     1       1.899  -0.725  -5.638  0.00  0.00    +0.006 A 
ATOM     23  C   UNL     1       1.828  -2.087  -5.864  0.00  0.00    -0.041 A 
ATOM     24  C   UNL     1       1.091  -2.894  -5.016  0.00  0.00    +0.006 A 
ATOM     25  C   UNL     1       0.423  -2.340  -3.941  0.00  0.00    +0.023 A 
BRANCH  23  26
ATOM     26  C   UNL     1       2.556  -2.695  -7.035  0.00  0.00    -0.003 C 
ATOM     27  C   UNL     1       3.569  -3.724  -6.529  0.00  0.00    +0.015 C 
ATOM     28  C   UNL     1       4.308  -4.340  -7.718  0.00  0.00    -0.010 C 
ATOM     29  C   UNL     1       5.040  -3.240  -8.489  0.00  0.00    +0.007 C 
ATOM     30  C   UNL     1       4.027  -2.212  -8.996  0.00  0.00    -0.010 C 
ATOM     31  C   UNL     1       3.288  -1.595  -7.807  0.00  0.00    +0.015 C 
ATOM     32  C   UNL     1       3.021  -2.900  -9.921  0.00  0.00    +0.007 C 
ATOM     33  C   UNL     1       2.288  -4.000  -9.149  0.00  0.00    -0.010 C 
ATOM     34  C   UNL     1       3.301  -5.028  -8.643  0.00  0.00    +0.007 C 
ATOM     35  C   UNL     1       1.550  -3.383  -7.960  0.00  0.00    +0.015 C 
ENDBRANCH  23  26
ENDBRANCH   3  20
TORSDOF 4
