REMARK  Name = ZINC09312204
REMARK  7 active torsions:
REMARK  status: ('A' for Active; 'I' for Inactive)
REMARK    1  A    between atoms: C_1  and  C_2
REMARK    2  A    between atoms: C_2  and  C_3
REMARK    3  A    between atoms: C_3  and  C_5
REMARK    4  A    between atoms: C_3  and  N_6
REMARK    5  A    between atoms: C_9  and  C_15
REMARK    6  A    between atoms: C_10  and  O_14
REMARK    7  A    between atoms: C_12  and  S_13
REMARK                            x       y       z     vdW  Elec       q    Type
REMARK                         _______ _______ _______ _____ _____    ______ ____
ROOT
ATOM      1  C   UNL     1       3.578  -3.603   0.029  0.00  0.00    +0.018 C 
ATOM      2  C   UNL     1       2.928  -2.240  -0.041  0.00  0.00    +0.011 A 
ATOM      3  C   UNL     1       1.591  -2.062  -0.007  0.00  0.00    -0.022 A 
ATOM      4  C   UNL     1       1.338  -0.630  -0.092  0.00  0.00    +0.003 A 
ATOM      5  C   UNL     1       0.187   0.161  -0.103  0.00  0.00    +0.010 A 
ATOM      6  C   UNL     1       0.296   1.520  -0.198  0.00  0.00    +0.001 A 
ATOM      7  C   UNL     1       1.544   2.123  -0.283  0.00  0.00    +0.002 A 
ATOM      8  C   UNL     1       2.693   1.363  -0.273  0.00  0.00    +0.026 A 
ATOM      9  C   UNL     1       2.606  -0.021  -0.177  0.00  0.00    +0.047 A 
ATOM     10  N   UNL     1       3.547  -1.028  -0.143  0.00  0.00    -0.359 N 
ATOM     11  H   UNL     1       4.507  -0.896  -0.185  0.00  0.00    +0.166 HD
ATOM     12  C   UNL     1       0.598  -3.191   0.099  0.00  0.00    +0.018 C 
ATOM     13  C   UNL     1       1.332  -4.497  -0.236  0.00  0.00    -0.076 C 
ATOM     14  N   UNL     1       2.586  -4.575   0.542  0.00  0.00    +0.388 N 
ATOM     15  H   UNL     1       2.385  -4.364   1.527  0.00  0.00    -0.084 HD
ATOM     16  H   UNL     1       2.973  -5.523   0.466  0.00  0.00    -0.084 HD
ENDROOT
BRANCH   1  20
ATOM     17  N   UNL     1       5.655  -3.271   3.138  0.00  0.00    -0.285 N 
ATOM     18  C   UNL     1       4.574  -3.301   2.330  0.00  0.00    +0.260 A 
ATOM     19  O   UNL     1       3.456  -3.114   2.783  0.00  0.00    -0.267 OA
ATOM     20  C   UNL     1       4.757  -3.555   0.966  0.00  0.00    +0.070 A 
ATOM     21  C   UNL     1       6.043  -3.756   0.492  0.00  0.00    +0.222 A 
ATOM     22  N   UNL     1       7.077  -3.709   1.337  0.00  0.00    -0.189 NA
ATOM     23  C   UNL     1       6.899  -3.475   2.621  0.00  0.00    +0.172 A 
BRANCH  17  24
ATOM     24  C   UNL     1       5.491  -3.013   4.571  0.00  0.00    +0.089 C 
ATOM     25  C   UNL     1       4.613  -4.103   5.188  0.00  0.00    +0.031 C 
BRANCH  24  27
ATOM     26  C   UNL     1       5.758  -0.549   4.258  0.00  0.00    +0.006 C 
ATOM     27  C   UNL     1       4.827  -1.649   4.771  0.00  0.00    +0.021 C 
ENDBRANCH  24  27
ENDBRANCH  17  24
BRANCH  23  28
ATOM     28  S   UNL     1       8.297  -3.424   3.692  0.00  0.00    -0.105 S 
ATOM     29  H   UNL     1       9.326  -3.678   2.762  0.00  0.00    +0.110 HD
ENDBRANCH  23  28
BRANCH  21  30
ATOM     30  O   UNL     1       6.251  -3.998  -0.823  0.00  0.00    -0.492 OA
ATOM     31  H   UNL     1       7.181  -4.125  -1.057  0.00  0.00    +0.294 HD
ENDBRANCH  21  30
ENDBRANCH   1  20
TORSDOF 5
