REMARK  Name = ZINC38690312
REMARK  4 active torsions:
REMARK  status: ('A' for Active; 'I' for Inactive)
REMARK    1  A    between atoms: C_4  and  C_7
REMARK    2  A    between atoms: C_12  and  N_16
REMARK    3  A    between atoms: N_16  and  N_17
REMARK    4  A    between atoms: C_18  and  C_19
REMARK                            x       y       z     vdW  Elec       q    Type
REMARK                         _______ _______ _______ _____ _____    ______ ____
ROOT
ATOM      1  N   UNL     1       1.250  -1.959   3.454  0.00  0.00    -0.193 NA
ATOM      2  C   UNL     1       0.087  -1.467   3.663  0.00  0.00    +0.120 C 
ENDROOT
BRANCH   2   3
ATOM      3  C   UNL     1      -0.687  -1.859   4.895  0.00  0.00    +0.141 C 
ATOM      4  C   UNL     1      -1.938  -2.588   4.446  0.00  0.00    +0.001 C 
ATOM      5  C   UNL     1      -3.135  -2.075   4.838  0.00  0.00    -0.003 A 
ATOM      6  C   UNL     1      -4.390  -2.717   4.445  0.00  0.00    +0.059 A 
ATOM      7  C   UNL     1      -5.572  -2.180   4.853  0.00  0.00    +0.163 A 
ATOM      8  C   UNL     1      -5.606  -1.017   5.649  0.00  0.00    +0.164 A 
ATOM      9  C   UNL     1      -4.451  -0.373   6.043  0.00  0.00    +0.073 A 
ATOM     10  C   UNL     1      -3.192  -0.857   5.667  0.00  0.00    +0.044 A 
ATOM     11  N   UNL     1      -2.087  -0.217   6.060  0.00  0.00    -0.284 N 
ATOM     12  C   UNL     1      -0.871  -0.620   5.742  0.00  0.00    +0.229 C 
ATOM     13  O   UNL     1       0.099   0.004   6.129  0.00  0.00    -0.274 OA
ATOM     14  O   UNL     1      -6.798  -0.501   6.056  0.00  0.00    -0.485 OA
ATOM     15  C   UNL     1      -7.963  -0.928   5.345  0.00  0.00    +0.270 C 
ATOM     16  C   UNL     1      -7.909  -2.455   5.204  0.00  0.00    +0.270 C 
ATOM     17  O   UNL     1      -6.727  -2.794   4.471  0.00  0.00    -0.485 OA
ATOM     18  H   UNL     1      -2.183   0.580   6.604  0.00  0.00    +0.155 HD
ENDBRANCH   2   3
BRANCH   1  19
ATOM     19  N   UNL     1       1.970  -1.594   2.309  0.00  0.00    -0.221 N 
ATOM     20  H   UNL     1       1.586  -0.969   1.674  0.00  0.00    +0.176 HD
BRANCH  19  26
ATOM     21  C   UNL     1       4.054  -0.129   0.628  0.00  0.00    +0.002 A 
ATOM     22  C   UNL     1       5.113   0.346  -0.069  0.00  0.00    +0.056 A 
ATOM     23  S   UNL     1       6.345  -0.927   0.126  0.00  0.00    -0.076 S 
ATOM     24  C   UNL     1       5.421  -2.060   1.129  0.00  0.00    +0.114 A 
ATOM     25  C   UNL     1       4.176  -1.420   1.296  0.00  0.00    +0.057 A 
ATOM     26  C   UNL     1       3.227  -2.126   2.083  0.00  0.00    +0.150 A 
ATOM     27  N   UNL     1       3.560  -3.300   2.598  0.00  0.00    -0.219 NA
ATOM     28  C   UNL     1       4.750  -3.839   2.405  0.00  0.00    +0.224 A 
ATOM     29  N   UNL     1       5.668  -3.235   1.675  0.00  0.00    -0.228 NA
BRANCH  21  33
ATOM     30  C   UNL     1       0.448   2.109   0.878  0.00  0.00    +0.000 A 
ATOM     31  C   UNL     1       1.112   1.741   2.035  0.00  0.00    +0.001 A 
ATOM     32  C   UNL     1       2.283   1.014   1.960  0.00  0.00    +0.008 A 
ATOM     33  C   UNL     1       2.796   0.651   0.715  0.00  0.00    -0.017 A 
ATOM     34  C   UNL     1       2.122   1.024  -0.447  0.00  0.00    +0.008 A 
ATOM     35  C   UNL     1       0.952   1.751  -0.359  0.00  0.00    +0.001 A 
ENDBRANCH  21  33
ENDBRANCH  19  26
ENDBRANCH   1  19
TORSDOF 4
