REMARK  Name = ZINC00648575
REMARK  11 active torsions:
REMARK  status: ('A' for Active; 'I' for Inactive)
REMARK    1  A    between atoms: C_1  and  C_2
REMARK    2  A    between atoms: C_2  and  O_3
REMARK    3  A    between atoms: O_3  and  C_4
REMARK    4  A    between atoms: C_4  and  C_6
REMARK    5  A    between atoms: C_7  and  N_34
REMARK    6  A    between atoms: C_11  and  C_13
REMARK    7  A    between atoms: C_16  and  C_18
REMARK    8  A    between atoms: C_18  and  O_19
REMARK    9  A    between atoms: O_19  and  C_20
REMARK   10  A    between atoms: C_30  and  C_32
REMARK   11  A    between atoms: C_30  and  C_33
REMARK                            x       y       z     vdW  Elec       q    Type
REMARK                         _______ _______ _______ _____ _____    ______ ____
ROOT
ATOM      1  C   UNL     1      -1.339   5.154   1.245  0.00  0.00    +0.108 C 
ATOM      2  C   UNL     1      -1.214   6.507   1.238  0.00  0.00    +0.195 C 
ATOM      3  O   UNL     1      -1.353   7.214   0.107  0.00  0.00    -0.446 OA
ATOM      4  C   UNL     1      -1.189   6.612  -1.086  0.00  0.00    +0.115 C 
ATOM      5  C   UNL     1      -1.307   5.279  -1.220  0.00  0.00    +0.048 C 
ATOM      6  C   UNL     1      -1.633   4.412  -0.028  0.00  0.00    +0.133 C 
ATOM      7  C   UNL     1      -1.129   4.649  -2.468  0.00  0.00    +0.164 C 
ATOM      8  O   UNL     1      -1.260   3.445  -2.553  0.00  0.00    -0.292 OA
ATOM      9  C   UNL     1      -0.779   5.443  -3.698  0.00  0.00    +0.086 C 
ATOM     10  C   UNL     1      -0.013   6.700  -3.275  0.00  0.00    -0.021 C 
ATOM     11  C   UNL     1      -0.875   7.482  -2.281  0.00  0.00    +0.081 C 
ATOM     12  C   UNL     1       1.305   6.299  -2.608  0.00  0.00    +0.012 C 
ATOM     13  C   UNL     1       0.275   7.565  -4.503  0.00  0.00    +0.012 C 
ENDROOT
BRANCH   6  14
ATOM     14  C   UNL     1      -0.800   3.157  -0.079  0.00  0.00    +0.118 A 
ATOM     15  C   UNL     1      -1.274   1.901  -0.158  0.00  0.00    +0.046 A 
ATOM     16  C   UNL     1      -0.152   1.040  -0.177  0.00  0.00    +0.048 A 
ATOM     17  C   UNL     1       0.940   1.823  -0.117  0.00  0.00    +0.142 A 
ATOM     18  O   UNL     1       0.542   3.104  -0.058  0.00  0.00    -0.460 OA
BRANCH  17  19
ATOM     19  C   UNL     1       2.369   1.343  -0.116  0.00  0.00    +0.303 C 
BRANCH  19  20
ATOM     20  O   UNL     1       2.845   1.261  -1.461  0.00  0.00    -0.484 OA
BRANCH  20  21
ATOM     21  C   UNL     1       4.125   0.841  -1.638  0.00  0.00    +0.121 A 
ATOM     22  C   UNL     1       4.909   0.521  -0.539  0.00  0.00    +0.047 A 
ATOM     23  C   UNL     1       6.209   0.089  -0.721  0.00  0.00    +0.019 A 
ATOM     24  C   UNL     1       6.732  -0.014  -1.998  0.00  0.00    +0.018 A 
ATOM     25  C   UNL     1       5.954   0.310  -3.095  0.00  0.00    +0.019 A 
ATOM     26  C   UNL     1       4.652   0.737  -2.917  0.00  0.00    +0.047 A 
ATOM     27 BR   UNL     1       8.514  -0.598  -2.244  0.00  0.00    -0.050 Br
ENDBRANCH  20  21
ENDBRANCH  19  20
ENDBRANCH  17  19
ENDBRANCH   6  14
BRANCH   2  28
ATOM     28  N   UNL     1      -0.940   7.162   2.409  0.00  0.00    -0.329 N 
ATOM     29  H   UNL     1      -0.345   6.761   3.061  0.00  0.00    +0.145 HD
ATOM     30  H   UNL     1      -1.342   8.027   2.586  0.00  0.00    +0.145 HD
ENDBRANCH   2  28
BRANCH   1  31
ATOM     31  C   UNL     1      -1.194   4.447   2.449  0.00  0.00    +0.341 C 
ATOM     32  O   UNL     1      -0.855   5.031   3.462  0.00  0.00    -0.245 OA
BRANCH  31  33
ATOM     33  O   UNL     1      -1.431   3.117   2.483  0.00  0.00    -0.462 OA
BRANCH  33  35
ATOM     34  C   UNL     1      -1.573   0.971   3.584  0.00  0.00    +0.048 C 
ATOM     35  C   UNL     1      -1.264   2.461   3.741  0.00  0.00    +0.229 C 
ENDBRANCH  33  35
ENDBRANCH  31  33
ENDBRANCH   1  31
TORSDOF 8
