REMARK  Name = ZINC12856072
REMARK  9 active torsions:
REMARK  status: ('A' for Active; 'I' for Inactive)
REMARK    1  A    between atoms: C_1  and  C_2
REMARK    2  A    between atoms: C_3  and  C_28
REMARK    3  A    between atoms: C_5  and  S_7
REMARK    4  A    between atoms: S_7  and  C_8
REMARK    5  A    between atoms: C_11  and  S_17
REMARK    6  A    between atoms: C_13  and  N_14
REMARK    7  A    between atoms: S_17  and  N_20
REMARK    8  A    between atoms: N_20  and  C_21
REMARK    9  A    between atoms: C_24  and  C_27
REMARK                            x       y       z     vdW  Elec       q    Type
REMARK                         _______ _______ _______ _____ _____    ______ ____
ROOT
ATOM      1  C   UNL     1      -2.509   3.036   5.288  0.00  0.00    +0.047 A 
ATOM      2  C   UNL     1      -3.472   2.797   4.315  0.00  0.00    +0.019 A 
ATOM      3  C   UNL     1      -4.801   3.055   4.584  0.00  0.00    +0.030 A 
ATOM      4  C   UNL     1      -5.173   3.561   5.817  0.00  0.00    +0.107 A 
ATOM      5  C   UNL     1      -4.217   3.804   6.785  0.00  0.00    +0.062 A 
ATOM      6  C   UNL     1      -2.886   3.544   6.525  0.00  0.00    +0.142 A 
ENDROOT
BRANCH   6   7
ATOM      7  N   UNL     1      -1.863   3.805   7.562  0.00  0.00    +0.058 N 
ATOM      8  O   UNL     1      -2.194   4.250   8.646  0.00  0.00    -0.126 OA
ATOM      9  O   UNL     1      -0.689   3.575   7.331  0.00  0.00    -0.126 OA
ENDBRANCH   6   7
BRANCH   4  10
ATOM     10  S   UNL     1      -6.870   3.895   6.154  0.00  0.00    +0.059 S 
ATOM     11  O   UNL     1      -7.628   3.071   5.279  0.00  0.00    -0.153 OA
ATOM     12  O   UNL     1      -7.021   3.849   7.566  0.00  0.00    -0.153 OA
BRANCH  10  13
ATOM     13  N   UNL     1      -7.161   5.461   5.698  0.00  0.00    -0.187 NA
ATOM     14  H   UNL     1      -7.399   6.124   6.365  0.00  0.00    +0.148 HD
BRANCH  13  15
ATOM     15  C   UNL     1      -7.058   5.844   4.288  0.00  0.00    +0.077 C 
ATOM     16  C   UNL     1      -5.663   6.408   4.013  0.00  0.00    +0.020 C 
ATOM     17  C   UNL     1      -5.426   7.636   4.894  0.00  0.00    +0.005 C 
ATOM     18  C   UNL     1      -6.478   8.701   4.578  0.00  0.00    -0.014 C 
ATOM     19  C   UNL     1      -7.874   8.138   4.853  0.00  0.00    +0.005 C 
ATOM     20  C   UNL     1      -8.110   6.909   3.972  0.00  0.00    +0.020 C 
ATOM     21  C   UNL     1      -6.242   9.930   5.459  0.00  0.00    +0.007 C 
ENDBRANCH  13  15
ENDBRANCH  10  13
ENDBRANCH   4  10
BRANCH   1  22
ATOM     22  S   UNL     1      -0.812   2.702   4.950  0.00  0.00    -0.029 S 
BRANCH  22  27
ATOM     23  C   UNL     1       1.279  -1.605   7.130  0.00  0.00    +0.069 C 
ATOM     24  C   UNL     1       0.263  -0.573   6.715  0.00  0.00    +0.080 A 
ATOM     25  C   UNL     1      -1.048  -0.598   6.996  0.00  0.00    +0.126 A 
ATOM     26  O   UNL     1      -1.597   0.507   6.445  0.00  0.00    -0.436 OA
ATOM     27  C   UNL     1      -0.617   1.187   5.829  0.00  0.00    +0.262 A 
ATOM     28  N   UNL     1       0.508   0.536   5.991  0.00  0.00    -0.208 NA
ATOM     29  C   UNL     1      -1.774  -1.659   7.782  0.00  0.00    +0.088 C 
ENDBRANCH  22  27
ENDBRANCH   1  22
TORSDOF 6
