REMARK  Name = ZINC12786420
REMARK  7 active torsions:
REMARK  status: ('A' for Active; 'I' for Inactive)
REMARK    1  A    between atoms: C_1  and  C_2
REMARK    2  A    between atoms: C_2  and  N_3
REMARK    3  A    between atoms: C_7  and  S_8
REMARK    4  A    between atoms: S_8  and  C_9
REMARK    5  A    between atoms: C_16  and  C_18
REMARK    6  A    between atoms: C_18  and  N_67
REMARK    7  A    between atoms: C_21  and  C_24
REMARK                            x       y       z     vdW  Elec       q    Type
REMARK                         _______ _______ _______ _____ _____    ______ ____
ROOT
ATOM      1  C   UNL     1       4.152   2.450   0.256  0.00  0.00    +0.116 A 
ATOM      2  C   UNL     1       5.478   2.956   0.350  0.00  0.00    +0.043 A 
ATOM      3  C   UNL     1       6.744   2.207   0.374  0.00  0.00    -0.025 A 
ATOM      4  C   UNL     1       7.873   2.927   0.469  0.00  0.00    -0.004 A 
ATOM      5  S   UNL     1       7.338   4.621   0.535  0.00  0.00    -0.073 S 
ATOM      6  C   UNL     1       5.589   4.356   0.432  0.00  0.00    +0.113 A 
ATOM      7  N   UNL     1       4.524   5.135   0.422  0.00  0.00    -0.227 NA
ATOM      8  C   UNL     1       3.317   4.608   0.333  0.00  0.00    +0.115 A 
ATOM      9  N   UNL     1       3.138   3.302   0.246  0.00  0.00    -0.227 NA
ATOM     10  C   UNL     1       9.103   2.058   0.480  0.00  0.00    +0.043 C 
ATOM     11  C   UNL     1       8.617   0.693  -0.056  0.00  0.00    +0.010 C 
ATOM     12  C   UNL     1       7.122   0.724   0.318  0.00  0.00    +0.037 C 
ENDROOT
BRANCH   1  13
ATOM     13  S   UNL     1       3.862   0.715   0.146  0.00  0.00    -0.029 S 
BRANCH  13  18
ATOM     14  N   UNL     1       1.311  -0.406  -0.045  0.00  0.00    -0.290 N 
ATOM     15  C   UNL     1       0.010   0.006  -0.087  0.00  0.00    +0.220 A 
ATOM     16  N   UNL     1      -0.003   1.315  -0.016  0.00  0.00    -0.112 NA
ATOM     17  N   UNL     1       1.323   1.757   0.075  0.00  0.00    -0.120 NA
ATOM     18  C   UNL     1       2.103   0.703   0.056  0.00  0.00    +0.199 A 
ATOM     19  N   UNL     1      -1.104  -0.817  -0.189  0.00  0.00    -0.295 N 
ATOM     20  C   UNL     1      -1.870  -0.517  -1.407  0.00  0.00    +0.136 C 
ATOM     21  C   UNL     1      -3.053  -1.484  -1.510  0.00  0.00    +0.179 C 
ATOM     22  O   UNL     1      -3.852  -1.380  -0.329  0.00  0.00    -0.377 OA
ATOM     23  C   UNL     1      -3.137  -1.666   0.877  0.00  0.00    +0.179 C 
ATOM     24  C   UNL     1      -1.955  -0.701   1.004  0.00  0.00    +0.136 C 
BRANCH  14  26
ATOM     25  C   UNL     1       2.020  -2.195  -1.554  0.00  0.00    +0.027 C 
ATOM     26  C   UNL     1       1.776  -1.794  -0.098  0.00  0.00    +0.124 C 
ENDBRANCH  14  26
ENDBRANCH  13  18
ENDBRANCH   1  13
BRANCH   8  27
ATOM     27  C   UNL     1       2.116   5.518   0.323  0.00  0.00    -0.001 C 
BRANCH  27  34
ATOM     28  C   UNL     1       1.823   4.714  -1.942  0.00  0.00    -0.078 C 
ATOM     29  C   UNL     1       1.628   5.158  -3.394  0.00  0.00    -0.016 C 
ATOM     30  C   UNL     1       0.287   5.885  -3.525  0.00  0.00    -0.018 C 
ATOM     31  C   UNL     1       0.265   7.076  -2.563  0.00  0.00    -0.016 C 
ATOM     32  C   UNL     1       0.499   6.577  -1.135  0.00  0.00    -0.078 C 
ATOM     33  C   UNL     1       0.114   6.385  -4.961  0.00  0.00    +0.007 C 
ATOM     34  N   UNL     1       1.816   5.909  -1.071  0.00  0.00    +0.384 N 
ATOM     35  H   UNL     1       2.538   6.562  -1.396  0.00  0.00    -0.081 HD
ENDBRANCH  27  34
ENDBRANCH   8  27
TORSDOF 5
