REMARK  Name = ZINC34835403
REMARK  13 active torsions:
REMARK  status: ('A' for Active; 'I' for Inactive)
REMARK    1  A    between atoms: C_1  and  C_2
REMARK    2  A    between atoms: C_2  and  C_3
REMARK    3  A    between atoms: C_3  and  N_4
REMARK    4  A    between atoms: N_4  and  C_5
REMARK    5  A    between atoms: C_5  and  C_6
REMARK    6  A    between atoms: C_7  and  C_27
REMARK    7  A    between atoms: N_9  and  C_20
REMARK    8  A    between atoms: C_10  and  N_11
REMARK    9  A    between atoms: N_14  and  C_17
REMARK   10  A    between atoms: C_17  and  C_18
REMARK   11  A    between atoms: C_17  and  C_19
REMARK   12  A    between atoms: C_27  and  C_28
REMARK   13  A    between atoms: C_29  and  C_31
REMARK                            x       y       z     vdW  Elec       q    Type
REMARK                         _______ _______ _______ _____ _____    ______ ____
ROOT
ATOM      1  C   UNL     1      -0.157  -3.684  -2.598  0.00  0.00    +0.033 A 
ATOM      2  C   UNL     1      -0.175  -2.945  -3.785  0.00  0.00    +0.070 A 
ATOM      3  N   UNL     1       1.010  -3.016  -4.335  0.00  0.00    -0.169 NA
ATOM      4  N   UNL     1       1.831  -3.804  -3.518  0.00  0.00    -0.218 N 
ATOM      5  C   UNL     1       1.093  -4.203  -2.447  0.00  0.00    +0.130 A 
ENDROOT
BRANCH   5   6
ATOM      6  N   UNL     1       1.533  -4.998  -1.393  0.00  0.00    -0.318 N 
ATOM      7  C   UNL     1       1.708  -6.448  -1.562  0.00  0.00    +0.088 C 
ATOM      8  C   UNL     1       3.103  -6.831  -1.055  0.00  0.00    -0.059 C 
ATOM      9  N   UNL     1       3.268  -6.357   0.325  0.00  0.00    +0.383 N 
ATOM     10  C   UNL     1       3.225  -4.890   0.358  0.00  0.00    -0.059 C 
ATOM     11  C   UNL     1       1.842  -4.410  -0.081  0.00  0.00    +0.088 C 
ATOM     12  H   UNL     1       2.525  -6.728   0.898  0.00  0.00    -0.081 HD
BRANCH   9  13
ATOM     13  C   UNL     1       4.561  -6.819   0.847  0.00  0.00    -0.075 C 
ATOM     14  C   UNL     1       4.736  -6.326   2.285  0.00  0.00    -0.014 C 
ATOM     15  C   UNL     1       4.604  -8.348   0.824  0.00  0.00    -0.014 C 
ENDBRANCH   9  13
ENDBRANCH   5   6
BRANCH   4  16
ATOM     16  C   UNL     1       3.176  -4.121  -3.759  0.00  0.00    +0.068 A 
ATOM     17  C   UNL     1       4.092  -4.101  -2.716  0.00  0.00    +0.030 A 
ATOM     18  C   UNL     1       5.416  -4.414  -2.955  0.00  0.00    +0.040 A 
ATOM     19  C   UNL     1       5.830  -4.746  -4.234  0.00  0.00    +0.124 A 
ATOM     20  C   UNL     1       4.918  -4.766  -5.276  0.00  0.00    +0.040 A 
ATOM     21  C   UNL     1       3.592  -4.460  -5.039  0.00  0.00    +0.030 A 
ATOM     22  F   UNL     1       7.126  -5.051  -4.465  0.00  0.00    -0.205 F 
ENDBRANCH   4  16
BRANCH   2  23
ATOM     23  C   UNL     1      -1.359  -2.195  -4.337  0.00  0.00    +0.054 C 
ATOM     24  C   UNL     1      -1.295  -0.735  -3.885  0.00  0.00    +0.010 C 
ENDBRANCH   2  23
BRANCH   1  25
ATOM     25  C   UNL     1      -1.314  -3.868  -1.650  0.00  0.00    +0.148 C 
BRANCH  25  26
ATOM     26  N   UNL     1      -1.936  -5.173  -1.886  0.00  0.00    -0.297 N 
ATOM     27  C   UNL     1      -2.935  -5.291  -2.783  0.00  0.00    +0.219 C 
ATOM     28  O   UNL     1      -3.261  -4.337  -3.457  0.00  0.00    -0.275 OA
BRANCH  27  29
ATOM     29  C   UNL     1      -3.647  -6.609  -2.949  0.00  0.00    +0.075 C 
ATOM     30  C   UNL     1      -2.811  -7.533  -3.837  0.00  0.00    +0.013 C 
ATOM     31  C   UNL     1      -3.534  -8.870  -4.005  0.00  0.00    +0.001 C 
ATOM     32  C   UNL     1      -4.899  -8.635  -4.656  0.00  0.00    +0.000 C 
ATOM     33  C   UNL     1      -5.735  -7.711  -3.767  0.00  0.00    +0.001 C 
ATOM     34  C   UNL     1      -5.012  -6.373  -3.599  0.00  0.00    +0.013 C 
ENDBRANCH  27  29
BRANCH  26  35
ATOM     35  C   UNL     1      -1.472  -6.350  -1.147  0.00  0.00    +0.108 C 
BRANCH  35  37
ATOM     36  C   UNL     1      -1.788  -7.715   0.922  0.00  0.00    +0.005 C 
ATOM     37  C   UNL     1      -2.272  -6.486   0.150  0.00  0.00    +0.016 C 
ENDBRANCH  35  37
ENDBRANCH  26  35
ENDBRANCH  25  26
ENDBRANCH   1  25
TORSDOF 9
