REMARK  Name = ZINC21472655
REMARK  13 active torsions:
REMARK  status: ('A' for Active; 'I' for Inactive)
REMARK    1  A    between atoms: C_1  and  C_2
REMARK    2  A    between atoms: C_2  and  C_3
REMARK    3  A    between atoms: C_3  and  N_4
REMARK    4  A    between atoms: N_4  and  C_5
REMARK    5  A    between atoms: N_4  and  C_16
REMARK    6  A    between atoms: C_5  and  C_6
REMARK    7  A    between atoms: C_9  and  C_11
REMARK    8  A    between atoms: C_16  and  C_17
REMARK    9  A    between atoms: N_19  and  C_20
REMARK   10  A    between atoms: C_21  and  C_31
REMARK   11  A    between atoms: C_26  and  C_30
REMARK   12  A    between atoms: C_31  and  O_33
REMARK   13  A    between atoms: O_33  and  C_34
REMARK                            x       y       z     vdW  Elec       q    Type
REMARK                         _______ _______ _______ _____ _____    ______ ____
ROOT
ATOM      1  C   UNL     1       1.337   2.120  -0.711  0.00  0.00    +0.201 C 
ATOM      2  O   UNL     1       2.404   1.557  -0.584  0.00  0.00    -0.278 OA
ATOM      3  N   UNL     1       0.246   1.420  -1.078  0.00  0.00    -0.281 N 
ATOM      4  H   UNL     1      -0.722   1.931  -1.193  0.00  0.00    +0.155 HD
ENDROOT
BRANCH   3   5
ATOM      5  C   UNL     1       0.342   0.057  -1.310  0.00  0.00    +0.086 A 
ATOM      6  C   UNL     1      -0.661  -0.827  -1.687  0.00  0.00    +0.091 A 
ATOM      7  C   UNL     1      -0.292  -2.221  -1.872  0.00  0.00    -0.021 A 
ATOM      8  C   UNL     1       1.008  -2.507  -1.643  0.00  0.00    -0.004 A 
ATOM      9  S   UNL     1       1.741  -0.959  -1.195  0.00  0.00    -0.077 S 
ATOM     10  C   UNL     1       1.670  -3.846  -1.750  0.00  0.00    +0.046 C 
ATOM     11  C   UNL     1       0.736  -4.787  -2.524  0.00  0.00    -0.009 C 
ATOM     12  C   UNL     1      -0.674  -4.673  -1.939  0.00  0.00    +0.008 C 
ATOM     13  C   UNL     1      -1.274  -3.309  -2.288  0.00  0.00    +0.037 C 
ATOM     14  C   UNL     1       1.232  -6.228  -2.388  0.00  0.00    +0.008 C 
BRANCH   6  15
ATOM     15  C   UNL     1      -2.037  -0.372  -1.893  0.00  0.00    +0.342 C 
ATOM     16  O   UNL     1      -2.395   0.006  -2.993  0.00  0.00    -0.245 OA
BRANCH  15  17
ATOM     17  O   UNL     1      -2.908  -0.371  -0.863  0.00  0.00    -0.464 OA
ATOM     18  C   UNL     1      -4.256   0.094  -1.141  0.00  0.00    +0.280 C 
ENDBRANCH  15  17
ENDBRANCH   6  15
ENDBRANCH   3   5
BRANCH   1  19
ATOM     19  C   UNL     1       1.233   3.602  -0.457  0.00  0.00    +0.020 C 
BRANCH  19  20
ATOM     20  N   UNL     1       2.550   4.127  -0.074  0.00  0.00    +0.391 N 
ATOM     21  H   UNL     1       3.277   3.804  -0.834  0.00  0.00    -0.080 HD
BRANCH  20  22
ATOM     22  C   UNL     1       2.978   3.581   1.221  0.00  0.00    -0.078 C 
BRANCH  22  24
ATOM     23  C   UNL     1       2.406   3.396   3.646  0.00  0.00    +0.002 C 
ATOM     24  C   UNL     1       1.963   3.969   2.299  0.00  0.00    -0.022 C 
ENDBRANCH  22  24
ENDBRANCH  20  22
BRANCH  20  25
ATOM     25  C   UNL     1       2.544   5.596  -0.049  0.00  0.00    +0.021 C 
BRANCH  25  26
ATOM     26  C   UNL     1       3.963   6.104  -0.035  0.00  0.00    +0.202 A 
ATOM     27  N   UNL     1       4.697   6.365  -1.079  0.00  0.00    -0.114 NA
ATOM     28  N   UNL     1       5.853   6.784  -0.700  0.00  0.00    -0.107 NA
ATOM     29  C   UNL     1       5.900   6.794   0.614  0.00  0.00    +0.255 A 
ATOM     30  O   UNL     1       4.702   6.363   1.060  0.00  0.00    -0.422 OA
BRANCH  29  31
ATOM     31  C   UNL     1       7.045   7.200   1.444  0.00  0.00    +0.076 A 
ATOM     32  C   UNL     1       8.293   7.643   1.049  0.00  0.00    +0.021 A 
ATOM     33  C   UNL     1       9.209   7.972   2.021  0.00  0.00    +0.008 A 
ATOM     34  C   UNL     1       8.865   7.843   3.329  0.00  0.00    +0.046 A 
ATOM     35  S   UNL     1       7.187   7.243   3.223  0.00  0.00    -0.092 S 
ENDBRANCH  29  31
ENDBRANCH  25  26
ENDBRANCH  20  25
ENDBRANCH  19  20
ENDBRANCH   1  19
TORSDOF 10
