REMARK  Name = ZINC35528737
REMARK  9 active torsions:
REMARK  status: ('A' for Active; 'I' for Inactive)
REMARK    1  A    between atoms: C_1  and  C_2
REMARK    2  A    between atoms: C_2  and  C_3
REMARK    3  A    between atoms: C_3  and  C_4
REMARK    4  A    between atoms: C_4  and  N_5
REMARK    5  A    between atoms: C_17  and  C_18
REMARK    6  A    between atoms: C_18  and  C_19
REMARK    7  A    between atoms: C_19  and  C_20
REMARK    8  A    between atoms: N_22  and  C_23
REMARK    9  A    between atoms: C_23  and  C_24
REMARK                            x       y       z     vdW  Elec       q    Type
REMARK                         _______ _______ _______ _____ _____    ______ ____
ROOT
ATOM      1  N   UNL     1       1.471  -2.526   2.420  0.00  0.00    -0.276 N 
ATOM      2  C   UNL     1       2.807  -2.728   2.376  0.00  0.00    +0.270 A 
ATOM      3  O   UNL     1       3.428  -2.508   1.351  0.00  0.00    -0.266 OA
ATOM      4  C   UNL     1       3.473  -3.193   3.518  0.00  0.00    +0.101 A 
ATOM      5  C   UNL     1       2.795  -3.455   4.710  0.00  0.00    +0.071 A 
ATOM      6  C   UNL     1       3.621  -3.909   5.735  0.00  0.00    +0.034 A 
ATOM      7  C   UNL     1       4.945  -4.054   5.514  0.00  0.00    +0.048 A 
ATOM      8  S   UNL     1       5.155  -3.588   3.913  0.00  0.00    -0.090 S 
ATOM      9  N   UNL     1       1.411  -3.230   4.704  0.00  0.00    -0.264 N 
ATOM     10  C   UNL     1       0.777  -2.773   3.589  0.00  0.00    +0.239 A 
ATOM     11  N   UNL     1      -0.496  -2.658   3.897  0.00  0.00    -0.110 NA
ATOM     12  N   UNL     1      -0.682  -3.006   5.121  0.00  0.00    -0.132 NA
ATOM     13  C   UNL     1       0.449  -3.373   5.659  0.00  0.00    +0.140 A 
ENDROOT
BRANCH   1  14
ATOM     14  C   UNL     1       0.763  -2.041   1.233  0.00  0.00    +0.128 C 
BRANCH  14  15
ATOM     15  C   UNL     1       0.742  -0.511   1.242  0.00  0.00    +0.021 C 
BRANCH  15  17
ATOM     16  C   UNL     1      -0.019   1.526   0.010  0.00  0.00    +0.004 C 
ATOM     17  C   UNL     1       0.002  -0.004   0.002  0.00  0.00    -0.002 C 
ENDBRANCH  15  17
ENDBRANCH  14  15
ENDBRANCH   1  14
BRANCH  13  18
ATOM     18  C   UNL     1       0.656  -3.849   7.074  0.00  0.00    +0.086 C 
BRANCH  18  19
ATOM     19  C   UNL     1       0.945  -2.649   7.979  0.00  0.00    +0.103 C 
BRANCH  19  20
ATOM     20  C   UNL     1       1.151  -3.124   9.394  0.00  0.00    +0.214 C 
ATOM     21  O   UNL     1       1.075  -4.307   9.653  0.00  0.00    -0.276 OA
ATOM     22  N   UNL     1       1.421  -2.236  10.370  0.00  0.00    -0.311 N 
ATOM     23  H   UNL     1       1.483  -1.291  10.163  0.00  0.00    +0.149 HD
BRANCH  22  24
ATOM     24  C   UNL     1       1.622  -2.698  11.746  0.00  0.00    +0.139 C 
BRANCH  24  25
ATOM     25  C   UNL     1       1.907  -1.517  12.637  0.00  0.00    -0.027 A 
ATOM     26  C   UNL     1       3.210  -1.095  12.827  0.00  0.00    +0.009 A 
ATOM     27  C   UNL     1       3.477  -0.011  13.643  0.00  0.00    +0.050 A 
ATOM     28  C   UNL     1       2.438   0.655  14.272  0.00  0.00    +0.166 A 
ATOM     29  C   UNL     1       1.125   0.231  14.080  0.00  0.00    +0.167 A 
ATOM     30  C   UNL     1       0.865  -0.853  13.257  0.00  0.00    +0.054 A 
ATOM     31  O   UNL     1       0.295   1.041  14.799  0.00  0.00    -0.453 OA
ATOM     32  C   UNL     1       1.141   1.708  15.754  0.00  0.00    +0.466 C 
ATOM     33  O   UNL     1       2.429   1.732  15.111  0.00  0.00    -0.453 OA
ENDBRANCH  24  25
ENDBRANCH  22  24
ENDBRANCH  19  20
ENDBRANCH  18  19
ENDBRANCH  13  18
TORSDOF 8
