REMARK  Name = ZINC21147007
REMARK  4 active torsions:
REMARK  status: ('A' for Active; 'I' for Inactive)
REMARK    1  A    between atoms: C_1  and  C_2
REMARK    2  A    between atoms: C_6  and  C_7
REMARK    3  A    between atoms: C_12  and  C_16
REMARK    4  A    between atoms: C_12  and  C_17
REMARK                            x       y       z     vdW  Elec       q    Type
REMARK                         _______ _______ _______ _____ _____    ______ ____
ROOT
ATOM      1  C   UNL     1       1.910  -0.322  -1.737  0.00  0.00    +0.144 C 
ATOM      2  C   UNL     1       0.824  -1.194  -1.138  0.00  0.00    +0.037 C 
ATOM      3  C   UNL     1      -0.148  -0.888  -0.269  0.00  0.00    +0.019 C 
ATOM      4  C   UNL     1      -1.083  -1.963   0.263  0.00  0.00    +0.058 C 
ATOM      5  C   UNL     1      -1.367  -2.988  -0.833  0.00  0.00    -0.023 C 
ATOM      6  C   UNL     1      -0.025  -3.619  -1.223  0.00  0.00    +0.086 C 
ATOM      7  C   UNL     1       0.926  -2.532  -1.612  0.00  0.00    +0.163 C 
ATOM      8  O   UNL     1       1.833  -2.806  -2.374  0.00  0.00    -0.292 OA
ATOM      9  C   UNL     1      -1.989  -2.295  -2.047  0.00  0.00    +0.011 C 
ATOM     10  C   UNL     1      -2.316  -4.067  -0.307  0.00  0.00    +0.011 C 
ATOM     11  N   UNL     1      -0.403   0.355   0.231  0.00  0.00    -0.297 N 
ATOM     12  C   UNL     1       0.604   1.209   0.663  0.00  0.00    +0.208 A 
ATOM     13  C   UNL     1       1.650   1.622  -0.262  0.00  0.00    +0.205 A 
ATOM     14  N   UNL     1       2.418   2.478   0.337  0.00  0.00    -0.032 NA
ATOM     15  O   UNL     1       1.948   2.610   1.671  0.00  0.00    -0.239 OA
ATOM     16  N   UNL     1       0.811   1.768   1.811  0.00  0.00    -0.032 NA
ATOM     17  N   UNL     1       1.731   1.107  -1.553  0.00  0.00    -0.312 N 
ATOM     18  H   UNL     1      -1.439   0.718   0.303  0.00  0.00    +0.153 HD
ATOM     19  H   UNL     1       1.662   1.770  -2.428  0.00  0.00    +0.149 HD
ENDROOT
BRANCH   1  25
ATOM     20  C   UNL     1       4.381  -1.386  -3.221  0.00  0.00    +0.044 C 
ATOM     21  C   UNL     1       4.345  -1.190  -1.727  0.00  0.00    -0.038 A 
ATOM     22  C   UNL     1       5.452  -1.487  -0.954  0.00  0.00    +0.011 A 
ATOM     23  C   UNL     1       5.384  -1.307   0.388  0.00  0.00    +0.046 A 
ATOM     24  S   UNL     1       3.720  -0.692   0.594  0.00  0.00    -0.099 S 
ATOM     25  C   UNL     1       3.228  -0.718  -1.122  0.00  0.00    +0.017 A 
ENDBRANCH   1  25
TORSDOF 1
