REMARK  Name = ZINC08933110
REMARK  9 active torsions:
REMARK  status: ('A' for Active; 'I' for Inactive)
REMARK    1  A    between atoms: C_1  and  N_68
REMARK    2  A    between atoms: C_2  and  C_3
REMARK    3  A    between atoms: C_2  and  N_68
REMARK    4  A    between atoms: C_3  and  N_4
REMARK    5  A    between atoms: C_5  and  C_7
REMARK    6  A    between atoms: C_7  and  N_8
REMARK    7  A    between atoms: N_21  and  C_22
REMARK    8  A    between atoms: C_22  and  C_23
REMARK    9  A    between atoms: C_29  and  N_68
REMARK                            x       y       z     vdW  Elec       q    Type
REMARK                         _______ _______ _______ _____ _____    ______ ____
ROOT
ATOM      1  N   UNL     1      -1.619   7.713   0.060  0.00  0.00    -0.219 N 
ATOM      2  C   UNL     1      -2.388   6.606   0.061  0.00  0.00    +0.292 A 
ATOM      3  O   UNL     1      -3.605   6.702   0.074  0.00  0.00    -0.264 OA
ATOM      4  C   UNL     1      -1.771   5.333   0.048  0.00  0.00    +0.119 A 
ATOM      5  C   UNL     1      -0.378   5.268   0.034  0.00  0.00    +0.033 A 
ATOM      6  C   UNL     1       0.376   6.460   0.033  0.00  0.00    +0.143 A 
ATOM      7  N   UNL     1      -0.224   7.618   0.045  0.00  0.00    -0.175 NA
ATOM      8  C   UNL     1      -0.026   3.841   0.022  0.00  0.00    +0.009 A 
ATOM      9  C   UNL     1       1.183   3.146   0.007  0.00  0.00    +0.010 A 
ATOM     10  C   UNL     1       1.183   1.780   0.000  0.00  0.00    +0.001 A 
ATOM     11  C   UNL     1      -0.013   1.076   0.008  0.00  0.00    +0.002 A 
ATOM     12  C   UNL     1      -1.218   1.742   0.017  0.00  0.00    +0.026 A 
ATOM     13  C   UNL     1      -1.241   3.135   0.031  0.00  0.00    +0.051 A 
ATOM     14  N   UNL     1      -2.272   4.050   0.046  0.00  0.00    -0.331 N 
ENDROOT
BRANCH   1  15
ATOM     15  C   UNL     1      -2.252   9.034   0.073  0.00  0.00    +0.243 C 
BRANCH  15  17
ATOM     16  N   UNL     1      -3.027  10.672   1.756  0.00  0.00    -0.316 N 
ATOM     17  C   UNL     1      -2.456   9.479   1.498  0.00  0.00    +0.235 C 
ATOM     18  O   UNL     1      -2.106   8.764   2.413  0.00  0.00    -0.274 OA
ATOM     19  H   UNL     1      -3.307  11.245   1.025  0.00  0.00    +0.149 HD
BRANCH  16  20
ATOM     20  C   UNL     1      -3.225  11.105   3.142  0.00  0.00    +0.086 C 
BRANCH  20  21
ATOM     21  C   UNL     1      -3.887  12.485   3.156  0.00  0.00    -0.060 C 
BRANCH  21  23
ATOM     22  C   UNL     1      -5.057  12.057   5.232  0.00  0.00    -0.096 C 
ATOM     23  N   UNL     1      -4.060  12.916   4.559  0.00  0.00    +0.381 N 
ATOM     24  H   UNL     1      -3.161  12.830   5.048  0.00  0.00    -0.082 HD
BRANCH  23  25
ATOM     25  C   UNL     1      -4.497  14.328   4.603  0.00  0.00    -0.069 C 
ATOM     26  C   UNL     1      -3.415  15.201   3.966  0.00  0.00    -0.015 C 
ATOM     27  C   UNL     1      -3.843  16.669   4.026  0.00  0.00    -0.002 C 
ATOM     28  C   UNL     1      -4.040  17.083   5.486  0.00  0.00    -0.000 C 
ATOM     29  C   UNL     1      -5.122  16.209   6.123  0.00  0.00    -0.002 C 
ATOM     30  C   UNL     1      -4.693  14.742   6.062  0.00  0.00    -0.015 C 
ENDBRANCH  23  25
ENDBRANCH  21  23
ENDBRANCH  20  21
ENDBRANCH  16  20
ENDBRANCH  15  17
ENDBRANCH   1  15
BRANCH  14  31
ATOM     31  C   UNL     1      -3.696   3.707   0.057  0.00  0.00    +0.157 C 
BRANCH  31  32
ATOM     32  C   UNL     1      -4.198   3.597  -1.359  0.00  0.00    -0.028 A 
ATOM     33  C   UNL     1      -4.713   4.709  -1.999  0.00  0.00    +0.005 A 
ATOM     34  C   UNL     1      -5.169   4.609  -3.300  0.00  0.00    +0.000 A 
ATOM     35  C   UNL     1      -5.119   3.394  -3.958  0.00  0.00    +0.000 A 
ATOM     36  C   UNL     1      -4.609   2.281  -3.317  0.00  0.00    +0.000 A 
ATOM     37  C   UNL     1      -4.148   2.382  -2.018  0.00  0.00    +0.005 A 
ENDBRANCH  31  32
ENDBRANCH  14  31
TORSDOF 8
