REMARK  Name = ZINC16003215
REMARK  5 active torsions:
REMARK  status: ('A' for Active; 'I' for Inactive)
REMARK    1  A    between atoms: C_4  and  C_7
REMARK    2  A    between atoms: C_7  and  N_8
REMARK    3  A    between atoms: C_17  and  C_19
REMARK    4  A    between atoms: C_25  and  C_27
REMARK    5  A    between atoms: C_28  and  C_29
REMARK                            x       y       z     vdW  Elec       q    Type
REMARK                         _______ _______ _______ _____ _____    ______ ____
ROOT
ATOM      1  N   UNL     1       4.164  -0.918   1.347  0.00  0.00    +0.386 N 
ATOM      2  C   UNL     1       5.501  -1.526   1.331  0.00  0.00    -0.072 C 
ATOM      3  C   UNL     1       6.112  -1.511   2.736  0.00  0.00    +0.038 C 
ATOM      4  C   UNL     1       5.106  -2.141   3.690  0.00  0.00    +0.050 A 
ATOM      5  C   UNL     1       3.807  -2.264   3.305  0.00  0.00    -0.002 A 
ATOM      6  S   UNL     1       3.061  -3.034   4.712  0.00  0.00    -0.059 S 
ATOM      7  C   UNL     1       4.447  -3.135   5.667  0.00  0.00    +0.165 A 
ATOM      8  N   UNL     1       5.377  -2.602   4.904  0.00  0.00    -0.229 NA
ATOM      9  N   UNL     1       4.575  -3.656   6.949  0.00  0.00    -0.264 N 
ATOM     10  C   UNL     1       5.776  -3.651   7.561  0.00  0.00    +0.222 C 
ATOM     11  O   UNL     1       6.744  -3.193   6.993  0.00  0.00    -0.275 OA
ATOM     12  C   UNL     1       3.214  -1.833   2.008  0.00  0.00    -0.033 C 
ATOM     13  H   UNL     1       3.800  -4.022   7.404  0.00  0.00    +0.157 HD
ATOM     14  H   UNL     1       4.198  -0.046   1.852  0.00  0.00    -0.081 HD
ENDROOT
BRANCH  10  15
ATOM     15  C   UNL     1       5.915  -4.215   8.952  0.00  0.00    +0.078 C 
ATOM     16  C   UNL     1       5.007  -3.441   9.910  0.00  0.00    +0.032 C 
ATOM     17  C   UNL     1       5.125  -4.039  11.315  0.00  0.00    +0.109 C 
ATOM     18  N   UNL     1       6.542  -4.054  11.705  0.00  0.00    -0.298 N 
ATOM     19  C   UNL     1       7.515  -4.694  10.810  0.00  0.00    +0.109 C 
ATOM     20  C   UNL     1       7.370  -4.088   9.410  0.00  0.00    +0.032 C 
ATOM     21  C   UNL     1       6.941  -3.490  12.863  0.00  0.00    +0.239 C 
ATOM     22  O   UNL     1       8.100  -3.589  13.220  0.00  0.00    -0.271 OA
BRANCH  21  23
ATOM     23  C   UNL     1       5.980  -2.758  13.690  0.00  0.00    +0.068 C 
ATOM     24  C   UNL     1       6.400  -2.105  14.793  0.00  0.00    +0.013 C 
BRANCH  24  25
ATOM     25  C   UNL     1       5.434  -1.369  15.625  0.00  0.00    -0.025 A 
ATOM     26  C   UNL     1       4.080  -1.349  15.278  0.00  0.00    +0.008 A 
ATOM     27  C   UNL     1       3.181  -0.657  16.062  0.00  0.00    +0.001 A 
ATOM     28  C   UNL     1       3.616   0.016  17.190  0.00  0.00    +0.000 A 
ATOM     29  C   UNL     1       4.955   0.001  17.540  0.00  0.00    +0.001 A 
ATOM     30  C   UNL     1       5.865  -0.691  16.769  0.00  0.00    +0.008 A 
ENDBRANCH  24  25
ENDBRANCH  21  23
ENDBRANCH  10  15
BRANCH   1  31
ATOM     31  C   UNL     1       3.724  -0.668  -0.032  0.00  0.00    -0.043 C 
BRANCH  31  35
ATOM     32  C   UNL     1      -0.003   1.418   0.018  0.00  0.00    +0.000 A 
ATOM     33  C   UNL     1       1.184   2.125   0.013  0.00  0.00    +0.000 A 
ATOM     34  C   UNL     1       2.391   1.450  -0.003  0.00  0.00    +0.002 A 
ATOM     35  C   UNL     1       2.409   0.068  -0.014  0.00  0.00    -0.064 A 
ATOM     36  C   UNL     1       1.221  -0.639  -0.009  0.00  0.00    +0.002 A 
ATOM     37  C   UNL     1       0.015   0.036   0.006  0.00  0.00    +0.000 A 
ENDBRANCH  31  35
ENDBRANCH   1  31
TORSDOF 5
