REMARK  Name = ZINC39866479
REMARK  6 active torsions:
REMARK  status: ('A' for Active; 'I' for Inactive)
REMARK    1  A    between atoms: C_1  and  C_2
REMARK    2  A    between atoms: C_5  and  N_7
REMARK    3  A    between atoms: N_9  and  C_23
REMARK    4  A    between atoms: C_13  and  C_14
REMARK    5  A    between atoms: C_13  and  C_15
REMARK    6  A    between atoms: C_18  and  O_21
REMARK                            x       y       z     vdW  Elec       q    Type
REMARK                         _______ _______ _______ _____ _____    ______ ____
ROOT
ATOM      1  N   UNL     1      -1.024  -3.973   0.527  0.00  0.00    -0.198 NA
ATOM      2  C   UNL     1      -0.566  -4.906  -0.282  0.00  0.00    +0.175 C 
ATOM      3  N   UNL     1      -0.048  -4.761  -1.552  0.00  0.00    -0.214 N 
ATOM      4  C   UNL     1       0.371  -5.814  -2.232  0.00  0.00    +0.264 C 
ATOM      5  O   UNL     1       0.832  -5.704  -3.354  0.00  0.00    -0.269 OA
ATOM      6  C   UNL     1       0.257  -7.127  -1.571  0.00  0.00    +0.081 C 
ATOM      7  C   UNL     1       0.606  -8.356  -2.031  0.00  0.00    -0.024 C 
ATOM      8  C   UNL     1       1.204  -8.504  -3.406  0.00  0.00    +0.045 C 
ATOM      9  S   UNL     1      -0.456  -6.665   0.001  0.00  0.00    -0.048 S 
ENDROOT
BRANCH   1  14
ATOM     10  C   UNL     1       0.141   1.315  -0.439  0.00  0.00    +0.075 C 
ATOM     11  C   UNL     1      -0.350  -0.101  -0.284  0.00  0.00    +0.101 A 
ATOM     12  N   UNL     1      -1.447  -0.671  -0.743  0.00  0.00    -0.145 NA
ATOM     13  N   UNL     1      -1.718  -1.883  -0.523  0.00  0.00    -0.121 NA
ATOM     14  C   UNL     1      -0.905  -2.663   0.189  0.00  0.00    +0.217 A 
ATOM     15  S   UNL     1       0.393  -1.489   0.568  0.00  0.00    -0.031 S 
ENDBRANCH   1  14
BRANCH   7  16
ATOM     16  C   UNL     1       0.399  -9.541  -1.188  0.00  0.00    -0.021 A 
ATOM     17  C   UNL     1       1.107  -9.683   0.011  0.00  0.00    +0.012 A 
ATOM     18  C   UNL     1       0.908 -10.795   0.797  0.00  0.00    +0.046 A 
ATOM     19  C   UNL     1       0.007 -11.777   0.402  0.00  0.00    +0.117 A 
ATOM     20  C   UNL     1      -0.698 -11.642  -0.788  0.00  0.00    +0.046 A 
ATOM     21  C   UNL     1      -0.512 -10.531  -1.579  0.00  0.00    +0.012 A 
BRANCH  19  22
ATOM     22  O   UNL     1      -0.184 -12.873   1.181  0.00  0.00    -0.507 OA
ATOM     23  H   UNL     1      -0.886 -12.770   1.838  0.00  0.00    +0.292 HD
ENDBRANCH  19  22
ENDBRANCH   7  16
BRANCH   3  24
ATOM     24  C   UNL     1       0.034  -3.486  -2.126  0.00  0.00    +0.043 A 
ATOM     25  C   UNL     1       1.188  -2.728  -1.976  0.00  0.00    +0.024 A 
ATOM     26  C   UNL     1       1.265  -1.471  -2.543  0.00  0.00    +0.002 A 
ATOM     27  C   UNL     1       0.196  -0.967  -3.260  0.00  0.00    +0.000 A 
ATOM     28  C   UNL     1      -0.955  -1.719  -3.411  0.00  0.00    +0.002 A 
ATOM     29  C   UNL     1      -1.036  -2.979  -2.851  0.00  0.00    +0.024 A 
ENDBRANCH   3  24
TORSDOF 4
