REMARK  Name = ZINC35778414
REMARK  12 active torsions:
REMARK  status: ('A' for Active; 'I' for Inactive)
REMARK    1  A    between atoms: C_1  and  N_2
REMARK    2  A    between atoms: C_3  and  O_31
REMARK    3  A    between atoms: C_4  and  C_13
REMARK    4  A    between atoms: C_5  and  C_7
REMARK    5  A    between atoms: C_13  and  N_14
REMARK    6  A    between atoms: N_14  and  C_15
REMARK    7  A    between atoms: N_14  and  C_21
REMARK    8  A    between atoms: C_15  and  C_16
REMARK    9  A    between atoms: C_21  and  C_22
REMARK   10  A    between atoms: C_22  and  C_24
REMARK   11  A    between atoms: C_22  and  O_30
REMARK   12  A    between atoms: O_31  and  C_32
REMARK                            x       y       z     vdW  Elec       q    Type
REMARK                         _______ _______ _______ _____ _____    ______ ____
ROOT
ATOM      1  C   UNL     1       1.332   0.351  -0.462  0.00  0.00    +0.176 C 
ATOM      2  N   UNL     1       0.847  -1.031  -0.425  0.00  0.00    -0.235 N 
ATOM      3  C   UNL     1       0.569  -1.808  -1.503  0.00  0.00    +0.221 A 
ATOM      4  C   UNL     1       0.147  -3.015  -1.046  0.00  0.00    +0.025 A 
ATOM      5  C   UNL     1       0.169  -2.973   0.361  0.00  0.00    +0.098 A 
ATOM      6  N   UNL     1       0.595  -1.784   0.729  0.00  0.00    -0.168 NA
ENDROOT
BRANCH   5   7
ATOM      7  C   UNL     1      -0.217  -4.081   1.271  0.00  0.00    +0.002 A 
ATOM      8  C   UNL     1      -1.358  -4.836   1.009  0.00  0.00    +0.010 A 
ATOM      9  C   UNL     1      -1.711  -5.865   1.858  0.00  0.00    +0.001 A 
ATOM     10  C   UNL     1      -0.935  -6.146   2.968  0.00  0.00    +0.000 A 
ATOM     11  C   UNL     1       0.198  -5.399   3.234  0.00  0.00    +0.001 A 
ATOM     12  C   UNL     1       0.564  -4.372   2.388  0.00  0.00    +0.010 A 
ENDBRANCH   5   7
BRANCH   4  13
ATOM     13  C   UNL     1      -0.269  -4.189  -1.893  0.00  0.00    -0.035 C 
BRANCH  13  14
ATOM     14  N   UNL     1       0.922  -4.942  -2.307  0.00  0.00    +0.389 N 
ATOM     15  H   UNL     1       1.572  -4.319  -2.764  0.00  0.00    -0.081 HD
BRANCH  14  16
ATOM     16  C   UNL     1       0.529  -6.008  -3.238  0.00  0.00    -0.003 C 
BRANCH  16  17
ATOM     17  C   UNL     1      -0.021  -5.395  -4.500  0.00  0.00    +0.089 A 
ATOM     18  C   UNL     1       0.685  -5.106  -5.607  0.00  0.00    +0.042 A 
ATOM     19  C   UNL     1      -0.221  -4.550  -6.538  0.00  0.00    +0.041 A 
ATOM     20  C   UNL     1      -1.428  -4.532  -5.944  0.00  0.00    +0.195 A 
ATOM     21  O   UNL     1      -1.302  -5.051  -4.712  0.00  0.00    -0.470 OA
ENDBRANCH  16  17
ENDBRANCH  14  16
BRANCH  14  22
ATOM     22  C   UNL     1       1.562  -5.535  -1.125  0.00  0.00    -0.041 C 
BRANCH  22  23
ATOM     23  C   UNL     1       2.869  -6.213  -1.539  0.00  0.00    +0.128 C 
BRANCH  23  24
ATOM     24  C   UNL     1       3.463  -6.926  -0.351  0.00  0.00    -0.021 A 
ATOM     25  C   UNL     1       4.168  -6.214   0.601  0.00  0.00    +0.006 A 
ATOM     26  C   UNL     1       4.713  -6.868   1.690  0.00  0.00    +0.000 A 
ATOM     27  C   UNL     1       4.553  -8.234   1.827  0.00  0.00    +0.000 A 
ATOM     28  C   UNL     1       3.847  -8.946   0.876  0.00  0.00    +0.000 A 
ATOM     29  C   UNL     1       3.298  -8.291  -0.211  0.00  0.00    +0.006 A 
ENDBRANCH  23  24
BRANCH  23  30
ATOM     30  O   UNL     1       3.789  -5.227  -2.011  0.00  0.00    -0.389 OA
ATOM     31  H   UNL     1       4.013  -4.552  -1.356  0.00  0.00    +0.210 HD
ENDBRANCH  23  30
ENDBRANCH  22  23
ENDBRANCH  14  22
ENDBRANCH  13  14
ENDBRANCH   4  13
BRANCH   3  32
ATOM     32  O   UNL     1       0.691  -1.444  -2.805  0.00  0.00    -0.438 OA
BRANCH  32  33
ATOM     33  C   UNL     1      -0.380  -0.864  -3.408  0.00  0.00    +0.130 A 
ATOM     34  C   UNL     1      -1.510  -0.550  -2.665  0.00  0.00    +0.046 A 
ATOM     35  C   UNL     1      -2.597   0.040  -3.280  0.00  0.00    +0.004 A 
ATOM     36  C   UNL     1      -2.560   0.318  -4.634  0.00  0.00    +0.000 A 
ATOM     37  C   UNL     1      -1.436   0.006  -5.376  0.00  0.00    +0.004 A 
ATOM     38  C   UNL     1      -0.344  -0.579  -4.765  0.00  0.00    +0.046 A 
ENDBRANCH  32  33
ENDBRANCH   3  32
TORSDOF 11
