REMARK  Name = ZINC13434172
REMARK  8 active torsions:
REMARK  status: ('A' for Active; 'I' for Inactive)
REMARK    1  A    between atoms: C_1  and  C_2
REMARK    2  A    between atoms: C_2  and  N_3
REMARK    3  A    between atoms: N_3  and  C_4
REMARK    4  A    between atoms: N_3  and  S_6
REMARK    5  A    between atoms: C_4  and  C_5
REMARK    6  A    between atoms: S_6  and  C_9
REMARK    7  A    between atoms: C_13  and  C_15
REMARK    8  A    between atoms: C_19  and  C_28
REMARK                            x       y       z     vdW  Elec       q    Type
REMARK                         _______ _______ _______ _____ _____    ______ ____
ROOT
ATOM      1  C   UNL     1       2.307   0.203  -0.634  0.00  0.00    +0.106 A 
ATOM      2  C   UNL     1       2.378   1.421   0.019  0.00  0.00    +0.029 A 
ATOM      3  C   UNL     1       1.271   1.929   0.673  0.00  0.00    +0.018 A 
ATOM      4  C   UNL     1       0.085   1.222   0.679  0.00  0.00    +0.030 A 
ATOM      5  C   UNL     1       0.006  -0.009   0.022  0.00  0.00    +0.053 A 
ATOM      6  C   UNL     1       1.129  -0.514  -0.636  0.00  0.00    +0.042 A 
ATOM      7 BR   UNL     1      -1.431   1.920   1.568  0.00  0.00    -0.050 Br
ENDROOT
BRANCH   5   8
ATOM      8  C   UNL     1      -1.260  -0.771   0.024  0.00  0.00    +0.252 C 
ATOM      9  O   UNL     1      -2.322  -0.187   0.118  0.00  0.00    -0.270 OA
ATOM     10  N   UNL     1      -1.236  -2.115  -0.078  0.00  0.00    -0.260 N 
ATOM     11  C   UNL     1       0.037  -2.856  -0.102  0.00  0.00    +0.170 C 
ATOM     12  C   UNL     1      -0.138  -4.101   0.786  0.00  0.00    +0.303 C 
ATOM     13  O   UNL     1      -1.224  -4.878   0.276  0.00  0.00    -0.474 OA
ATOM     14  C   UNL     1      -2.394  -4.238   0.015  0.00  0.00    +0.143 A 
ATOM     15  C   UNL     1      -2.425  -2.858  -0.170  0.00  0.00    +0.079 A 
ATOM     16  C   UNL     1      -3.624  -2.219  -0.444  0.00  0.00    +0.027 A 
ATOM     17  C   UNL     1      -4.792  -2.954  -0.531  0.00  0.00    +0.002 A 
ATOM     18  C   UNL     1      -4.764  -4.323  -0.344  0.00  0.00    +0.004 A 
ATOM     19  C   UNL     1      -3.571  -4.966  -0.072  0.00  0.00    +0.047 A 
BRANCH  12  20
ATOM     20  C   UNL     1       1.126  -4.920   0.759  0.00  0.00    +0.397 C 
ATOM     21  O   UNL     1       1.121  -6.022   0.263  0.00  0.00    -0.242 OA
ATOM     22  O   UNL     1       2.257  -4.426   1.286  0.00  0.00    -0.242 OA
ENDBRANCH  12  20
ENDBRANCH   5   8
BRANCH   1  23
ATOM     23  S   UNL     1       3.724  -0.433  -1.465  0.00  0.00    +0.061 S 
ATOM     24  O   UNL     1       4.859   0.069  -0.774  0.00  0.00    -0.153 OA
ATOM     25  O   UNL     1       3.497  -1.824  -1.647  0.00  0.00    -0.153 OA
BRANCH  23  26
ATOM     26  N   UNL     1       3.751   0.244  -2.976  0.00  0.00    -0.177 NA
BRANCH  26  28
ATOM     27  C   UNL     1       5.873   1.220  -3.702  0.00  0.00    +0.022 C 
ATOM     28  C   UNL     1       4.457   1.508  -3.199  0.00  0.00    +0.106 C 
ENDBRANCH  26  28
BRANCH  26  29
ATOM     29  C   UNL     1       3.070  -0.421  -4.089  0.00  0.00    +0.106 C 
ATOM     30  C   UNL     1       1.666   0.165  -4.251  0.00  0.00    +0.022 C 
ENDBRANCH  26  29
ENDBRANCH  23  26
ENDBRANCH   1  23
TORSDOF 6
