REMARK  Name = ZINC40156515
REMARK  1 active torsions:
REMARK  status: ('A' for Active; 'I' for Inactive)
REMARK    1  A    between atoms: C_8  and  C_14
REMARK                            x       y       z     vdW  Elec       q    Type
REMARK                         _______ _______ _______ _____ _____    ______ ____
ROOT
ATOM      1  C   UNL     1      -0.017   1.375   0.010  0.00  0.00    +0.002 A 
ATOM      2  C   UNL     1       1.168   2.088   0.002  0.00  0.00    +0.002 A 
ATOM      3  C   UNL     1       2.377   1.416  -0.005  0.00  0.00    +0.030 A 
ATOM      4  C   UNL     1       2.399   0.037  -0.011  0.00  0.00    +0.126 A 
ATOM      5  C   UNL     1       1.216  -0.689  -0.017  0.00  0.00    +0.055 A 
ATOM      6  C   UNL     1       0.002  -0.004   0.002  0.00  0.00    +0.025 A 
ATOM      7  N   UNL     1       1.201  -2.081  -0.064  0.00  0.00    -0.322 N 
ATOM      8  C   UNL     1       2.329  -2.910   0.352  0.00  0.00    +0.191 C 
ATOM      9  N   UNL     1       3.553  -2.410  -0.307  0.00  0.00    -0.166 NA
ATOM     10  S   UNL     1       3.946  -0.818  -0.002  0.00  0.00    +0.062 S 
ATOM     11  O   UNL     1       4.445  -0.761   1.328  0.00  0.00    -0.153 OA
ATOM     12  O   UNL     1       4.685  -0.351  -1.122  0.00  0.00    -0.153 OA
ATOM     13  H   UNL     1       0.401  -2.521  -0.390  0.00  0.00    +0.148 HD
ATOM     14  H   UNL     1       4.095  -2.973  -0.882  0.00  0.00    +0.150 HD
ENDROOT
BRANCH   8  15
ATOM     15  C   UNL     1       2.489  -2.833   1.848  0.00  0.00    -0.010 A 
ATOM     16  C   UNL     1       3.743  -2.968   2.417  0.00  0.00    +0.010 A 
ATOM     17  C   UNL     1       3.891  -2.897   3.789  0.00  0.00    +0.040 A 
ATOM     18  C   UNL     1       2.785  -2.691   4.595  0.00  0.00    +0.137 A 
ATOM     19  C   UNL     1       1.529  -2.556   4.024  0.00  0.00    +0.053 A 
ATOM     20  C   UNL     1       1.384  -2.622   2.651  0.00  0.00    +0.025 A 
ATOM     21 BR   UNL     1       0.016  -2.274   5.123  0.00  0.00    -0.047 Br
ATOM     22  F   UNL     1       2.929  -2.622   5.936  0.00  0.00    -0.204 F 
ENDBRANCH   8  15
TORSDOF 1
