REMARK  Name = ZINC52469320
REMARK  5 active torsions:
REMARK  status: ('A' for Active; 'I' for Inactive)
REMARK    1  A    between atoms: C_3  and  C_24
REMARK    2  A    between atoms: C_5  and  N_7
REMARK    3  A    between atoms: N_10  and  C_11
REMARK    4  A    between atoms: C_11  and  C_12
REMARK    5  A    between atoms: C_12  and  C_13
REMARK                            x       y       z     vdW  Elec       q    Type
REMARK                         _______ _______ _______ _____ _____    ______ ____
ROOT
ATOM      1  N   UNL     1       1.226  -2.087  -0.021  0.00  0.00    -0.269 N 
ATOM      2  C   UNL     1       0.071  -2.772   0.088  0.00  0.00    +0.304 C 
ATOM      3  O   UNL     1      -0.990  -2.178   0.102  0.00  0.00    -0.253 OA
ATOM      4  N   UNL     1       0.091  -4.117   0.182  0.00  0.00    -0.299 N 
ATOM      5  H   UNL     1       2.066  -2.563  -0.110  0.00  0.00    +0.156 HD
ATOM      6  H   UNL     1       0.938  -4.591   0.171  0.00  0.00    +0.150 HD
ENDROOT
BRANCH   1  11
ATOM      7  C   UNL     1       2.134   1.406  -0.746  0.00  0.00    +0.002 A 
ATOM      8  C   UNL     1       1.203   2.089   0.011  0.00  0.00    +0.012 A 
ATOM      9  C   UNL     1       0.266   1.384   0.769  0.00  0.00    +0.021 A 
ATOM     10  C   UNL     1       0.275  -0.011   0.757  0.00  0.00    +0.035 A 
ATOM     11  C   UNL     1       1.213  -0.687  -0.006  0.00  0.00    +0.035 A 
ATOM     12  C   UNL     1       2.142   0.024  -0.757  0.00  0.00    +0.023 A 
BRANCH   9  13
ATOM     13  C   UNL     1      -0.731   2.113   1.581  0.00  0.00    +0.153 A 
ATOM     14  C   UNL     1      -0.861   3.460   1.685  0.00  0.00    +0.132 A 
ATOM     15  N   UNL     1      -1.883   3.704   2.518  0.00  0.00    -0.335 N 
ATOM     16  C   UNL     1      -2.378   2.568   2.923  0.00  0.00    +0.284 A 
ATOM     17  O   UNL     1      -1.692   1.566   2.358  0.00  0.00    -0.444 OA
ATOM     18  H   UNL     1      -2.203   4.582   2.777  0.00  0.00    +0.168 HD
ENDBRANCH   9  13
ENDBRANCH   1  11
BRANCH   4  19
ATOM     19  C   UNL     1      -1.164  -4.862   0.300  0.00  0.00    +0.110 C 
BRANCH  19  20
ATOM     20  C   UNL     1      -0.862  -6.359   0.390  0.00  0.00    +0.057 C 
BRANCH  20  21
ATOM     21  C   UNL     1      -2.154  -7.126   0.512  0.00  0.00    -0.001 A 
ATOM     22  C   UNL     1      -2.633  -7.478   1.759  0.00  0.00    +0.045 A 
ATOM     23  C   UNL     1      -3.819  -8.183   1.871  0.00  0.00    +0.124 A 
ATOM     24  C   UNL     1      -4.525  -8.537   0.734  0.00  0.00    +0.047 A 
ATOM     25  C   UNL     1      -4.048  -8.186  -0.515  0.00  0.00    +0.023 A 
ATOM     26  C   UNL     1      -2.865  -7.473  -0.628  0.00  0.00    +0.132 A 
ATOM     27  O   UNL     1      -2.392  -7.110  -1.851  0.00  0.00    -0.466 OA
ATOM     28  C   UNL     1      -2.945  -7.784  -2.985  0.00  0.00    +0.394 C 
ATOM     29  O   UNL     1      -4.372  -7.795  -2.858  0.00  0.00    -0.339 OA
ATOM     30  C   UNL     1      -4.824  -8.580  -1.746  0.00  0.00    +0.202 C 
ATOM     31  F   UNL     1      -4.287  -8.527   3.091  0.00  0.00    -0.205 F 
ENDBRANCH  20  21
ENDBRANCH  19  20
ENDBRANCH   4  19
TORSDOF 5
