REMARK  Name = ZINC65305962
REMARK  17 active torsions:
REMARK  status: ('A' for Active; 'I' for Inactive)
REMARK    1  A    between atoms: C_1  and  C_2
REMARK    2  A    between atoms: C_2  and  C_3
REMARK    3  A    between atoms: C_3  and  C_5
REMARK    4  A    between atoms: C_3  and  C_6
REMARK    5  A    between atoms: C_6  and  C_8
REMARK    6  A    between atoms: C_6  and  N_20
REMARK    7  A    between atoms: N_10  and  C_11
REMARK    8  A    between atoms: C_21  and  C_23
REMARK    9  A    between atoms: C_25  and  O_35
REMARK   10  A    between atoms: C_26  and  O_32
REMARK   11  A    between atoms: C_27  and  O_29
REMARK   12  A    between atoms: O_29  and  C_30
REMARK   13  A    between atoms: C_30  and  C_31
REMARK   14  A    between atoms: O_32  and  C_33
REMARK   15  A    between atoms: C_33  and  C_34
REMARK   16  A    between atoms: O_35  and  C_36
REMARK   17  A    between atoms: C_36  and  C_37
REMARK                            x       y       z     vdW  Elec       q    Type
REMARK                         _______ _______ _______ _____ _____    ______ ____
ROOT
ATOM      1  C   UNL     1      -1.437  -1.993  -0.108  0.00  0.00    +0.162 C 
ENDROOT
BRANCH   1   2
ATOM      2  C   UNL     1      -0.911  -2.528   1.199  0.00  0.00    +0.236 C 
ATOM      3  O   UNL     1       0.141  -3.130   1.228  0.00  0.00    -0.274 OA
ATOM      4  N   UNL     1      -1.611  -2.338   2.335  0.00  0.00    -0.277 N 
ATOM      5  H   UNL     1      -2.415  -1.795   2.324  0.00  0.00    +0.152 HD
BRANCH   4   6
ATOM      6  C   UNL     1      -1.157  -2.951   3.586  0.00  0.00    +0.269 C 
ATOM      7  N   UNL     1      -1.517  -4.374   3.608  0.00  0.00    -0.348 N 
ATOM      8  C   UNL     1      -2.306  -4.562   4.627  0.00  0.00    +0.061 A 
ATOM      9  C   UNL     1      -2.982  -5.752   5.160  0.00  0.00    +0.027 A 
ATOM     10  C   UNL     1      -3.757  -5.641   6.258  0.00  0.00    +0.002 A 
ATOM     11  C   UNL     1      -3.953  -4.419   6.927  0.00  0.00    +0.002 A 
ATOM     12  C   UNL     1      -3.380  -3.268   6.521  0.00  0.00    +0.027 A 
ATOM     13  C   UNL     1      -2.512  -3.269   5.335  0.00  0.00    +0.061 A 
ATOM     14  N   UNL     1      -1.843  -2.333   4.728  0.00  0.00    -0.348 N 
ATOM     15  H   UNL     1      -1.220  -5.051   2.980  0.00  0.00    +0.163 HD
ATOM     16  H   UNL     1      -1.804  -1.397   4.983  0.00  0.00    +0.163 HD
ENDBRANCH   4   6
ENDBRANCH   1   2
BRANCH   1  17
ATOM     17  N   UNL     1      -0.900  -2.790  -1.214  0.00  0.00    -0.300 N 
ATOM     18  C   UNL     1      -1.568  -2.858  -2.382  0.00  0.00    +0.245 C 
ATOM     19  O   UNL     1      -2.617  -2.259  -2.519  0.00  0.00    -0.270 OA
ATOM     20  H   UNL     1      -0.063  -3.268  -1.105  0.00  0.00    +0.150 HD
BRANCH  18  21
ATOM     21  C   UNL     1      -1.027  -3.662  -3.496  0.00  0.00    +0.044 A 
ATOM     22  C   UNL     1       0.175  -4.356  -3.339  0.00  0.00    +0.062 A 
ATOM     23  C   UNL     1       0.680  -5.108  -4.383  0.00  0.00    +0.166 A 
ATOM     24  C   UNL     1      -0.009  -5.173  -5.591  0.00  0.00    +0.204 A 
ATOM     25  C   UNL     1      -1.207  -4.482  -5.751  0.00  0.00    +0.166 A 
ATOM     26  C   UNL     1      -1.719  -3.734  -4.708  0.00  0.00    +0.062 A 
BRANCH  25  27
ATOM     27  O   UNL     1      -1.877  -4.548  -6.933  0.00  0.00    -0.488 OA
BRANCH  27  28
ATOM     28  C   UNL     1      -3.099  -3.814  -7.027  0.00  0.00    +0.226 C 
ATOM     29  C   UNL     1      -3.705  -4.007  -8.419  0.00  0.00    +0.048 C 
ENDBRANCH  27  28
ENDBRANCH  25  27
BRANCH  24  30
ATOM     30  O   UNL     1       0.489  -5.913  -6.617  0.00  0.00    -0.485 OA
BRANCH  30  31
ATOM     31  C   UNL     1       0.085  -7.282  -6.686  0.00  0.00    +0.226 C 
ATOM     32  C   UNL     1       0.742  -7.947  -7.896  0.00  0.00    +0.048 C 
ENDBRANCH  30  31
ENDBRANCH  24  30
BRANCH  23  33
ATOM     33  O   UNL     1       1.850  -5.784  -4.230  0.00  0.00    -0.488 OA
BRANCH  33  34
ATOM     34  C   UNL     1       2.503  -5.672  -2.965  0.00  0.00    +0.226 C 
ATOM     35  C   UNL     1       3.793  -6.494  -2.982  0.00  0.00    +0.048 C 
ENDBRANCH  33  34
ENDBRANCH  23  33
ENDBRANCH  18  21
ENDBRANCH   1  17
BRANCH   1  36
ATOM     36  C   UNL     1      -1.004  -0.535  -0.273  0.00  0.00    +0.015 C 
ATOM     37  C   UNL     1       0.519  -0.467  -0.406  0.00  0.00    +0.010 C 
BRANCH  36  39
ATOM     38  C   UNL     1      -1.319   1.541  -1.627  0.00  0.00    +0.004 C 
ATOM     39  C   UNL     1      -1.652   0.051  -1.530  0.00  0.00    +0.002 C 
ENDBRANCH  36  39
ENDBRANCH   1  36
TORSDOF 12
