REMARK  Name = ZINC59170414
REMARK  7 active torsions:
REMARK  status: ('A' for Active; 'I' for Inactive)
REMARK    1  A    between atoms: C_1  and  C_2
REMARK    2  A    between atoms: C_5  and  N_8
REMARK    3  A    between atoms: C_9  and  C_11
REMARK    4  A    between atoms: N_21  and  N_22
REMARK    5  A    between atoms: N_22  and  S_23
REMARK    6  A    between atoms: S_23  and  C_26
REMARK    7  A    between atoms: C_29  and  C_32
REMARK                            x       y       z     vdW  Elec       q    Type
REMARK                         _______ _______ _______ _____ _____    ______ ____
ROOT
ATOM      1  C   UNL     1       0.721  -6.432   0.944  0.00  0.00    +0.099 A 
ATOM      2  C   UNL     1       0.680  -7.076   2.158  0.00  0.00    +0.030 A 
ATOM      3  C   UNL     1       0.237  -8.476   2.171  0.00  0.00    +0.020 A 
ATOM      4  C   UNL     1      -0.087  -9.110   3.374  0.00  0.00    +0.031 A 
ATOM      5  C   UNL     1      -0.504 -10.425   3.361  0.00  0.00    +0.042 A 
ATOM      6  C   UNL     1      -0.603 -11.117   2.162  0.00  0.00    +0.023 A 
ATOM      7  C   UNL     1      -0.285 -10.500   0.967  0.00  0.00    +0.048 A 
ATOM      8  C   UNL     1       0.137  -9.181   0.959  0.00  0.00    +0.138 A 
ATOM      9  O   UNL     1       0.458  -8.566  -0.208  0.00  0.00    -0.437 OA
ATOM     10  C   UNL     1       0.308  -7.208  -0.249  0.00  0.00    +0.225 A 
ATOM     11  N   UNL     1      -0.179  -6.614  -1.301  0.00  0.00    -0.260 N 
ATOM     12 CL   UNL     1      -0.906 -11.218   4.851  0.00  0.00    -0.084 Cl
ATOM     13  H   UNL     1      -0.403  -5.670  -1.266  0.00  0.00    +0.189 HD
ENDROOT
BRANCH   1  15
ATOM     14  N   UNL     1       1.347  -4.295   1.948  0.00  0.00    -0.281 N 
ATOM     15  C   UNL     1       1.152  -5.029   0.835  0.00  0.00    +0.253 C 
ATOM     16  O   UNL     1       1.331  -4.531  -0.261  0.00  0.00    -0.270 OA
ATOM     17  H   UNL     1       1.305  -4.717   2.821  0.00  0.00    +0.155 HD
BRANCH  14  22
ATOM     18  C   UNL     1       2.420   1.259   1.534  0.00  0.00    +0.044 C 
ATOM     19  C   UNL     1       2.135  -0.216   1.644  0.00  0.00    -0.050 A 
ATOM     20  C   UNL     1       1.524  -0.718   2.779  0.00  0.00    +0.005 A 
ATOM     21  C   UNL     1       1.262  -2.070   2.883  0.00  0.00    +0.023 A 
ATOM     22  C   UNL     1       1.611  -2.926   1.846  0.00  0.00    +0.034 A 
ATOM     23  C   UNL     1       2.224  -2.418   0.707  0.00  0.00    +0.023 A 
ATOM     24  C   UNL     1       2.479  -1.065   0.608  0.00  0.00    +0.005 A 
ENDBRANCH  14  22
ENDBRANCH   1  15
BRANCH  11  25
ATOM     25  N   UNL     1      -0.379  -7.337  -2.484  0.00  0.00    -0.157 N 
ATOM     26  H   UNL     1      -0.233  -8.296  -2.497  0.00  0.00    +0.194 HD
BRANCH  25  27
ATOM     27  S   UNL     1      -0.863  -6.555  -3.861  0.00  0.00    +0.085 S 
ATOM     28  O   UNL     1      -0.681  -7.469  -4.933  0.00  0.00    -0.149 OA
ATOM     29  O   UNL     1      -2.122  -5.963  -3.570  0.00  0.00    -0.149 OA
BRANCH  27  30
ATOM     30  C   UNL     1       0.265  -5.229  -4.132  0.00  0.00    +0.110 A 
ATOM     31  C   UNL     1       0.032  -3.994  -3.556  0.00  0.00    +0.029 A 
ATOM     32  C   UNL     1       0.918  -2.954  -3.769  0.00  0.00    +0.005 A 
ATOM     33  C   UNL     1       2.037  -3.149  -4.557  0.00  0.00    -0.050 A 
ATOM     34  C   UNL     1       2.270  -4.384  -5.132  0.00  0.00    +0.005 A 
ATOM     35  C   UNL     1       1.387  -5.426  -4.916  0.00  0.00    +0.029 A 
ATOM     36  C   UNL     1       3.001  -2.015  -4.790  0.00  0.00    +0.044 C 
ENDBRANCH  27  30
ENDBRANCH  25  27
ENDBRANCH  11  25
TORSDOF 5
