REMARK  Name = ZINC14832302
REMARK  10 active torsions:
REMARK  status: ('A' for Active; 'I' for Inactive)
REMARK    1  A    between atoms: C_1  and  C_2
REMARK    2  A    between atoms: C_2  and  C_3
REMARK    3  A    between atoms: C_3  and  C_5
REMARK    4  A    between atoms: C_3  and  C_6
REMARK    5  A    between atoms: C_9  and  O_13
REMARK    6  A    between atoms: O_13  and  C_14
REMARK    7  A    between atoms: C_14  and  C_15
REMARK    8  A    between atoms: N_17  and  N_18
REMARK    9  A    between atoms: C_19  and  C_21
REMARK   10  A    between atoms: C_25  and  N_27
REMARK                            x       y       z     vdW  Elec       q    Type
REMARK                         _______ _______ _______ _____ _____    ______ ____
ROOT
ATOM      1  C   UNL     1       2.227   8.103   0.020  0.00  0.00    +0.267 C 
ATOM      2  O   UNL     1       3.285   7.511   0.007  0.00  0.00    -0.271 OA
ATOM      3  N   UNL     1       1.069   7.414   0.028  0.00  0.00    -0.231 N 
ATOM      4  H   UNL     1       0.222   7.887   0.039  0.00  0.00    +0.173 HD
ENDROOT
BRANCH   3   5
ATOM      5  N   UNL     1       1.088   6.013   0.022  0.00  0.00    -0.230 N 
ATOM      6  C   UNL     1      -0.070   5.323   0.030  0.00  0.00    +0.260 C 
ATOM      7  O   UNL     1      -1.131   5.916   0.043  0.00  0.00    -0.269 OA
ATOM      8  H   UNL     1       1.934   5.539   0.011  0.00  0.00    +0.173 HD
BRANCH   6   9
ATOM      9  C   UNL     1      -0.050   3.845   0.023  0.00  0.00    +0.040 A 
ATOM     10  C   UNL     1       1.166   3.160   0.007  0.00  0.00    +0.013 A 
ATOM     11  C   UNL     1       1.178   1.781   0.000  0.00  0.00    +0.003 A 
ATOM     12  C   UNL     1      -0.013   1.076   0.008  0.00  0.00    +0.033 A 
ATOM     13  C   UNL     1      -1.222   1.748   0.017  0.00  0.00    +0.127 A 
ATOM     14  C   UNL     1      -1.247   3.128   0.031  0.00  0.00    +0.045 A 
BRANCH  13  15
ATOM     15  N   UNL     1      -2.490   0.986   0.019  0.00  0.00    +0.056 N 
ATOM     16  O   UNL     1      -2.469  -0.232   0.013  0.00  0.00    -0.126 OA
ATOM     17  O   UNL     1      -3.556   1.576   0.028  0.00  0.00    -0.126 OA
ENDBRANCH  13  15
ENDBRANCH   6   9
ENDBRANCH   3   5
BRANCH   1  18
ATOM     18  C   UNL     1       2.206   9.610   0.028  0.00  0.00    +0.326 C 
BRANCH  18  19
ATOM     19  O   UNL     1       3.547  10.105   0.017  0.00  0.00    -0.482 OA
BRANCH  19  23
ATOM     20  C   UNL     1       4.032  14.202   0.031  0.00  0.00    -0.043 A 
ATOM     21  C   UNL     1       2.761  13.657   0.042  0.00  0.00    +0.007 A 
ATOM     22  C   UNL     1       2.596  12.286   0.030  0.00  0.00    +0.047 A 
ATOM     23  C   UNL     1       3.707  11.454   0.021  0.00  0.00    +0.135 A 
ATOM     24  C   UNL     1       4.981  12.004   0.011  0.00  0.00    +0.060 A 
ATOM     25  C   UNL     1       5.141  13.377   0.016  0.00  0.00    +0.022 A 
ATOM     26 BR   UNL     1       6.498  10.875  -0.010  0.00  0.00    -0.047 Br
BRANCH  20  27
ATOM     27  C   UNL     1       4.208  15.699   0.036  0.00  0.00    +0.016 C 
ATOM     28  C   UNL     1       3.564  16.284   1.295  0.00  0.00    +0.012 C 
BRANCH  27  30
ATOM     29  C   UNL     1       3.824  17.798  -1.264  0.00  0.00    +0.004 C 
ATOM     30  C   UNL     1       3.539  16.296  -1.204  0.00  0.00    +0.004 C 
ENDBRANCH  27  30
ENDBRANCH  20  27
ENDBRANCH  19  23
ENDBRANCH  18  19
ENDBRANCH   1  18
TORSDOF 8
