REMARK  Name = ZINC08974344
REMARK  6 active torsions:
REMARK  status: ('A' for Active; 'I' for Inactive)
REMARK    1  A    between atoms: C_1  and  O_2
REMARK    2  A    between atoms: O_2  and  C_3
REMARK    3  A    between atoms: C_6  and  S_9
REMARK    4  A    between atoms: S_9  and  N_12
REMARK    5  A    between atoms: C_15  and  N_24
REMARK    6  A    between atoms: N_24  and  C_25
REMARK                            x       y       z     vdW  Elec       q    Type
REMARK                         _______ _______ _______ _____ _____    ______ ____
ROOT
ATOM      1  N   UNL     1       2.114  -2.850  -6.002  0.00  0.00    -0.128 NA
ATOM      2  C   UNL     1       2.240  -3.240  -7.243  0.00  0.00    +0.095 C 
ATOM      3  C   UNL     1       1.050  -3.440  -8.082  0.00  0.00    +0.057 C 
ATOM      4  C   UNL     1       1.175  -3.567  -9.425  0.00  0.00    +0.081 C 
ATOM      5  C   UNL     1       2.510  -3.517 -10.059  0.00  0.00    +0.208 C 
ATOM      6  O   UNL     1       2.614  -3.385 -11.263  0.00  0.00    -0.285 OA
ATOM      7  C   UNL     1       3.714  -3.627  -9.212  0.00  0.00    +0.033 A 
ATOM      8  C   UNL     1       3.583  -3.491  -7.818  0.00  0.00    +0.013 A 
ATOM      9  C   UNL     1       4.704  -3.593  -7.006  0.00  0.00    +0.011 A 
ATOM     10  C   UNL     1       5.944  -3.828  -7.575  0.00  0.00    +0.001 A 
ATOM     11  C   UNL     1       6.074  -3.963  -8.946  0.00  0.00    +0.001 A 
ATOM     12  C   UNL     1       4.967  -3.864  -9.769  0.00  0.00    +0.012 A 
ENDROOT
BRANCH   1  13
ATOM     13  S   UNL     1       3.255  -1.857  -5.327  0.00  0.00    +0.099 S 
ATOM     14  O   UNL     1       4.056  -1.373  -6.396  0.00  0.00    -0.146 OA
ATOM     15  O   UNL     1       3.804  -2.562  -4.222  0.00  0.00    -0.146 OA
BRANCH  13  19
ATOM     16  C   UNL     1       1.072   1.726  -3.622  0.00  0.00    +0.120 A 
ATOM     17  C   UNL     1       1.524   1.747  -4.934  0.00  0.00    +0.047 A 
ATOM     18  C   UNL     1       2.195   0.655  -5.450  0.00  0.00    +0.032 A 
ATOM     19  C   UNL     1       2.406  -0.463  -4.664  0.00  0.00    +0.113 A 
ATOM     20  C   UNL     1       1.952  -0.489  -3.358  0.00  0.00    +0.032 A 
ATOM     21  C   UNL     1       1.286   0.603  -2.836  0.00  0.00    +0.047 A 
BRANCH  16  23
ATOM     22  C   UNL     1       0.233   3.922  -3.978  0.00  0.00    +0.277 C 
ATOM     23  O   UNL     1       0.417   2.801  -3.110  0.00  0.00    -0.495 OA
ENDBRANCH  16  23
ENDBRANCH  13  19
ENDBRANCH   1  13
BRANCH   4  24
ATOM     24  N   UNL     1       0.046  -3.750 -10.209  0.00  0.00    -0.311 N 
ATOM     25  H   UNL     1      -0.638  -3.063 -10.241  0.00  0.00    +0.152 HD
BRANCH  24  26
ATOM     26  C   UNL     1      -0.105  -4.919 -10.950  0.00  0.00    +0.039 A 
ATOM     27  C   UNL     1       0.792  -5.957 -10.804  0.00  0.00    +0.024 A 
ATOM     28  C   UNL     1       0.646  -7.131 -11.535  0.00  0.00    +0.002 A 
ATOM     29  C   UNL     1      -0.377  -7.286 -12.421  0.00  0.00    +0.008 A 
ATOM     30  C   UNL     1      -1.310  -6.251 -12.604  0.00  0.00    -0.016 A 
ATOM     31  C   UNL     1      -1.176  -5.052 -11.861  0.00  0.00    +0.003 A 
ATOM     32  C   UNL     1      -2.108  -4.020 -12.044  0.00  0.00    +0.010 A 
ATOM     33  C   UNL     1      -3.128  -4.182 -12.931  0.00  0.00    +0.001 A 
ATOM     34  C   UNL     1      -3.261  -5.361 -13.663  0.00  0.00    +0.001 A 
ATOM     35  C   UNL     1      -2.375  -6.383 -13.511  0.00  0.00    +0.008 A 
ENDBRANCH  24  26
ENDBRANCH   4  24
TORSDOF 5
