REMARK  Name = ZINC39364405
REMARK  9 active torsions:
REMARK  status: ('A' for Active; 'I' for Inactive)
REMARK    1  A    between atoms: C_1  and  C_2
REMARK    2  A    between atoms: C_2  and  C_3
REMARK    3  A    between atoms: C_2  and  C_4
REMARK    4  A    between atoms: C_6  and  C_10
REMARK    5  A    between atoms: C_10  and  N_11
REMARK    6  A    between atoms: C_15  and  C_18
REMARK    7  A    between atoms: C_18  and  N_19
REMARK    8  A    between atoms: N_19  and  S_20
REMARK    9  A    between atoms: S_20  and  C_23
REMARK                            x       y       z     vdW  Elec       q    Type
REMARK                         _______ _______ _______ _____ _____    ______ ____
ROOT
ATOM      1  N   UNL     1       2.088  -1.059   5.436  0.00  0.00    +0.382 N 
ATOM      2  C   UNL     1       2.411  -2.474   5.649  0.00  0.00    -0.079 C 
ATOM      3  C   UNL     1       3.658  -2.590   6.528  0.00  0.00    -0.018 C 
ATOM      4  C   UNL     1       3.388  -1.918   7.878  0.00  0.00    +0.001 C 
ATOM      5  C   UNL     1       2.980  -0.462   7.638  0.00  0.00    -0.012 C 
ATOM      6  C   UNL     1       1.758  -0.425   6.718  0.00  0.00    -0.074 C 
ATOM      7  H   UNL     1       2.884  -0.592   5.026  0.00  0.00    -0.082 HD
ENDROOT
BRANCH   1   8
ATOM      8  C   UNL     1       0.938  -0.952   4.528  0.00  0.00    -0.046 C 
BRANCH   8  11
ATOM      9  C   UNL     1       0.731  -0.503   1.223  0.00  0.00    +0.064 C 
ATOM     10  C   UNL     1       0.194  -1.291   2.157  0.00  0.00    +0.024 C 
ATOM     11  C   UNL     1       1.322  -1.500   3.152  0.00  0.00    +0.136 C 
ATOM     12  N   UNL     1       2.427  -0.722   2.567  0.00  0.00    -0.182 NA
ATOM     13  N   UNL     1       2.019  -0.219   1.517  0.00  0.00    -0.159 NA
BRANCH   9  15
ATOM     14  C   UNL     1      -0.019   1.526   0.010  0.00  0.00    +0.014 C 
ATOM     15  C   UNL     1       0.002  -0.004   0.002  0.00  0.00    +0.033 C 
ATOM     16  C   UNL     1       0.718  -0.497  -1.257  0.00  0.00    +0.014 C 
ENDBRANCH   9  15
ENDBRANCH   8  11
ENDBRANCH   1   8
BRANCH   5  17
ATOM     17  C   UNL     1       2.634   0.198   8.975  0.00  0.00    +0.107 C 
BRANCH  17  18
ATOM     18  N   UNL     1       3.834   0.265   9.812  0.00  0.00    -0.190 NA
ATOM     19  H   UNL     1       4.614  -0.266   9.585  0.00  0.00    +0.148 HD
BRANCH  18  20
ATOM     20  S   UNL     1       3.860   1.246  11.146  0.00  0.00    +0.060 S 
ATOM     21  O   UNL     1       5.133   1.073  11.753  0.00  0.00    -0.153 OA
ATOM     22  O   UNL     1       3.385   2.517  10.724  0.00  0.00    -0.153 OA
BRANCH  20  23
ATOM     23  C   UNL     1       2.670   0.614  12.281  0.00  0.00    +0.131 A 
ATOM     24  C   UNL     1       3.069   0.120  13.484  0.00  0.00    +0.031 A 
ATOM     25  C   UNL     1       2.145  -0.385  14.396  0.00  0.00    +0.003 A 
ATOM     26  C   UNL     1       0.814  -0.397  14.108  0.00  0.00    +0.010 A 
ATOM     27  C   UNL     1       0.366   0.106  12.877  0.00  0.00    +0.002 A 
ATOM     28  C   UNL     1       1.304   0.625  11.949  0.00  0.00    +0.097 A 
ATOM     29  N   UNL     1       0.882   1.108  10.777  0.00  0.00    -0.253 NA
ATOM     30  C   UNL     1      -0.390   1.120  10.462  0.00  0.00    +0.111 A 
ATOM     31  C   UNL     1      -1.364   0.631  11.330  0.00  0.00    +0.020 A 
ATOM     32  C   UNL     1      -1.001   0.112  12.540  0.00  0.00    +0.011 A 
ENDBRANCH  20  23
ENDBRANCH  18  20
ENDBRANCH  17  18
ENDBRANCH   5  17
TORSDOF 7
