REMARK  Name = ZINC65271938
REMARK  6 active torsions:
REMARK  status: ('A' for Active; 'I' for Inactive)
REMARK    1  A    between atoms: C_1  and  C_2
REMARK    2  A    between atoms: C_3  and  C_23
REMARK    3  A    between atoms: N_18  and  C_19
REMARK    4  A    between atoms: C_19  and  C_20
REMARK    5  A    between atoms: C_19  and  C_21
REMARK    6  A    between atoms: C_19  and  C_22
REMARK                            x       y       z     vdW  Elec       q    Type
REMARK                         _______ _______ _______ _____ _____    ______ ____
ROOT
ATOM      1  C   UNL     1       1.731   0.731  -0.607  0.00  0.00    +0.049 C 
ATOM      2  C   UNL     1       0.746  -0.361  -0.274  0.00  0.00    +0.018 C 
ATOM      3  C   UNL     1      -0.121  -0.863  -1.183  0.00  0.00    +0.126 C 
ATOM      4  S   UNL     1      -0.995  -2.084  -0.226  0.00  0.00    +0.101 S 
ATOM      5  O   UNL     1      -2.336  -1.639  -0.076  0.00  0.00    -0.146 OA
ATOM      6  O   UNL     1      -0.646  -3.364  -0.735  0.00  0.00    -0.146 OA
ATOM      7  N   UNL     1      -0.226  -1.894   1.248  0.00  0.00    -0.113 NA
ATOM      8  C   UNL     1       0.659  -0.958   1.044  0.00  0.00    +0.148 C 
ATOM      9  N   UNL     1       1.492  -0.541   2.063  0.00  0.00    -0.312 N 
ATOM     10  C   UNL     1       1.441  -1.260   3.345  0.00  0.00    +0.108 C 
ATOM     11  C   UNL     1       2.833  -1.523   3.927  0.00  0.00    +0.038 C 
ATOM     12  C   UNL     1       3.792  -1.939   2.830  0.00  0.00    +0.111 C 
ATOM     13  N   UNL     1       4.356  -0.726   2.238  0.00  0.00    -0.284 N 
ATOM     14  C   UNL     1       3.715   0.056   1.240  0.00  0.00    +0.128 C 
ATOM     15  C   UNL     1       2.378   0.583   1.815  0.00  0.00    +0.125 C 
ATOM     16  C   UNL     1       5.568  -0.322   2.670  0.00  0.00    +0.303 C 
ATOM     17  O   UNL     1       6.118   0.623   2.138  0.00  0.00    -0.253 OA
ATOM     18  N   UNL     1       6.169  -0.966   3.690  0.00  0.00    -0.294 N 
ATOM     19  H   UNL     1       5.762  -1.760   4.069  0.00  0.00    +0.151 HD
ENDROOT
BRANCH   3  20
ATOM     20  C   UNL     1      -0.296  -0.494  -2.598  0.00  0.00    +0.002 A 
ATOM     21  C   UNL     1      -0.273   0.850  -2.982  0.00  0.00    +0.011 A 
ATOM     22  C   UNL     1      -0.438   1.189  -4.308  0.00  0.00    +0.020 A 
ATOM     23  C   UNL     1      -0.628   0.200  -5.260  0.00  0.00    +0.041 A 
ATOM     24  C   UNL     1      -0.653  -1.134  -4.887  0.00  0.00    +0.020 A 
ATOM     25  C   UNL     1      -0.482  -1.487  -3.565  0.00  0.00    +0.011 A 
ATOM     26 CL   UNL     1      -0.836   0.635  -6.927  0.00  0.00    -0.084 Cl
ENDBRANCH   3  20
BRANCH  18  27
ATOM     27  C   UNL     1       7.437  -0.466   4.226  0.00  0.00    +0.028 C 
ATOM     28  C   UNL     1       7.243   0.959   4.750  0.00  0.00    +0.031 C 
ATOM     29  C   UNL     1       7.901  -1.371   5.369  0.00  0.00    +0.031 C 
ATOM     30  C   UNL     1       8.493  -0.462   3.118  0.00  0.00    +0.031 C 
ENDBRANCH  18  27
TORSDOF 2
