REMARK  Name = ZINC09914950
REMARK  11 active torsions:
REMARK  status: ('A' for Active; 'I' for Inactive)
REMARK    1  A    between atoms: C_1  and  C_2
REMARK    2  A    between atoms: C_5  and  N_9
REMARK    3  A    between atoms: C_6  and  C_8
REMARK    4  A    between atoms: N_9  and  S_10
REMARK    5  A    between atoms: S_10  and  C_13
REMARK    6  A    between atoms: C_16  and  N_22
REMARK    7  A    between atoms: C_17  and  N_19
REMARK    8  A    between atoms: N_22  and  C_23
REMARK    9  A    between atoms: C_23  and  C_25
REMARK   10  A    between atoms: C_23  and  C_31
REMARK   11  A    between atoms: N_35  and  C_36
REMARK                            x       y       z     vdW  Elec       q    Type
REMARK                         _______ _______ _______ _____ _____    ______ ____
ROOT
ATOM      1  C   UNL     1       2.523  -4.739  -1.163  0.00  0.00    +0.111 A 
ATOM      2  C   UNL     1       3.108  -3.633  -1.752  0.00  0.00    +0.031 A 
ATOM      3  C   UNL     1       4.462  -3.405  -1.606  0.00  0.00    +0.027 A 
ATOM      4  C   UNL     1       5.237  -4.289  -0.865  0.00  0.00    +0.059 A 
ATOM      5  C   UNL     1       4.646  -5.399  -0.275  0.00  0.00    +0.149 A 
ATOM      6  C   UNL     1       3.290  -5.617  -0.421  0.00  0.00    +0.063 A 
ENDROOT
BRANCH   1   7
ATOM      7  S   UNL     1       0.795  -5.024  -1.353  0.00  0.00    +0.072 S 
ATOM      8  O   UNL     1       0.589  -6.417  -1.155  0.00  0.00    -0.150 OA
ATOM      9  O   UNL     1       0.401  -4.357  -2.544  0.00  0.00    -0.150 OA
BRANCH   7  10
ATOM     10  N   UNL     1       0.031  -4.252  -0.103  0.00  0.00    -0.216 N 
ATOM     11  H   UNL     1      -0.509  -4.759   0.524  0.00  0.00    +0.174 HD
BRANCH  10  16
ATOM     12  C   UNL     1       0.569   1.360   0.514  0.00  0.00    +0.044 C 
ATOM     13  C   UNL     1       0.426  -0.132   0.350  0.00  0.00    -0.050 A 
ATOM     14  C   UNL     1       0.372  -0.684  -0.916  0.00  0.00    +0.005 A 
ATOM     15  C   UNL     1       0.241  -2.050  -1.070  0.00  0.00    +0.025 A 
ATOM     16  C   UNL     1       0.164  -2.870   0.049  0.00  0.00    +0.051 A 
ATOM     17  C   UNL     1       0.219  -2.311   1.320  0.00  0.00    -0.028 A 
ATOM     18  C   UNL     1       0.355  -0.945   1.466  0.00  0.00    +0.008 A 
ATOM     19  C   UNL     1       0.135  -3.196   2.537  0.00  0.00    +0.046 C 
ENDBRANCH  10  16
ENDBRANCH   7  10
ENDBRANCH   1   7
BRANCH   5  20
ATOM     20  N   UNL     1       5.468  -6.344   0.515  0.00  0.00    +0.058 N 
ATOM     21  O   UNL     1       6.594  -6.606   0.162  0.00  0.00    -0.126 OA
ATOM     22  O   UNL     1       5.013  -6.853   1.513  0.00  0.00    -0.126 OA
ENDBRANCH   5  20
BRANCH   4  23
ATOM     23  N   UNL     1       6.607  -4.063  -0.715  0.00  0.00    -0.329 N 
ATOM     24  H   UNL     1       7.160  -4.717  -0.259  0.00  0.00    +0.147 HD
BRANCH  23  25
ATOM     25  C   UNL     1       7.210  -2.838  -1.247  0.00  0.00    +0.165 C 
BRANCH  25  26
ATOM     26  C   UNL     1       7.548  -3.035  -2.702  0.00  0.00    +0.112 A 
ATOM     27  N   UNL     1       7.956  -4.151  -3.243  0.00  0.00    -0.348 N 
ATOM     28  C   UNL     1       8.160  -3.957  -4.555  0.00  0.00    +0.102 A 
ATOM     29  C   UNL     1       7.869  -2.672  -4.836  0.00  0.00    +0.104 A 
ATOM     30  N   UNL     1       7.475  -2.089  -3.662  0.00  0.00    -0.337 N 
ATOM     31  C   UNL     1       7.056  -0.697  -3.481  0.00  0.00    +0.150 C 
ATOM     32  H   UNL     1       8.089  -4.988  -2.772  0.00  0.00    +0.167 HD
ENDBRANCH  25  26
BRANCH  25  33
ATOM     33  C   UNL     1       8.466  -2.521  -0.477  0.00  0.00    -0.020 A 
ATOM     34  C   UNL     1       9.326  -3.538  -0.108  0.00  0.00    +0.006 A 
ATOM     35  C   UNL     1      10.478  -3.248   0.598  0.00  0.00    +0.000 A 
ATOM     36  C   UNL     1      10.771  -1.939   0.935  0.00  0.00    +0.000 A 
ATOM     37  C   UNL     1       9.911  -0.922   0.566  0.00  0.00    +0.000 A 
ATOM     38  C   UNL     1       8.761  -1.212  -0.144  0.00  0.00    +0.006 A 
ENDBRANCH  25  33
ENDBRANCH  23  25
ENDBRANCH   4  23
TORSDOF 8
