REMARK  Name = ZINC64622971
REMARK  2 active torsions:
REMARK  status: ('A' for Active; 'I' for Inactive)
REMARK    1  A    between atoms: C_8  and  C_26
REMARK    2  A    between atoms: N_18  and  C_19
REMARK                            x       y       z     vdW  Elec       q    Type
REMARK                         _______ _______ _______ _____ _____    ______ ____
ROOT
ATOM      1  C   UNL     1       0.153   1.336  -0.443  0.00  0.00    +0.001 A 
ATOM      2  C   UNL     1       1.175   2.107   0.127  0.00  0.00    +0.002 A 
ATOM      3  C   UNL     1       2.288   1.561   0.661  0.00  0.00    +0.026 A 
ATOM      4  C   UNL     1       2.468   0.151   0.665  0.00  0.00    +0.043 A 
ATOM      5  N   UNL     1       3.434  -0.605   1.135  0.00  0.00    -0.375 N 
ATOM      6  C   UNL     1       3.141  -1.996   0.800  0.00  0.00    +0.131 C 
ATOM      7  C   UNL     1       3.086  -2.885   2.048  0.00  0.00    +0.134 C 
ATOM      8  N   UNL     1       2.403  -4.136   1.682  0.00  0.00    -0.276 N 
ATOM      9  C   UNL     1       1.027  -4.114   1.175  0.00  0.00    +0.114 C 
ATOM     10  C   UNL     1       0.965  -3.239  -0.091  0.00  0.00    +0.052 C 
ATOM     11  C   UNL     1       1.750  -1.978   0.187  0.00  0.00    -0.035 C 
ATOM     12  C   UNL     1       1.397  -0.690   0.075  0.00  0.00    -0.001 A 
ATOM     13  C   UNL     1       0.221  -0.013  -0.488  0.00  0.00    +0.010 A 
ATOM     14  C   UNL     1       3.048  -5.312   1.814  0.00  0.00    +0.307 C 
ATOM     15  O   UNL     1       4.162  -5.343   2.302  0.00  0.00    -0.252 OA
ATOM     16  N   UNL     1       2.459  -6.453   1.405  0.00  0.00    -0.267 N 
ATOM     17  H   UNL     1       1.605  -6.420   0.947  0.00  0.00    +0.156 HD
ATOM     18  H   UNL     1       4.212  -0.291   1.622  0.00  0.00    +0.160 HD
ENDROOT
BRANCH  16  19
ATOM     19  C   UNL     1       3.081  -7.686   1.641  0.00  0.00    +0.070 A 
ATOM     20  C   UNL     1       4.464  -7.763   1.724  0.00  0.00    +0.026 A 
ATOM     21  C   UNL     1       5.075  -8.980   1.956  0.00  0.00    +0.002 A 
ATOM     22  C   UNL     1       4.310 -10.122   2.108  0.00  0.00    +0.003 A 
ATOM     23  C   UNL     1       2.932 -10.050   2.026  0.00  0.00    +0.040 A 
ATOM     24  C   UNL     1       2.313  -8.834   1.799  0.00  0.00    +0.145 A 
ATOM     25  F   UNL     1       0.966  -8.763   1.725  0.00  0.00    -0.204 F 
ENDBRANCH  16  19
BRANCH   7  26
ATOM     26  C   UNL     1       2.319  -2.184   3.140  0.00  0.00    -0.025 A 
ATOM     27  C   UNL     1       2.924  -1.934   4.358  0.00  0.00    +0.008 A 
ATOM     28  C   UNL     1       2.222  -1.292   5.360  0.00  0.00    +0.038 A 
ATOM     29  C   UNL     1       0.912  -0.898   5.144  0.00  0.00    +0.123 A 
ATOM     30  C   UNL     1       0.307  -1.149   3.924  0.00  0.00    +0.038 A 
ATOM     31  C   UNL     1       1.013  -1.787   2.921  0.00  0.00    +0.008 A 
ATOM     32  F   UNL     1       0.224  -0.271   6.122  0.00  0.00    -0.205 F 
ENDBRANCH   7  26
TORSDOF 2
