REMARK  Name = ZINC17962995
REMARK  9 active torsions:
REMARK  status: ('A' for Active; 'I' for Inactive)
REMARK    1  A    between atoms: C_1  and  C_2
REMARK    2  A    between atoms: C_5  and  S_8
REMARK    3  A    between atoms: S_8  and  N_11
REMARK    4  A    between atoms: N_11  and  C_12
REMARK    5  A    between atoms: N_11  and  C_13
REMARK    6  A    between atoms: C_13  and  C_14
REMARK    7  A    between atoms: N_16  and  C_17
REMARK    8  A    between atoms: C_17  and  C_19
REMARK    9  A    between atoms: C_17  and  C_20
REMARK                            x       y       z     vdW  Elec       q    Type
REMARK                         _______ _______ _______ _____ _____    ______ ____
ROOT
ATOM      1  C   UNL     1       3.435   6.283   1.452  0.00  0.00    +0.229 C 
ATOM      2  O   UNL     1       4.525   5.810   1.208  0.00  0.00    -0.274 OA
ATOM      3  N   UNL     1       2.329   5.747   0.900  0.00  0.00    -0.308 N 
ATOM      4  H   UNL     1       1.457   6.125   1.095  0.00  0.00    +0.149 HD
ENDROOT
BRANCH   3   5
ATOM      5  C   UNL     1       2.442   4.593   0.004  0.00  0.00    +0.100 C 
ATOM      6  C   UNL     1       2.739   5.077  -1.416  0.00  0.00    +0.033 C 
BRANCH   5   7
ATOM      7  C   UNL     1       1.148   3.822   0.012  0.00  0.00    -0.026 A 
ATOM      8  C   UNL     1      -0.059   4.497   0.027  0.00  0.00    +0.007 A 
ATOM      9  C   UNL     1      -1.247   3.791   0.034  0.00  0.00    +0.022 A 
ATOM     10  C   UNL     1      -1.230   2.408   0.021  0.00  0.00    +0.059 A 
ATOM     11  C   UNL     1      -0.021   1.732   0.012  0.00  0.00    +0.060 A 
ATOM     12  C   UNL     1       1.167   2.440   0.004  0.00  0.00    +0.027 A 
ATOM     13 CL   UNL     1       0.002  -0.004   0.002  0.00  0.00    -0.082 Cl
ATOM     14 CL   UNL     1      -2.722   1.521   0.023  0.00  0.00    -0.082 Cl
ENDBRANCH   5   7
ENDBRANCH   3   5
BRANCH   1  15
ATOM     15  C   UNL     1       3.319   7.470   2.374  0.00  0.00    +0.204 C 
BRANCH  15  16
ATOM     16  N   UNL     1       4.652   7.860   2.838  0.00  0.00    -0.171 NA
ATOM     17  C   UNL     1       5.480   8.752   2.023  0.00  0.00    +0.132 C 
BRANCH  16  18
ATOM     18  S   UNL     1       5.223   7.293   4.285  0.00  0.00    +0.061 S 
ATOM     19  O   UNL     1       6.207   8.220   4.725  0.00  0.00    -0.153 OA
ATOM     20  O   UNL     1       4.086   6.961   5.069  0.00  0.00    -0.153 OA
BRANCH  18  25
ATOM     21  C   UNL     1       8.113   2.117   3.159  0.00  0.00    +0.044 C 
ATOM     22  C   UNL     1       7.391   3.410   3.441  0.00  0.00    -0.050 A 
ATOM     23  C   UNL     1       8.079   4.608   3.403  0.00  0.00    +0.005 A 
ATOM     24  C   UNL     1       7.418   5.794   3.662  0.00  0.00    +0.029 A 
ATOM     25  C   UNL     1       6.067   5.782   3.956  0.00  0.00    +0.105 A 
ATOM     26  C   UNL     1       5.380   4.583   3.998  0.00  0.00    +0.029 A 
ATOM     27  C   UNL     1       6.041   3.398   3.736  0.00  0.00    +0.005 A 
ENDBRANCH  18  25
ENDBRANCH  16  18
ENDBRANCH  15  16
ENDBRANCH   1  15
TORSDOF 6
