REMARK  Name = ZINC01878602
REMARK  12 active torsions:
REMARK  status: ('A' for Active; 'I' for Inactive)
REMARK    1  A    between atoms: C_1  and  C_2
REMARK    2  A    between atoms: C_2  and  C_3
REMARK    3  A    between atoms: C_2  and  C_4
REMARK    4  A    between atoms: C_2  and  C_5
REMARK    5  A    between atoms: C_8  and  C_11
REMARK    6  A    between atoms: C_11  and  N_12
REMARK    7  A    between atoms: C_20  and  N_21
REMARK    8  A    between atoms: C_22  and  C_23
REMARK    9  A    between atoms: C_26  and  O_35
REMARK   10  A    between atoms: C_29  and  O_33
REMARK   11  A    between atoms: O_33  and  C_34
REMARK   12  A    between atoms: O_35  and  C_36
REMARK                            x       y       z     vdW  Elec       q    Type
REMARK                         _______ _______ _______ _____ _____    ______ ____
ROOT
ATOM      1  N   UNL     1       2.363  -0.894  -5.803  0.00  0.00    -0.305 N 
ATOM      2  C   UNL     1       1.260  -0.934  -6.637  0.00  0.00    +0.068 A 
ATOM      3  C   UNL     1       0.127  -1.732  -6.695  0.00  0.00    +0.028 A 
ATOM      4  C   UNL     1      -0.816  -1.511  -7.678  0.00  0.00    +0.002 A 
ATOM      5  C   UNL     1      -0.638  -0.496  -8.608  0.00  0.00    +0.002 A 
ATOM      6  C   UNL     1       0.471   0.299  -8.567  0.00  0.00    +0.028 A 
ATOM      7  C   UNL     1       1.440   0.095  -7.579  0.00  0.00    +0.066 A 
ATOM      8  N   UNL     1       2.615   0.704  -7.289  0.00  0.00    -0.324 N 
ATOM      9  C   UNL     1       3.163   0.131  -6.240  0.00  0.00    +0.210 A 
ATOM     10  H   UNL     1       2.993   1.452  -7.778  0.00  0.00    +0.169 HD
ENDROOT
BRANCH   9  11
ATOM     11  N   UNL     1       4.339   0.493  -5.679  0.00  0.00    -0.221 NA
ATOM     12  C   UNL     1       4.974   1.553  -6.117  0.00  0.00    +0.123 C 
BRANCH  12  13
ATOM     13  C   UNL     1       6.188   2.009  -5.440  0.00  0.00    +0.005 A 
ATOM     14  C   UNL     1       6.758   1.252  -4.417  0.00  0.00    +0.014 A 
ATOM     15  C   UNL     1       7.905   1.683  -3.777  0.00  0.00    +0.047 A 
ATOM     16  C   UNL     1       8.525   2.866  -4.121  0.00  0.00    +0.128 A 
ATOM     17  C   UNL     1       7.998   3.678  -5.148  0.00  0.00    +0.028 A 
ATOM     18  C   UNL     1       6.829   3.266  -5.829  0.00  0.00    +0.036 A 
ATOM     19  C   UNL     1       6.305   4.068  -6.854  0.00  0.00    +0.128 A 
ATOM     20  C   UNL     1       6.942   5.245  -7.187  0.00  0.00    +0.046 A 
ATOM     21  C   UNL     1       8.095   5.641  -6.517  0.00  0.00    +0.004 A 
ATOM     22  C   UNL     1       8.617   4.886  -5.510  0.00  0.00    +0.012 A 
BRANCH  19  23
ATOM     23  O   UNL     1       5.180   3.688  -7.514  0.00  0.00    -0.494 OA
ATOM     24  C   UNL     1       4.769   4.498  -8.617  0.00  0.00    +0.277 C 
ENDBRANCH  19  23
BRANCH  16  25
ATOM     25  O   UNL     1       9.649   3.252  -3.468  0.00  0.00    -0.495 OA
ATOM     26  C   UNL     1      10.130   2.386  -2.438  0.00  0.00    +0.277 C 
ENDBRANCH  16  25
ENDBRANCH  12  13
ENDBRANCH   9  11
BRANCH   1  27
ATOM     27  C   UNL     1       2.624  -1.776  -4.663  0.00  0.00    +0.160 C 
BRANCH  27  31
ATOM     28  C   UNL     1       0.673  -0.234  -1.190  0.00  0.00    -0.042 A 
ATOM     29  C   UNL     1      -0.021  -1.042  -2.072  0.00  0.00    +0.004 A 
ATOM     30  C   UNL     1       0.610  -1.541  -3.196  0.00  0.00    +0.005 A 
ATOM     31  C   UNL     1       1.935  -1.232  -3.438  0.00  0.00    -0.028 A 
ATOM     32  C   UNL     1       2.629  -0.423  -2.558  0.00  0.00    +0.005 A 
ATOM     33  C   UNL     1       1.996   0.079  -1.436  0.00  0.00    +0.004 A 
BRANCH  28  35
ATOM     34  C   UNL     1       0.001   1.839  -0.007  0.00  0.00    +0.015 C 
ATOM     35  C   UNL     1      -0.016   0.310   0.035  0.00  0.00    -0.013 C 
ATOM     36  C   UNL     1       0.717  -0.174   1.288  0.00  0.00    +0.015 C 
ATOM     37  C   UNL     1      -1.463  -0.184   0.069  0.00  0.00    +0.015 C 
ENDBRANCH  28  35
ENDBRANCH  27  31
ENDBRANCH   1  27
TORSDOF 7
