REMARK  Name = ZINC14135695
REMARK  10 active torsions:
REMARK  status: ('A' for Active; 'I' for Inactive)
REMARK    1  A    between atoms: C_1  and  C_2
REMARK    2  A    between atoms: C_4  and  N_11
REMARK    3  A    between atoms: C_5  and  C_10
REMARK    4  A    between atoms: C_7  and  O_8
REMARK    5  A    between atoms: O_8  and  C_9
REMARK    6  A    between atoms: C_12  and  C_14
REMARK    7  A    between atoms: C_14  and  S_15
REMARK    8  A    between atoms: S_15  and  C_16
REMARK    9  A    between atoms: C_19  and  C_27
REMARK   10  A    between atoms: N_20  and  C_21
REMARK                            x       y       z     vdW  Elec       q    Type
REMARK                         _______ _______ _______ _____ _____    ______ ____
ROOT
ATOM      1  S   UNL     1       0.121  -2.444   2.522  0.00  0.00    -0.076 S 
ENDROOT
BRANCH   1   2
ATOM      2  C   UNL     1       0.833  -2.923   0.983  0.00  0.00    +0.197 A 
ATOM      3  N   UNL     1       1.039  -4.153   0.568  0.00  0.00    -0.122 NA
ATOM      4  N   UNL     1       1.579  -4.144  -0.598  0.00  0.00    -0.125 NA
ATOM      5  C   UNL     1       1.748  -2.905  -1.006  0.00  0.00    +0.205 A 
ATOM      6  N   UNL     1       1.271  -2.083  -0.006  0.00  0.00    -0.268 N 
BRANCH   6   7
ATOM      7  C   UNL     1       1.245  -0.681  -0.001  0.00  0.00    +0.051 A 
ATOM      8  C   UNL     1       0.031  -0.008   0.005  0.00  0.00    +0.026 A 
ATOM      9  C   UNL     1       0.009   1.373   0.011  0.00  0.00    +0.002 A 
ATOM     10  C   UNL     1       1.194   2.085   0.011  0.00  0.00    +0.000 A 
ATOM     11  C   UNL     1       2.405   1.417   0.006  0.00  0.00    +0.002 A 
ATOM     12  C   UNL     1       2.433   0.036   0.000  0.00  0.00    +0.026 A 
ENDBRANCH   6   7
BRANCH   5  13
ATOM     13  C   UNL     1       2.335  -2.477  -2.285  0.00  0.00    +0.172 A 
ATOM     14  C   UNL     1       3.062  -3.258  -3.133  0.00  0.00    +0.053 A 
ATOM     15  C   UNL     1       3.419  -2.446  -4.226  0.00  0.00    +0.042 A 
ATOM     16  C   UNL     1       2.907  -1.221  -3.993  0.00  0.00    +0.196 A 
ATOM     17  O   UNL     1       2.253  -1.243  -2.820  0.00  0.00    -0.460 OA
ENDBRANCH   5  13
ENDBRANCH   1   2
BRANCH   1  18
ATOM     18  C   UNL     1      -0.184  -4.074   3.248  0.00  0.00    +0.173 C 
BRANCH  18  20
ATOM     19  N   UNL     1      -1.126  -4.995   5.341  0.00  0.00    -0.285 N 
ATOM     20  C   UNL     1      -0.809  -3.909   4.609  0.00  0.00    +0.227 C 
ATOM     21  O   UNL     1      -1.027  -2.798   5.045  0.00  0.00    -0.275 OA
ATOM     22  H   UNL     1      -1.026  -5.882   4.961  0.00  0.00    +0.155 HD
BRANCH  19  26
ATOM     23  C   UNL     1      -1.392  -2.321   9.459  0.00  0.00    +0.047 C 
ATOM     24  C   UNL     1      -1.743  -3.556   8.670  0.00  0.00    -0.007 A 
ATOM     25  C   UNL     1      -1.276  -3.705   7.378  0.00  0.00    +0.030 A 
ATOM     26  C   UNL     1      -1.599  -4.843   6.651  0.00  0.00    +0.037 A 
ATOM     27  C   UNL     1      -2.396  -5.827   7.221  0.00  0.00    -0.026 A 
ATOM     28  C   UNL     1      -2.857  -5.679   8.514  0.00  0.00    +0.051 A 
ATOM     29  C   UNL     1      -2.534  -4.542   9.240  0.00  0.00    +0.123 A 
ATOM     30  C   UNL     1      -2.752  -7.060   6.430  0.00  0.00    +0.046 C 
BRANCH  29  31
ATOM     31  O   UNL     1      -2.994  -4.394  10.511  0.00  0.00    -0.495 OA
ATOM     32  C   UNL     1      -3.804  -5.449  11.035  0.00  0.00    +0.277 C 
ENDBRANCH  29  31
ENDBRANCH  19  26
ENDBRANCH  18  20
ENDBRANCH   1  18
TORSDOF 7
