REMARK  Name = ZINC63137216
REMARK  7 active torsions:
REMARK  status: ('A' for Active; 'I' for Inactive)
REMARK    1  A    between atoms: C_1  and  O_2
REMARK    2  A    between atoms: O_2  and  C_3
REMARK    3  A    between atoms: C_6  and  O_41
REMARK    4  A    between atoms: C_7  and  C_9
REMARK    5  A    between atoms: N_28  and  C_31
REMARK    6  A    between atoms: C_31  and  C_32
REMARK    7  A    between atoms: O_41  and  C_42
REMARK                            x       y       z     vdW  Elec       q    Type
REMARK                         _______ _______ _______ _____ _____    ______ ____
ROOT
ATOM      1  C   UNL     1      -2.535  -4.173   0.016  0.00  0.00    +0.137 C 
ATOM      2  C   UNL     1      -2.795  -4.681  -1.405  0.00  0.00    +0.131 C 
ATOM      3  C   UNL     1      -2.572  -6.188  -1.380  0.00  0.00    -0.034 C 
ATOM      4  C   UNL     1      -3.689  -6.741  -1.837  0.00  0.00    -0.001 A 
ATOM      5  C   UNL     1      -4.048  -8.142  -2.110  0.00  0.00    +0.010 A 
ATOM      6  C   UNL     1      -5.309  -8.358  -2.571  0.00  0.00    +0.001 A 
ATOM      7  C   UNL     1      -6.237  -7.334  -2.783  0.00  0.00    +0.002 A 
ATOM      8  C   UNL     1      -5.990  -6.018  -2.564  0.00  0.00    +0.026 A 
ATOM      9  C   UNL     1      -4.696  -5.664  -2.083  0.00  0.00    +0.043 A 
ATOM     10  N   UNL     1      -4.186  -4.477  -1.813  0.00  0.00    -0.375 N 
ATOM     11  C   UNL     1      -1.308  -6.808  -0.836  0.00  0.00    +0.065 C 
ATOM     12  C   UNL     1      -1.066  -6.173   0.545  0.00  0.00    +0.167 C 
ATOM     13  N   UNL     1      -1.237  -4.726   0.462  0.00  0.00    -0.279 N 
ATOM     14  C   UNL     1      -0.262  -3.864   0.771  0.00  0.00    +0.234 C 
ATOM     15  O   UNL     1      -0.497  -2.680   0.650  0.00  0.00    -0.274 OA
ATOM     16  C   UNL     1       1.095  -4.255   1.257  0.00  0.00    +0.204 C 
ATOM     17  N   UNL     1       1.244  -5.696   1.366  0.00  0.00    -0.287 N 
ATOM     18  C   UNL     1       0.285  -6.563   1.048  0.00  0.00    +0.237 C 
ATOM     19  O   UNL     1       0.522  -7.746   1.179  0.00  0.00    -0.274 OA
ATOM     20  H   UNL     1      -4.642  -3.622  -1.867  0.00  0.00    +0.160 HD
ENDROOT
BRANCH   1  25
ATOM     21  C   UNL     1      -2.114  -0.601  -1.144  0.00  0.00    +0.121 A 
ATOM     22  C   UNL     1      -2.371   0.102   0.024  0.00  0.00    +0.049 A 
ATOM     23  C   UNL     1      -2.679  -0.579   1.186  0.00  0.00    +0.049 A 
ATOM     24  C   UNL     1      -2.733  -1.965   1.185  0.00  0.00    +0.125 A 
ATOM     25  C   UNL     1      -2.477  -2.667   0.017  0.00  0.00    +0.020 A 
ATOM     26  C   UNL     1      -2.174  -1.987  -1.146  0.00  0.00    +0.054 A 
BRANCH  21  28
ATOM     27  C   UNL     1      -1.767   1.495  -2.212  0.00  0.00    +0.277 C 
ATOM     28  O   UNL     1      -1.810   0.068  -2.288  0.00  0.00    -0.495 OA
ENDBRANCH  21  28
BRANCH  24  29
ATOM     29  O   UNL     1      -3.036  -2.634   2.329  0.00  0.00    -0.495 OA
ATOM     30  C   UNL     1      -3.288  -1.847   3.494  0.00  0.00    +0.277 C 
ENDBRANCH  24  29
ENDBRANCH   1  25
BRANCH  17  31
ATOM     31  C   UNL     1       2.522  -6.225   1.851  0.00  0.00    +0.143 C 
BRANCH  31  32
ATOM     32  C   UNL     1       2.476  -6.355   3.351  0.00  0.00    -0.026 A 
ATOM     33  C   UNL     1       2.869  -5.295   4.148  0.00  0.00    +0.009 A 
ATOM     34  C   UNL     1       2.828  -5.410   5.525  0.00  0.00    +0.050 A 
ATOM     35  C   UNL     1       2.392  -6.587   6.110  0.00  0.00    +0.166 A 
ATOM     36  C   UNL     1       1.996  -7.654   5.308  0.00  0.00    +0.167 A 
ATOM     37  C   UNL     1       2.034  -7.531   3.928  0.00  0.00    +0.054 A 
ATOM     38  O   UNL     1       1.614  -8.688   6.113  0.00  0.00    -0.453 OA
ATOM     39  C   UNL     1       2.165  -8.389   7.409  0.00  0.00    +0.466 C 
ATOM     40  O   UNL     1       2.258  -6.952   7.419  0.00  0.00    -0.453 OA
ENDBRANCH  31  32
ENDBRANCH  17  31
TORSDOF 5
