REMARK  Name = ZINC63659387
REMARK  11 active torsions:
REMARK  status: ('A' for Active; 'I' for Inactive)
REMARK    1  A    between atoms: C_1  and  C_2
REMARK    2  A    between atoms: C_4  and  C_14
REMARK    3  A    between atoms: C_7  and  O_12
REMARK    4  A    between atoms: O_12  and  C_13
REMARK    5  A    between atoms: C_14  and  C_15
REMARK    6  A    between atoms: C_15  and  N_16
REMARK    7  A    between atoms: N_16  and  C_17
REMARK    8  A    between atoms: N_16  and  C_23
REMARK    9  A    between atoms: C_17  and  C_18
REMARK   10  A    between atoms: C_23  and  N_25
REMARK   11  A    between atoms: N_25  and  C_26
REMARK                            x       y       z     vdW  Elec       q    Type
REMARK                         _______ _______ _______ _____ _____    ______ ____
ROOT
ATOM      1  N   UNL     1       1.227  -0.825  -5.104  0.00  0.00    -0.305 N 
ENDROOT
BRANCH   1   2
ATOM      2  C   UNL     1       0.397  -1.694  -5.714  0.00  0.00    +0.138 C 
ATOM      3  S   UNL     1       0.053  -3.204  -4.986  0.00  0.00    -0.018 S 
BRANCH   2   4
ATOM      4  N   UNL     1      -0.163  -1.374  -6.898  0.00  0.00    -0.297 N 
ATOM      5  H   UNL     1      -0.033  -0.489  -7.272  0.00  0.00    +0.154 HD
BRANCH   4   6
ATOM      6  C   UNL     1      -0.931  -2.319  -7.587  0.00  0.00    +0.034 A 
ATOM      7  C   UNL     1      -2.113  -1.936  -8.207  0.00  0.00    +0.023 A 
ATOM      8  C   UNL     1      -2.869  -2.870  -8.887  0.00  0.00    +0.003 A 
ATOM      9  C   UNL     1      -2.451  -4.187  -8.950  0.00  0.00    +0.020 A 
ATOM     10  C   UNL     1      -1.274  -4.572  -8.333  0.00  0.00    +0.043 A 
ATOM     11  C   UNL     1      -0.510  -3.640  -7.657  0.00  0.00    +0.043 A 
ATOM     12 CL   UNL     1      -0.753  -6.226  -8.414  0.00  0.00    -0.083 Cl
ENDBRANCH   4   6
ENDBRANCH   2   4
ENDBRANCH   1   2
BRANCH   1  13
ATOM     13  C   UNL     1       1.835  -1.173  -3.818  0.00  0.00    +0.111 C 
BRANCH  13  14
ATOM     14  C   UNL     1       0.924  -0.706  -2.680  0.00  0.00    +0.052 C 
BRANCH  14  17
ATOM     15  C   UNL     1       0.824   0.721   0.229  0.00  0.00    +0.035 C 
ATOM     16  C   UNL     1       0.986  -0.786   0.019  0.00  0.00    +0.103 C 
ATOM     17  C   UNL     1       1.549  -1.063  -1.357  0.00  0.00    -0.037 C 
ATOM     18  C   UNL     1       2.727  -1.697  -1.159  0.00  0.00    +0.003 A 
ATOM     19  C   UNL     1       3.741  -2.224  -2.080  0.00  0.00    +0.055 A 
ATOM     20  C   UNL     1       4.847  -2.825  -1.580  0.00  0.00    +0.121 A 
ATOM     21  C   UNL     1       5.066  -2.966  -0.199  0.00  0.00    +0.047 A 
ATOM     22  C   UNL     1       4.191  -2.515   0.726  0.00  0.00    +0.029 A 
ATOM     23  C   UNL     1       2.958  -1.847   0.296  0.00  0.00    +0.043 A 
ATOM     24  N   UNL     1       1.962  -1.327   0.972  0.00  0.00    -0.378 N 
ATOM     25  H   UNL     1       1.884  -1.303   1.938  0.00  0.00    +0.160 HD
BRANCH  20  26
ATOM     26  O   UNL     1       5.778  -3.308  -2.445  0.00  0.00    -0.495 OA
ATOM     27  C   UNL     1       6.929  -3.935  -1.875  0.00  0.00    +0.277 C 
ENDBRANCH  20  26
ENDBRANCH  14  17
ENDBRANCH  13  14
ENDBRANCH   1  13
BRANCH   1  28
ATOM     28  C   UNL     1       1.521   0.468  -5.728  0.00  0.00    +0.181 C 
BRANCH  28  29
ATOM     29  C   UNL     1       2.727   0.332  -6.621  0.00  0.00    +0.122 A 
ATOM     30  C   UNL     1       2.707   0.009  -7.926  0.00  0.00    +0.046 A 
ATOM     31  C   UNL     1       4.051  -0.006  -8.365  0.00  0.00    +0.041 A 
ATOM     32  C   UNL     1       4.812   0.309  -7.302  0.00  0.00    +0.195 A 
ATOM     33  O   UNL     1       4.004   0.518  -6.249  0.00  0.00    -0.466 OA
ENDBRANCH  28  29
ENDBRANCH   1  28
TORSDOF 9
