REMARK  Name = ZINC12864243
REMARK  16 active torsions:
REMARK  status: ('A' for Active; 'I' for Inactive)
REMARK    1  A    between atoms: C_1  and  C_2
REMARK    2  A    between atoms: C_2  and  C_3
REMARK    3  A    between atoms: C_3  and  C_5
REMARK    4  A    between atoms: C_3  and  C_6
REMARK    5  A    between atoms: C_6  and  C_8
REMARK    6  A    between atoms: C_6  and  N_26
REMARK    7  A    between atoms: C_13  and  C_16
REMARK    8  A    between atoms: N_18  and  C_19
REMARK    9  A    between atoms: C_19  and  C_20
REMARK   10  A    between atoms: N_22  and  C_23
REMARK   11  A    between atoms: C_23  and  C_24
REMARK   12  A    between atoms: C_27  and  O_29
REMARK   13  A    between atoms: O_29  and  C_30
REMARK   14  A    between atoms: C_30  and  C_31
REMARK   15  A    between atoms: C_30  and  C_32
REMARK   16  A    between atoms: C_30  and  C_33
REMARK                            x       y       z     vdW  Elec       q    Type
REMARK                         _______ _______ _______ _____ _____    ______ ____
ROOT
ATOM      1  C   UNL     1      -3.535   1.966  -0.586  0.00  0.00    +0.236 C 
ATOM      2  O   UNL     1      -3.337   3.128  -0.867  0.00  0.00    -0.274 OA
ATOM      3  N   UNL     1      -4.748   1.417  -0.801  0.00  0.00    -0.300 N 
ATOM      4  C   UNL     1      -5.034   0.042  -0.372  0.00  0.00    +0.108 C 
ATOM      5  C   UNL     1      -5.566  -0.751  -1.565  0.00  0.00    +0.032 C 
ATOM      6  C   UNL     1      -6.766  -0.017  -2.168  0.00  0.00    +0.078 C 
ATOM      7  C   UNL     1      -6.327   1.364  -2.660  0.00  0.00    +0.032 C 
ATOM      8  C   UNL     1      -5.806   2.182  -1.475  0.00  0.00    +0.108 C 
ENDROOT
BRANCH   6   9
ATOM      9  C   UNL     1      -7.311  -0.813  -3.326  0.00  0.00    +0.217 C 
ATOM     10  O   UNL     1      -7.346  -0.325  -4.435  0.00  0.00    -0.276 OA
ATOM     11  N   UNL     1      -7.761  -2.068  -3.128  0.00  0.00    -0.306 N 
ATOM     12  H   UNL     1      -7.734  -2.459  -2.241  0.00  0.00    +0.149 HD
BRANCH  11  13
ATOM     13  C   UNL     1      -8.291  -2.842  -4.253  0.00  0.00    +0.200 C 
BRANCH  13  14
ATOM     14  C   UNL     1      -8.723  -4.202  -3.768  0.00  0.00    +0.231 C 
ATOM     15  O   UNL     1      -8.601  -4.496  -2.598  0.00  0.00    -0.274 OA
ATOM     16  N   UNL     1      -9.246  -5.092  -4.636  0.00  0.00    -0.303 N 
ATOM     17  H   UNL     1      -9.344  -4.857  -5.571  0.00  0.00    +0.149 HD
BRANCH  16  18
ATOM     18  C   UNL     1      -9.666  -6.414  -4.164  0.00  0.00    +0.229 C 
BRANCH  18  19
ATOM     19  C   UNL     1     -10.212  -7.210  -5.322  0.00  0.00    +0.373 C 
ATOM     20  O   UNL     1     -10.246  -6.723  -6.427  0.00  0.00    -0.245 OA
ATOM     21  O   UNL     1     -10.659  -8.460  -5.125  0.00  0.00    -0.245 OA
ENDBRANCH  18  19
ENDBRANCH  16  18
ENDBRANCH  13  14
ENDBRANCH  11  13
ENDBRANCH   6   9
BRANCH   1  22
ATOM     22  C   UNL     1      -2.426   1.133   0.004  0.00  0.00    +0.165 C 
BRANCH  22  23
ATOM     23  N   UNL     1      -1.141   1.575  -0.543  0.00  0.00    -0.270 N 
ATOM     24  C   UNL     1      -0.098   0.722  -0.585  0.00  0.00    +0.401 C 
ATOM     25  O   UNL     1      -0.224  -0.413  -0.170  0.00  0.00    -0.226 OA
ATOM     26  H   UNL     1      -1.040   2.481  -0.874  0.00  0.00    +0.153 HD
BRANCH  24  27
ATOM     27  O   UNL     1       1.082   1.126  -1.092  0.00  0.00    -0.445 OA
BRANCH  27  28
ATOM     28  C   UNL     1       2.159   0.153  -1.112  0.00  0.00    +0.107 C 
ATOM     29  C   UNL     1       1.741  -1.054  -1.954  0.00  0.00    +0.055 C 
ATOM     30  C   UNL     1       3.411   0.789  -1.719  0.00  0.00    +0.055 C 
ATOM     31  C   UNL     1       2.461  -0.303   0.318  0.00  0.00    +0.055 C 
ENDBRANCH  27  28
ENDBRANCH  24  27
ENDBRANCH  22  23
BRANCH  22  32
ATOM     32  C   UNL     1      -2.418   1.299   1.525  0.00  0.00    +0.015 C 
ATOM     33  C   UNL     1      -3.701   0.707   2.110  0.00  0.00    +0.010 C 
BRANCH  32  35
ATOM     34  C   UNL     1      -2.203   2.947   3.391  0.00  0.00    +0.004 C 
ATOM     35  C   UNL     1      -2.337   2.787   1.875  0.00  0.00    +0.002 C 
ENDBRANCH  32  35
ENDBRANCH  22  32
ENDBRANCH   1  22
TORSDOF 11
