REMARK  Name = ZINC14529594
REMARK  10 active torsions:
REMARK  status: ('A' for Active; 'I' for Inactive)
REMARK    1  A    between atoms: C_1  and  C_2
REMARK    2  A    between atoms: C_3  and  C_16
REMARK    3  A    between atoms: C_4  and  C_15
REMARK    4  A    between atoms: C_9  and  C_11
REMARK    5  A    between atoms: C_16  and  C_17
REMARK    6  A    between atoms: C_17  and  C_18
REMARK    7  A    between atoms: C_23  and  C_26
REMARK    8  A    between atoms: C_26  and  N_62
REMARK    9  A    between atoms: C_28  and  C_35
REMARK   10  A    between atoms: C_31  and  C_34
REMARK                            x       y       z     vdW  Elec       q    Type
REMARK                         _______ _______ _______ _____ _____    ______ ____
ROOT
ATOM      1  C   UNL     1      -1.412  -0.526   0.013  0.00  0.00    +0.219 C 
ATOM      2  O   UNL     1      -2.344   0.250   0.026  0.00  0.00    -0.275 OA
ATOM      3  N   UNL     1      -1.640  -1.854   0.008  0.00  0.00    -0.265 N 
ATOM      4  C   UNL     1      -2.944  -2.335   0.018  0.00  0.00    +0.164 A 
ATOM      5  N   UNL     1      -3.366  -3.584   0.015  0.00  0.00    -0.231 NA
ATOM      6  C   UNL     1      -4.654  -3.871   0.026  0.00  0.00    +0.034 A 
ATOM      7  C   UNL     1      -5.543  -2.848   0.040  0.00  0.00    +0.070 A 
ATOM      8  S   UNL     1      -4.435  -1.445   0.044  0.00  0.00    -0.060 S 
ATOM      9  H   UNL     1      -0.894  -2.474  -0.003  0.00  0.00    +0.157 HD
ENDROOT
BRANCH   1  10
ATOM     10  C   UNL     1       0.002  -0.004   0.002  0.00  0.00    +0.101 C 
BRANCH  10  11
ATOM     11  C   UNL     1      -0.019   1.526   0.010  0.00  0.00    +0.048 C 
BRANCH  11  14
ATOM     12  C   UNL     1       1.377   2.031   2.516  0.00  0.00    +0.066 C 
ATOM     13  C   UNL     1       2.069   2.292   1.203  0.00  0.00    +0.047 A 
ATOM     14  C   UNL     1       1.395   2.047  -0.000  0.00  0.00    -0.005 A 
ATOM     15  C   UNL     1       2.028   2.291  -1.176  0.00  0.00    +0.048 A 
ATOM     16  N   UNL     1       3.304   2.762  -1.154  0.00  0.00    -0.200 N 
ATOM     17  C   UNL     1       3.935   2.985   0.038  0.00  0.00    +0.254 A 
ATOM     18  N   UNL     1       3.303   2.742   1.192  0.00  0.00    -0.216 NA
ATOM     19  N   UNL     1       5.152   3.437  -0.241  0.00  0.00    -0.186 NA
ATOM     20  C   UNL     1       5.314   3.508  -1.555  0.00  0.00    +0.257 A 
ATOM     21  N   UNL     1       4.219   3.109  -2.156  0.00  0.00    -0.139 NA
ATOM     22  C   UNL     1       1.327   2.045  -2.487  0.00  0.00    +0.066 C 
BRANCH  20  23
ATOM     23  C   UNL     1       6.566   3.977  -2.252  0.00  0.00    +0.454 C 
ATOM     24  F   UNL     1       6.660   5.369  -2.154  0.00  0.00    -0.163 F 
ATOM     25  F   UNL     1       7.683   3.390  -1.649  0.00  0.00    -0.163 F 
ATOM     26  F   UNL     1       6.515   3.606  -3.600  0.00  0.00    -0.163 F 
ENDBRANCH  20  23
ENDBRANCH  11  14
ENDBRANCH  10  11
ENDBRANCH   1  10
BRANCH   6  27
ATOM     27  C   UNL     1      -5.125  -5.302   0.022  0.00  0.00    -0.022 C 
BRANCH  27  35
ATOM     28  C   UNL     1      -6.199  -5.085  -2.137  0.00  0.00    -0.075 C 
ATOM     29  C   UNL     1      -6.126  -5.522  -3.601  0.00  0.00    -0.031 C 
ATOM     30  C   UNL     1      -6.352  -7.034  -3.690  0.00  0.00    +0.003 C 
ATOM     31  C   UNL     1      -5.303  -7.750  -2.834  0.00  0.00    -0.031 C 
ATOM     32  C   UNL     1      -5.401  -7.248  -1.391  0.00  0.00    -0.075 C 
ATOM     33  C   UNL     1      -3.907  -7.455  -3.384  0.00  0.00    +0.005 C 
ATOM     34  C   UNL     1      -7.206  -4.796  -4.406  0.00  0.00    +0.005 C 
ATOM     35  N   UNL     1      -5.149  -5.791  -1.372  0.00  0.00    +0.384 N 
ATOM     36  H   UNL     1      -4.238  -5.605  -1.807  0.00  0.00    -0.081 HD
ENDBRANCH  27  35
ENDBRANCH   6  27
TORSDOF 6
