REMARK  Name = ZINC11995526
REMARK  10 active torsions:
REMARK  status: ('A' for Active; 'I' for Inactive)
REMARK    1  A    between atoms: C_1  and  C_2
REMARK    2  A    between atoms: C_7  and  C_9
REMARK    3  A    between atoms: C_7  and  C_10
REMARK    4  A    between atoms: C_13  and  C_15
REMARK    5  A    between atoms: C_17  and  N_31
REMARK    6  A    between atoms: N_21  and  C_30
REMARK    7  A    between atoms: C_22  and  C_24
REMARK    8  A    between atoms: C_32  and  C_34
REMARK    9  A    between atoms: C_34  and  O_35
REMARK   10  A    between atoms: O_35  and  C_36
REMARK                            x       y       z     vdW  Elec       q    Type
REMARK                         _______ _______ _______ _____ _____    ______ ____
ROOT
ATOM      1  C   UNL     1       1.811  -2.387  -3.584  0.00  0.00    +0.064 A 
ATOM      2  C   UNL     1       2.606  -1.244  -3.513  0.00  0.00    +0.038 A 
ATOM      3  C   UNL     1       3.302  -0.805  -4.632  0.00  0.00    +0.036 A 
ATOM      4  C   UNL     1       3.218  -1.494  -5.829  0.00  0.00    +0.053 A 
ATOM      5  C   UNL     1       2.426  -2.643  -5.921  0.00  0.00    +0.092 A 
ATOM      6  C   UNL     1       1.724  -3.095  -4.790  0.00  0.00    +0.081 A 
ATOM      7  N   UNL     1       1.052  -4.231  -5.182  0.00  0.00    -0.326 N 
ATOM      8  C   UNL     1       1.353  -4.447  -6.500  0.00  0.00    +0.142 A 
ATOM      9  N   UNL     1       2.154  -3.504  -6.932  0.00  0.00    -0.227 NA
ATOM     10  C   UNL     1       0.179  -5.056  -4.344  0.00  0.00    +0.151 C 
ENDROOT
BRANCH   1  22
ATOM     11  C   UNL     1       4.574  -2.324   1.077  0.00  0.00    +0.013 C 
ATOM     12  C   UNL     1       3.408  -3.140   0.496  0.00  0.00    -0.014 C 
ATOM     13  C   UNL     1       2.047  -2.770   1.147  0.00  0.00    +0.030 C 
ATOM     14  C   UNL     1       1.085  -3.340   0.075  0.00  0.00    +0.077 C 
ATOM     15  C   UNL     1       1.074  -4.858   0.238  0.00  0.00    +0.029 C 
ATOM     16  C   UNL     1       2.450  -5.494   0.160  0.00  0.00    -0.033 C 
ATOM     17  C   UNL     1       3.601  -4.646   0.667  0.00  0.00    +0.014 C 
ATOM     18  C   UNL     1       2.729  -5.957  -1.278  0.00  0.00    +0.011 C 
ATOM     19  C   UNL     1       2.409  -6.776   1.030  0.00  0.00    +0.011 C 
ATOM     20  N   UNL     1       1.711  -2.996  -1.217  0.00  0.00    -0.294 N 
ATOM     21  C   UNL     1       3.155  -2.824  -0.995  0.00  0.00    +0.115 C 
ATOM     22  C   UNL     1       1.072  -2.852  -2.395  0.00  0.00    +0.249 C 
ATOM     23  O   UNL     1      -0.115  -3.106  -2.478  0.00  0.00    -0.270 OA
ENDBRANCH   1  22
BRANCH   8  24
ATOM     24  C   UNL     1       0.839  -5.568  -7.318  0.00  0.00    +0.020 A 
ATOM     25  C   UNL     1      -0.332  -6.243  -6.957  0.00  0.00    +0.031 A 
ATOM     26  C   UNL     1      -0.776  -7.283  -7.748  0.00  0.00    +0.111 A 
ATOM     27  N   UNL     1      -0.113  -7.641  -8.831  0.00  0.00    -0.263 NA
ATOM     28  C   UNL     1       0.995  -7.031  -9.207  0.00  0.00    +0.111 A 
ATOM     29  C   UNL     1       1.506  -5.977  -8.477  0.00  0.00    +0.031 A 
ENDBRANCH   8  24
BRANCH   3  30
ATOM     30  N   UNL     1       4.097   0.346  -4.548  0.00  0.00    -0.284 N 
ATOM     31  C   UNL     1       5.258   0.414  -5.228  0.00  0.00    +0.243 C 
ATOM     32  O   UNL     1       5.574  -0.484  -5.980  0.00  0.00    -0.273 OA
ATOM     33  H   UNL     1       3.811   1.094  -4.000  0.00  0.00    +0.155 HD
BRANCH  31  34
ATOM     34  C   UNL     1       6.164   1.606  -5.055  0.00  0.00    +0.255 C 
BRANCH  34  35
ATOM     35  O   UNL     1       7.323   1.446  -5.875  0.00  0.00    -0.374 OA
ATOM     36  C   UNL     1       8.252   2.528  -5.785  0.00  0.00    +0.194 C 
ENDBRANCH  34  35
ENDBRANCH  31  34
ENDBRANCH   3  30
TORSDOF 5
