REMARK  Name = ZINC40992914
REMARK  11 active torsions:
REMARK  status: ('A' for Active; 'I' for Inactive)
REMARK    1  A    between atoms: C_1  and  C_2
REMARK    2  A    between atoms: C_6  and  N_9
REMARK    3  A    between atoms: C_7  and  C_8
REMARK    4  A    between atoms: N_9  and  S_24
REMARK    5  A    between atoms: C_10  and  C_12
REMARK    6  A    between atoms: C_12  and  O_13
REMARK    7  A    between atoms: O_13  and  C_14
REMARK    8  A    between atoms: C_17  and  C_21
REMARK    9  A    between atoms: C_21  and  C_22
REMARK   10  A    between atoms: C_21  and  C_23
REMARK   11  A    between atoms: S_24  and  C_27
REMARK                            x       y       z     vdW  Elec       q    Type
REMARK                         _______ _______ _______ _____ _____    ______ ____
ROOT
ATOM      1  N   UNL     1       0.052  -2.797   2.393  0.00  0.00    -0.136 N 
ATOM      2  C   UNL     1       1.223  -3.210   2.917  0.00  0.00    +0.277 C 
ATOM      3  O   UNL     1       2.264  -2.968   2.343  0.00  0.00    -0.270 OA
ENDROOT
BRANCH   1   9
ATOM      4  C   UNL     1      -0.018   1.503   0.010  0.00  0.00    +0.044 C 
ATOM      5  C   UNL     1       0.002  -0.004   0.002  0.00  0.00    -0.046 A 
ATOM      6  C   UNL     1       0.006  -0.688  -1.200  0.00  0.00    +0.004 A 
ATOM      7  C   UNL     1       0.025  -2.071  -1.212  0.00  0.00    +0.002 A 
ATOM      8  C   UNL     1       0.041  -2.773  -0.022  0.00  0.00    +0.025 A 
ATOM      9  C   UNL     1       0.037  -2.089   1.186  0.00  0.00    +0.063 A 
ATOM     10  C   UNL     1       0.023  -0.700   1.194  0.00  0.00    -0.024 A 
ATOM     11  C   UNL     1       0.025   0.046   2.504  0.00  0.00    +0.046 C 
ENDBRANCH   1   9
BRANCH   1  12
ATOM     12  S   UNL     1      -1.369  -3.128   3.176  0.00  0.00    +0.081 S 
ATOM     13  O   UNL     1      -1.042  -3.320   4.546  0.00  0.00    -0.149 OA
ATOM     14  O   UNL     1      -2.307  -2.151   2.747  0.00  0.00    -0.149 OA
BRANCH  12  15
ATOM     15  C   UNL     1      -1.946  -4.680   2.575  0.00  0.00    +0.109 A 
ATOM     16  C   UNL     1      -2.777  -4.728   1.470  0.00  0.00    +0.029 A 
ATOM     17  C   UNL     1      -3.230  -5.945   0.998  0.00  0.00    +0.002 A 
ATOM     18  C   UNL     1      -2.853  -7.115   1.630  0.00  0.00    +0.000 A 
ATOM     19  C   UNL     1      -2.022  -7.068   2.734  0.00  0.00    +0.002 A 
ATOM     20  C   UNL     1      -1.565  -5.851   3.204  0.00  0.00    +0.029 A 
ENDBRANCH  12  15
ENDBRANCH   1  12
BRANCH   2  21
ATOM     21  C   UNL     1       1.239  -3.973   4.216  0.00  0.00    +0.326 C 
BRANCH  21  22
ATOM     22  O   UNL     1       2.588  -4.298   4.561  0.00  0.00    -0.482 OA
BRANCH  22  23
ATOM     23  C   UNL     1       2.780  -4.991   5.715  0.00  0.00    +0.135 A 
ATOM     24  C   UNL     1       1.693  -5.356   6.495  0.00  0.00    +0.047 A 
ATOM     25  C   UNL     1       1.891  -6.061   7.667  0.00  0.00    +0.007 A 
ATOM     26  C   UNL     1       3.171  -6.402   8.062  0.00  0.00    -0.044 A 
ATOM     27  C   UNL     1       4.257  -6.039   7.287  0.00  0.00    +0.022 A 
ATOM     28  C   UNL     1       4.064  -5.339   6.111  0.00  0.00    +0.060 A 
ATOM     29 BR   UNL     1       5.548  -4.850   5.046  0.00  0.00    -0.047 Br
BRANCH  26  30
ATOM     30  C   UNL     1       3.384  -7.170   9.341  0.00  0.00    +0.013 C 
ATOM     31  C   UNL     1       4.076  -8.498   9.030  0.00  0.00    +0.012 C 
ATOM     32  C   UNL     1       4.259  -6.348  10.290  0.00  0.00    +0.012 C 
ENDBRANCH  26  30
ENDBRANCH  22  23
ENDBRANCH  21  22
ENDBRANCH   2  21
TORSDOF 7
