REMARK  Name = ZINC12521020
REMARK  13 active torsions:
REMARK  status: ('A' for Active; 'I' for Inactive)
REMARK    1  A    between atoms: C_1  and  C_2
REMARK    2  A    between atoms: C_5  and  S_22
REMARK    3  A    between atoms: C_7  and  C_8
REMARK    4  A    between atoms: N_10  and  C_11
REMARK    5  A    between atoms: C_11  and  C_12
REMARK    6  A    between atoms: C_12  and  C_14
REMARK    7  A    between atoms: C_12  and  N_19
REMARK    8  A    between atoms: N_19  and  C_20
REMARK    9  A    between atoms: N_19  and  C_21
REMARK   10  A    between atoms: S_22  and  N_25
REMARK   11  A    between atoms: N_25  and  C_26
REMARK   12  A    between atoms: C_31  and  O_32
REMARK   13  A    between atoms: O_32  and  C_33
REMARK                            x       y       z     vdW  Elec       q    Type
REMARK                         _______ _______ _______ _____ _____    ______ ____
ROOT
ATOM      1  C   UNL     1      -0.929   0.550   0.742  0.00  0.00    +0.044 C 
ATOM      2  C   UNL     1      -0.190  -0.756   0.872  0.00  0.00    -0.038 A 
ATOM      3  C   UNL     1       0.095  -1.505  -0.251  0.00  0.00    +0.006 A 
ATOM      4  C   UNL     1       0.773  -2.704  -0.133  0.00  0.00    +0.029 A 
ATOM      5  C   UNL     1       1.171  -3.162   1.111  0.00  0.00    +0.109 A 
ATOM      6  C   UNL     1       0.893  -2.423   2.242  0.00  0.00    +0.042 A 
ATOM      7  C   UNL     1       0.214  -1.209   2.129  0.00  0.00    +0.041 A 
ENDROOT
BRANCH   7   8
ATOM      8  C   UNL     1      -0.083  -0.410   3.337  0.00  0.00    +0.244 C 
ATOM      9  O   UNL     1      -0.583   0.693   3.228  0.00  0.00    -0.270 OA
ATOM     10  N   UNL     1       0.202  -0.903   4.558  0.00  0.00    -0.312 N 
ATOM     11  H   UNL     1       0.523  -1.813   4.651  0.00  0.00    +0.149 HD
BRANCH  10  12
ATOM     12  C   UNL     1       0.026  -0.064   5.747  0.00  0.00    +0.097 C 
BRANCH  12  13
ATOM     13  C   UNL     1       0.493  -0.830   6.986  0.00  0.00    +0.016 C 
BRANCH  13  14
ATOM     14  C   UNL     1      -0.433  -1.993   7.236  0.00  0.00    +0.093 A 
ATOM     15  C   UNL     1      -0.193  -3.275   6.904  0.00  0.00    +0.043 A 
ATOM     16  C   UNL     1      -1.319  -4.022   7.320  0.00  0.00    +0.041 A 
ATOM     17  C   UNL     1      -2.178  -3.153   7.882  0.00  0.00    +0.195 A 
ATOM     18  O   UNL     1      -1.634  -1.927   7.833  0.00  0.00    -0.469 OA
ENDBRANCH  13  14
BRANCH  13  19
ATOM     19  N   UNL     1       0.479   0.066   8.150  0.00  0.00    +0.384 N 
ATOM     20  C   UNL     1       0.924  -0.671   9.340  0.00  0.00    -0.096 C 
ATOM     21  C   UNL     1       1.384   1.197   7.907  0.00  0.00    -0.096 C 
ATOM     22  H   UNL     1      -0.458   0.410   8.298  0.00  0.00    -0.082 HD
ENDBRANCH  13  19
ENDBRANCH  12  13
ENDBRANCH  10  12
ENDBRANCH   7   8
BRANCH   5  23
ATOM     23  S   UNL     1       2.034  -4.692   1.250  0.00  0.00    +0.072 S 
ATOM     24  O   UNL     1       1.811  -5.166   2.571  0.00  0.00    -0.150 OA
ATOM     25  O   UNL     1       1.696  -5.455   0.100  0.00  0.00    -0.150 OA
BRANCH  23  26
ATOM     26  N   UNL     1       3.651  -4.354   1.135  0.00  0.00    -0.213 N 
ATOM     27  H   UNL     1       4.176  -4.736   0.414  0.00  0.00    +0.174 HD
BRANCH  26  28
ATOM     28  C   UNL     1       4.260  -3.519   2.079  0.00  0.00    +0.090 A 
ATOM     29  C   UNL     1       3.850  -3.551   3.404  0.00  0.00    +0.028 A 
ATOM     30  C   UNL     1       4.453  -2.725   4.333  0.00  0.00    +0.002 A 
ATOM     31  C   UNL     1       5.465  -1.867   3.947  0.00  0.00    +0.004 A 
ATOM     32  C   UNL     1       5.880  -1.829   2.628  0.00  0.00    +0.047 A 
ATOM     33  C   UNL     1       5.284  -2.657   1.691  0.00  0.00    +0.142 A 
BRANCH  33  34
ATOM     34  O   UNL     1       5.694  -2.626   0.395  0.00  0.00    -0.493 OA
ATOM     35  C   UNL     1       6.749  -1.718   0.070  0.00  0.00    +0.277 C 
ENDBRANCH  33  34
ENDBRANCH  26  28
ENDBRANCH  23  26
ENDBRANCH   5  23
TORSDOF 9
