REMARK  Name = ZINC33489666
REMARK  9 active torsions:
REMARK  status: ('A' for Active; 'I' for Inactive)
REMARK    1  A    between atoms: C_1  and  C_2
REMARK    2  A    between atoms: C_2  and  C_3
REMARK    3  A    between atoms: C_3  and  C_4
REMARK    4  A    between atoms: C_4  and  C_5
REMARK    5  A    between atoms: C_5  and  O_6
REMARK    6  A    between atoms: O_6  and  C_7
REMARK    7  A    between atoms: C_11  and  C_13
REMARK    8  A    between atoms: C_15  and  C_31
REMARK    9  A    between atoms: C_31  and  C_33
REMARK                            x       y       z     vdW  Elec       q    Type
REMARK                         _______ _______ _______ _____ _____    ______ ____
ROOT
ATOM      1  C   UNL     1       4.158  -1.423  -0.085  0.00  0.00    +0.152 C 
ATOM      2  C   UNL     1       2.976  -2.364  -0.075  0.00  0.00    +0.077 C 
ATOM      3  C   UNL     1       3.475  -3.618  -0.168  0.00  0.00    +0.250 C 
ATOM      4  C   UNL     1       4.947  -3.551  -0.249  0.00  0.00    +0.293 C 
ATOM      5  O   UNL     1       5.684  -4.512  -0.345  0.00  0.00    -0.266 OA
ATOM      6  N   UNL     1       5.352  -2.269  -0.198  0.00  0.00    -0.232 N 
ATOM      7  C   UNL     1       6.663  -1.827  -0.244  0.00  0.00    +0.169 A 
ATOM      8  N   UNL     1       7.118  -0.597  -0.204  0.00  0.00    -0.224 NA
ATOM      9  C   UNL     1       8.437  -0.309  -0.253  0.00  0.00    +0.080 A 
ATOM     10  C   UNL     1       9.055   0.963  -0.214  0.00  0.00    +0.032 A 
ATOM     11  C   UNL     1      10.418   1.082  -0.282  0.00  0.00    +0.040 A 
ATOM     12  C   UNL     1      11.239  -0.034  -0.391  0.00  0.00    +0.125 A 
ATOM     13  C   UNL     1      10.668  -1.294  -0.431  0.00  0.00    +0.055 A 
ATOM     14  C   UNL     1       9.303  -1.421  -0.364  0.00  0.00    +0.043 A 
ATOM     15  S   UNL     1       8.165  -2.785  -0.380  0.00  0.00    -0.052 S 
ATOM     16  F   UNL     1      12.581   0.110  -0.456  0.00  0.00    -0.205 F 
ATOM     17  O   UNL     1       2.740  -4.755  -0.186  0.00  0.00    -0.282 OA
ENDROOT
BRANCH   1  22
ATOM     18  C   UNL     1       3.611   1.684  -2.164  0.00  0.00    +0.121 A 
ATOM     19  C   UNL     1       3.907   1.218  -3.437  0.00  0.00    +0.045 A 
ATOM     20  C   UNL     1       4.281  -0.099  -3.619  0.00  0.00    +0.004 A 
ATOM     21  C   UNL     1       4.362  -0.953  -2.534  0.00  0.00    +0.006 A 
ATOM     22  C   UNL     1       4.069  -0.490  -1.265  0.00  0.00    -0.019 A 
ATOM     23  C   UNL     1       3.688   0.825  -1.078  0.00  0.00    +0.051 A 
BRANCH  18  24
ATOM     24  O   UNL     1       3.243   2.980  -1.982  0.00  0.00    -0.492 OA
BRANCH  24  25
ATOM     25  C   UNL     1       3.181   3.806  -3.146  0.00  0.00    +0.229 C 
BRANCH  25  26
ATOM     26  C   UNL     1       2.753   5.219  -2.746  0.00  0.00    +0.041 C 
BRANCH  26  27
ATOM     27  C   UNL     1       2.686   6.104  -3.993  0.00  0.00    +0.003 C 
BRANCH  27  29
ATOM     28  C   UNL     1       2.191   8.402  -4.839  0.00  0.00    +0.004 C 
ATOM     29  C   UNL     1       2.258   7.517  -3.593  0.00  0.00    -0.003 C 
ENDBRANCH  27  29
ENDBRANCH  26  27
ENDBRANCH  25  26
ENDBRANCH  24  25
ENDBRANCH  18  24
ENDBRANCH   1  22
BRANCH   2  30
ATOM     30  C   UNL     1       1.560  -1.990   0.023  0.00  0.00    +0.202 C 
ATOM     31  O   UNL     1       0.808  -2.201  -0.912  0.00  0.00    -0.286 OA
BRANCH  30  32
ATOM     32  C   UNL     1       1.051  -1.363   1.246  0.00  0.00    +0.059 A 
ATOM     33  C   UNL     1      -0.211  -0.843   1.503  0.00  0.00    +0.019 A 
ATOM     34  C   UNL     1      -0.424  -0.307   2.747  0.00  0.00    +0.008 A 
ATOM     35  C   UNL     1       0.591  -0.310   3.654  0.00  0.00    +0.046 A 
ATOM     36  S   UNL     1       1.891  -1.067   2.792  0.00  0.00    -0.093 S 
ENDBRANCH  30  32
ENDBRANCH   2  30
TORSDOF 8
