REMARK  Name = ZINC01434731
REMARK  10 active torsions:
REMARK  status: ('A' for Active; 'I' for Inactive)
REMARK    1  A    between atoms: C_1  and  C_2
REMARK    2  A    between atoms: N_4  and  C_5
REMARK    3  A    between atoms: C_8  and  C_11
REMARK    4  A    between atoms: C_16  and  C_21
REMARK    5  A    between atoms: C_23  and  O_31
REMARK    6  A    between atoms: C_24  and  O_29
REMARK    7  A    between atoms: C_25  and  O_27
REMARK    8  A    between atoms: O_27  and  C_28
REMARK    9  A    between atoms: O_29  and  C_30
REMARK   10  A    between atoms: O_31  and  C_32
REMARK                            x       y       z     vdW  Elec       q    Type
REMARK                         _______ _______ _______ _____ _____    ______ ____
ROOT
ATOM      1  C   UNL     1       1.613   3.580   0.098  0.00  0.00    +0.136 C 
ATOM      2  C   UNL     1       1.432   4.102  -1.308  0.00  0.00    +0.036 C 
ATOM      3  C   UNL     1       2.389   4.651  -2.074  0.00  0.00    +0.017 C 
ATOM      4  C   UNL     1       2.075   5.101  -3.492  0.00  0.00    +0.059 C 
ATOM      5  C   UNL     1       0.635   5.603  -3.572  0.00  0.00    +0.032 C 
ATOM      6  C   UNL     1      -0.286   4.445  -3.167  0.00  0.00    +0.088 C 
ATOM      7  C   UNL     1       0.112   3.973  -1.801  0.00  0.00    +0.163 C 
ATOM      8  O   UNL     1      -0.730   3.460  -1.090  0.00  0.00    -0.292 OA
ATOM      9  N   UNL     1       3.677   4.842  -1.691  0.00  0.00    -0.316 N 
ATOM     10  C   UNL     1       4.467   3.886  -1.063  0.00  0.00    +0.052 A 
ATOM     11  C   UNL     1       5.629   3.397  -1.633  0.00  0.00    +0.025 A 
ATOM     12  C   UNL     1       6.427   2.528  -0.909  0.00  0.00    +0.002 A 
ATOM     13  C   UNL     1       6.065   2.151   0.371  0.00  0.00    +0.002 A 
ATOM     14  C   UNL     1       4.892   2.623   0.935  0.00  0.00    +0.025 A 
ATOM     15  C   UNL     1       4.083   3.479   0.206  0.00  0.00    +0.049 A 
ATOM     16  N   UNL     1       2.871   3.944   0.714  0.00  0.00    -0.331 N 
ATOM     17  H   UNL     1       4.076   5.708  -1.869  0.00  0.00    +0.152 HD
ATOM     18  H   UNL     1       2.871   4.521   1.494  0.00  0.00    +0.147 HD
ENDROOT
BRANCH   1  22
ATOM     19  C   UNL     1       1.330  -0.684   0.008  0.00  0.00    +0.033 A 
ATOM     20  C   UNL     1       0.370   0.064   0.679  0.00  0.00    +0.023 A 
ATOM     21  C   UNL     1       0.464   1.441   0.706  0.00  0.00    +0.007 A 
ATOM     22  C   UNL     1       1.513   2.077   0.066  0.00  0.00    -0.023 A 
ATOM     23  C   UNL     1       2.470   1.335  -0.602  0.00  0.00    +0.007 A 
ATOM     24  C   UNL     1       2.381  -0.043  -0.633  0.00  0.00    +0.023 A 
BRANCH  19  28
ATOM     25  C   UNL     1      -0.074  -4.176   0.048  0.00  0.00    +0.109 C 
ATOM     26  C   UNL     1       0.028  -2.675  -0.037  0.00  0.00    +0.214 C 
ATOM     27  O   UNL     1      -0.978  -2.002  -0.120  0.00  0.00    -0.276 OA
ATOM     28  N   UNL     1       1.237  -2.079  -0.021  0.00  0.00    -0.286 N 
ATOM     29  H   UNL     1       2.044  -2.619  -0.029  0.00  0.00    +0.155 HD
ENDBRANCH  19  28
ENDBRANCH   1  22
BRANCH   5  30
ATOM     30  C   UNL     1       0.322   6.035  -4.981  0.00  0.00    -0.036 A 
ATOM     31  C   UNL     1       0.417   5.127  -6.018  0.00  0.00    +0.053 A 
ATOM     32  C   UNL     1       0.124   5.519  -7.315  0.00  0.00    +0.165 A 
ATOM     33  C   UNL     1      -0.254   6.831  -7.574  0.00  0.00    +0.204 A 
ATOM     34  C   UNL     1      -0.344   7.743  -6.529  0.00  0.00    +0.165 A 
ATOM     35  C   UNL     1      -0.055   7.341  -5.233  0.00  0.00    +0.053 A 
BRANCH  34  36
ATOM     36  O   UNL     1      -0.714   9.028  -6.776  0.00  0.00    -0.491 OA
ATOM     37  C   UNL     1      -0.785   9.910  -5.654  0.00  0.00    +0.277 C 
ENDBRANCH  34  36
BRANCH  33  38
ATOM     38  O   UNL     1      -0.537   7.222  -8.846  0.00  0.00    -0.488 OA
ATOM     39  C   UNL     1       0.549   7.726  -9.626  0.00  0.00    +0.277 C 
ENDBRANCH  33  38
BRANCH  32  40
ATOM     40  O   UNL     1       0.214   4.623  -8.335  0.00  0.00    -0.491 OA
ATOM     41  C   UNL     1       0.608   3.292  -7.996  0.00  0.00    +0.277 C 
ENDBRANCH  32  40
ENDBRANCH   5  30
TORSDOF 6
