REMARK  Name = ZINC41513822
REMARK  16 active torsions:
REMARK  status: ('A' for Active; 'I' for Inactive)
REMARK    1  A    between atoms: C_1  and  C_2
REMARK    2  A    between atoms: C_2  and  C_3
REMARK    3  A    between atoms: C_2  and  C_4
REMARK    4  A    between atoms: C_4  and  N_5
REMARK    5  A    between atoms: N_5  and  C_6
REMARK    6  A    between atoms: N_5  and  C_29
REMARK    7  A    between atoms: C_6  and  C_7
REMARK    8  A    between atoms: C_8  and  O_28
REMARK    9  A    between atoms: C_15  and  C_18
REMARK   10  A    between atoms: C_21  and  O_26
REMARK   11  A    between atoms: C_22  and  O_24
REMARK   12  A    between atoms: O_24  and  C_25
REMARK   13  A    between atoms: O_26  and  C_27
REMARK   14  A    between atoms: C_29  and  C_30
REMARK   15  A    between atoms: C_30  and  C_31
REMARK   16  A    between atoms: C_30  and  C_32
REMARK                            x       y       z     vdW  Elec       q    Type
REMARK                         _______ _______ _______ _____ _____    ______ ____
ROOT
ATOM      1  C   UNL     1       0.310  -2.487  -0.055  0.00  0.00    +0.020 A 
ATOM      2  C   UNL     1       0.969  -3.035  -1.142  0.00  0.00    +0.122 A 
ATOM      3  C   UNL     1       2.326  -2.794  -1.347  0.00  0.00    +0.046 A 
ATOM      4  C   UNL     1       3.025  -2.007  -0.476  0.00  0.00    +0.019 A 
ATOM      5  C   UNL     1       2.374  -1.446   0.622  0.00  0.00    +0.065 A 
ATOM      6  C   UNL     1       1.004  -1.683   0.839  0.00  0.00    +0.143 A 
ATOM      7  O   UNL     1       0.382  -1.147   1.907  0.00  0.00    -0.462 OA
ATOM      8  C   UNL     1       0.924  -0.151   2.610  0.00  0.00    +0.208 A 
ATOM      9  C   UNL     1       2.237   0.188   2.513  0.00  0.00    +0.064 A 
ATOM     10  C   UNL     1       3.088  -0.584   1.583  0.00  0.00    +0.200 A 
ATOM     11  O   UNL     1       4.304  -0.502   1.598  0.00  0.00    -0.286 OA
ENDROOT
BRANCH   9  12
ATOM     12  C   UNL     1       2.801   1.291   3.328  0.00  0.00    -0.008 A 
ATOM     13  C   UNL     1       3.278   2.444   2.706  0.00  0.00    +0.012 A 
ATOM     14  C   UNL     1       3.803   3.471   3.464  0.00  0.00    +0.050 A 
ATOM     15  C   UNL     1       3.859   3.358   4.845  0.00  0.00    +0.162 A 
ATOM     16  C   UNL     1       3.385   2.209   5.471  0.00  0.00    +0.162 A 
ATOM     17  C   UNL     1       2.851   1.180   4.716  0.00  0.00    +0.058 A 
BRANCH  16  18
ATOM     18  O   UNL     1       3.440   2.100   6.826  0.00  0.00    -0.491 OA
ATOM     19  C   UNL     1       2.936   0.893   7.401  0.00  0.00    +0.277 C 
ENDBRANCH  16  18
BRANCH  15  20
ATOM     20  O   UNL     1       4.377   4.372   5.589  0.00  0.00    -0.491 OA
ATOM     21  C   UNL     1       4.846   5.522   4.881  0.00  0.00    +0.277 C 
ENDBRANCH  15  20
ENDBRANCH   9  12
BRANCH   2  22
ATOM     22  O   UNL     1       0.286  -3.817  -2.017  0.00  0.00    -0.506 OA
ATOM     23  H   UNL     1      -0.112  -3.330  -2.752  0.00  0.00    +0.292 HD
ENDBRANCH   2  22
BRANCH   1  24
ATOM     24  C   UNL     1      -1.158  -2.757   0.154  0.00  0.00    -0.036 C 
BRANCH  24  25
ATOM     25  N   UNL     1      -1.939  -2.014  -0.844  0.00  0.00    +0.383 N 
ATOM     26  H   UNL     1      -1.570  -2.197  -1.765  0.00  0.00    -0.081 HD
BRANCH  25  27
ATOM     27  C   UNL     1      -1.853  -0.575  -0.560  0.00  0.00    -0.075 C 
BRANCH  27  29
ATOM     28  C   UNL     1      -1.792   1.138   1.258  0.00  0.00    +0.005 C 
ATOM     29  C   UNL     1      -2.028  -0.340   0.942  0.00  0.00    -0.034 C 
ATOM     30  C   UNL     1      -3.449  -0.730   1.357  0.00  0.00    +0.005 C 
ENDBRANCH  27  29
ENDBRANCH  25  27
BRANCH  25  31
ATOM     31  C   UNL     1      -3.343  -2.442  -0.784  0.00  0.00    -0.075 C 
BRANCH  31  32
ATOM     32  C   UNL     1      -4.123  -1.795  -1.931  0.00  0.00    -0.034 C 
ATOM     33  C   UNL     1      -3.595  -2.322  -3.267  0.00  0.00    +0.005 C 
ATOM     34  C   UNL     1      -5.607  -2.140  -1.797  0.00  0.00    +0.005 C 
ENDBRANCH  31  32
ENDBRANCH  25  31
ENDBRANCH  24  25
ENDBRANCH   1  24
TORSDOF 10
