REMARK  Name = ZINC35372127
REMARK  7 active torsions:
REMARK  status: ('A' for Active; 'I' for Inactive)
REMARK    1  A    between atoms: C_4  and  O_7
REMARK    2  A    between atoms: O_7  and  C_8
REMARK    3  A    between atoms: C_8  and  C_9
REMARK    4  A    between atoms: N_11  and  C_12
REMARK    5  A    between atoms: C_16  and  O_18
REMARK    6  A    between atoms: O_18  and  C_19
REMARK    7  A    between atoms: C_19  and  C_20
REMARK                            x       y       z     vdW  Elec       q    Type
REMARK                         _______ _______ _______ _____ _____    ______ ____
ROOT
ATOM      1  C   UNL     1       6.446  -4.413   0.004  0.00  0.00    +0.037 A 
ATOM      2  C   UNL     1       7.497  -3.509   0.099  0.00  0.00    +0.023 A 
ATOM      3  C   UNL     1       8.798  -3.967   0.173  0.00  0.00    +0.005 A 
ATOM      4  C   UNL     1       9.058  -5.325   0.151  0.00  0.00    +0.046 A 
ATOM      5  C   UNL     1       8.012  -6.232   0.055  0.00  0.00    +0.123 A 
ATOM      6  C   UNL     1       6.705  -5.776  -0.012  0.00  0.00    +0.069 A 
ENDROOT
BRANCH   1   9
ATOM      7  C   UNL     1       4.135  -4.642   0.521  0.00  0.00    +0.255 C 
ATOM      8  O   UNL     1       4.371  -5.710   1.046  0.00  0.00    -0.272 OA
ATOM      9  N   UNL     1       5.128  -3.949  -0.070  0.00  0.00    -0.283 N 
ATOM     10  H   UNL     1       4.929  -3.128  -0.548  0.00  0.00    +0.155 HD
BRANCH   7  11
ATOM     11  C   UNL     1       2.733  -4.090   0.531  0.00  0.00    +0.324 C 
BRANCH  11  12
ATOM     12  O   UNL     1       1.868  -5.001   1.212  0.00  0.00    -0.483 OA
BRANCH  12  16
ATOM     13  C   UNL     1      -2.107  -3.938   1.512  0.00  0.00    +0.000 A 
ATOM     14  C   UNL     1      -1.669  -5.130   2.058  0.00  0.00    +0.004 A 
ATOM     15  C   UNL     1      -0.338  -5.489   1.959  0.00  0.00    +0.045 A 
ATOM     16  C   UNL     1       0.558  -4.651   1.311  0.00  0.00    +0.121 A 
ATOM     17  C   UNL     1       0.115  -3.456   0.763  0.00  0.00    +0.045 A 
ATOM     18  C   UNL     1      -1.216  -3.102   0.865  0.00  0.00    +0.004 A 
ENDBRANCH  12  16
ENDBRANCH  11  12
ENDBRANCH   7  11
ENDBRANCH   1   9
BRANCH   5  19
ATOM     19  O   UNL     1       8.269  -7.566   0.033  0.00  0.00    -0.486 OA
BRANCH  19  20
ATOM     20  C   UNL     1       9.639  -7.964   0.113  0.00  0.00    +0.282 C 
BRANCH  20  21
ATOM     21  C   UNL     1       9.728  -9.468   0.075  0.00  0.00    +0.061 A 
ATOM     22  C   UNL     1       8.588 -10.236  -0.029  0.00  0.00    +0.095 A 
ATOM     23  C   UNL     1       8.690 -11.627  -0.062  0.00  0.00    +0.259 A 
ATOM     24  O   UNL     1       7.684 -12.312  -0.154  0.00  0.00    -0.267 OA
ATOM     25  N   UNL     1       9.919 -12.221   0.008  0.00  0.00    -0.260 N 
ATOM     26  C   UNL     1      10.157 -13.588  -0.015  0.00  0.00    +0.039 A 
ATOM     27  C   UNL     1      11.424 -14.015   0.061  0.00  0.00    +0.013 A 
ATOM     28  S   UNL     1      12.369 -12.517   0.172  0.00  0.00    -0.056 S 
ATOM     29  C   UNL     1      10.996 -11.385   0.108  0.00  0.00    +0.159 A 
ATOM     30  N   UNL     1      10.909 -10.078   0.135  0.00  0.00    -0.336 N 
ATOM     31  C   UNL     1      11.923 -15.424   0.055  0.00  0.00    +0.044 C 
ATOM     32  C   UNL     1      10.732 -16.360   0.312  0.00  0.00    +0.006 C 
ATOM     33  C   UNL     1       9.573 -15.935  -0.594  0.00  0.00    +0.006 C 
ATOM     34  C   UNL     1       9.011 -14.592  -0.126  0.00  0.00    +0.055 C 
ATOM     35  H   UNL     1      11.718  -9.547   0.204  0.00  0.00    +0.168 HD
ENDBRANCH  20  21
ENDBRANCH  19  20
ENDBRANCH   5  19
TORSDOF 7
