REMARK  Name = ZINC39677065
REMARK  8 active torsions:
REMARK  status: ('A' for Active; 'I' for Inactive)
REMARK    1  A    between atoms: C_1  and  C_2
REMARK    2  A    between atoms: C_5  and  C_38
REMARK    3  A    between atoms: C_6  and  C_8
REMARK    4  A    between atoms: C_8  and  C_9
REMARK    5  A    between atoms: C_9  and  N_10
REMARK    6  A    between atoms: C_11  and  C_13
REMARK    7  A    between atoms: C_24  and  C_26
REMARK    8  A    between atoms: C_29  and  C_31
REMARK                            x       y       z     vdW  Elec       q    Type
REMARK                         _______ _______ _______ _____ _____    ______ ____
ROOT
ATOM      1  C   UNL     1       2.701  -5.104   5.948  0.00  0.00    +0.100 C 
ATOM      2  C   UNL     1       1.844  -6.385   5.833  0.00  0.00    +0.121 C 
ATOM      3  N   UNL     1       2.811  -7.453   5.485  0.00  0.00    -0.294 N 
ATOM      4  C   UNL     1       4.011  -7.143   6.299  0.00  0.00    +0.115 C 
ATOM      5  C   UNL     1       4.121  -5.606   6.257  0.00  0.00    -0.004 C 
ATOM      6  C   UNL     1       5.085  -5.177   5.154  0.00  0.00    -0.010 C 
ATOM      7  C   UNL     1       6.500  -5.638   5.513  0.00  0.00    -0.082 C 
ATOM      8  N   UNL     1       6.899  -5.047   6.796  0.00  0.00    +0.379 N 
ATOM      9  C   UNL     1       6.024  -5.538   7.867  0.00  0.00    -0.082 C 
ATOM     10  C   UNL     1       4.588  -5.073   7.608  0.00  0.00    -0.010 C 
ATOM     11  C   UNL     1       2.639  -8.474   4.623  0.00  0.00    +0.282 C 
ATOM     12  O   UNL     1       3.537  -9.277   4.444  0.00  0.00    -0.267 OA
ATOM     13  H   UNL     1       7.854  -5.303   7.000  0.00  0.00    -0.086 HD
ATOM     14  H   UNL     1       6.828  -4.043   6.738  0.00  0.00    -0.086 HD
ENDROOT
BRANCH  11  15
ATOM     15  C   UNL     1       1.373  -8.619   3.902  0.00  0.00    +0.190 A 
ATOM     16  C   UNL     1       1.063  -9.614   3.001  0.00  0.00    +0.055 A 
ATOM     17  C   UNL     1      -0.240  -9.367   2.558  0.00  0.00    +0.050 A 
ATOM     18  C   UNL     1      -0.675  -8.242   3.197  0.00  0.00    +0.136 A 
ATOM     19  O   UNL     1       0.302  -7.803   4.009  0.00  0.00    -0.450 OA
BRANCH  18  20
ATOM     20  C   UNL     1      -2.001  -7.614   3.030  0.00  0.00    +0.017 A 
ATOM     21  C   UNL     1      -2.937  -8.177   2.159  0.00  0.00    +0.014 A 
ATOM     22  C   UNL     1      -4.174  -7.587   2.007  0.00  0.00    +0.039 A 
ATOM     23  C   UNL     1      -4.489  -6.438   2.715  0.00  0.00    +0.123 A 
ATOM     24  C   UNL     1      -3.563  -5.875   3.580  0.00  0.00    +0.039 A 
ATOM     25  C   UNL     1      -2.325  -6.459   3.745  0.00  0.00    +0.014 A 
ATOM     26  F   UNL     1      -5.703  -5.864   2.562  0.00  0.00    -0.205 F 
ENDBRANCH  18  20
ENDBRANCH  11  15
BRANCH   1  28
ATOM     27  N   UNL     1       2.846  -3.006   4.647  0.00  0.00    -0.315 N 
ATOM     28  C   UNL     1       2.684  -4.344   4.647  0.00  0.00    +0.218 C 
ATOM     29  O   UNL     1       2.526  -4.936   3.600  0.00  0.00    -0.275 OA
ATOM     30  H   UNL     1       2.973  -2.532   5.484  0.00  0.00    +0.149 HD
BRANCH  27  31
ATOM     31  C   UNL     1       2.830  -2.267   3.382  0.00  0.00    +0.109 C 
BRANCH  31  32
ATOM     32  C   UNL     1       3.033  -0.776   3.660  0.00  0.00    +0.054 C 
BRANCH  32  38
ATOM     33  C   UNL     1       5.484   1.302  -0.176  0.00  0.00    +0.044 C 
ATOM     34  C   UNL     1       4.189   0.980   0.524  0.00  0.00    -0.050 A 
ATOM     35  C   UNL     1       2.986   1.381  -0.027  0.00  0.00    +0.003 A 
ATOM     36  C   UNL     1       1.799   1.085   0.616  0.00  0.00    +0.004 A 
ATOM     37  C   UNL     1       1.814   0.387   1.809  0.00  0.00    -0.047 A 
ATOM     38  C   UNL     1       3.017  -0.015   2.359  0.00  0.00    -0.043 A 
ATOM     39  C   UNL     1       4.204   0.277   1.714  0.00  0.00    +0.007 A 
ATOM     40  C   UNL     1       0.520   0.065   2.510  0.00  0.00    +0.044 C 
ENDBRANCH  32  38
ENDBRANCH  31  32
ENDBRANCH  27  31
ENDBRANCH   1  28
TORSDOF 6
