REMARK  Name = ZINC36374662
REMARK  20 active torsions:
REMARK  status: ('A' for Active; 'I' for Inactive)
REMARK    1  A    between atoms: C_1  and  C_2
REMARK    2  A    between atoms: C_2  and  O_4
REMARK    3  A    between atoms: O_4  and  C_5
REMARK    4  A    between atoms: C_8  and  C_45
REMARK    5  A    between atoms: C_16  and  C_34
REMARK    6  A    between atoms: C_19  and  C_33
REMARK    7  A    between atoms: C_20  and  C_22
REMARK    8  A    between atoms: C_22  and  C_23
REMARK    9  A    between atoms: C_22  and  C_24
REMARK   10  A    between atoms: C_22  and  O_32
REMARK   11  A    between atoms: C_24  and  C_26
REMARK   12  A    between atoms: C_26  and  C_27
REMARK   13  A    between atoms: C_27  and  C_28
REMARK   14  A    between atoms: C_28  and  C_29
REMARK   15  A    between atoms: C_28  and  C_30
REMARK   16  A    between atoms: C_28  and  O_31
REMARK   17  A    between atoms: C_36  and  O_44
REMARK   18  A    between atoms: C_38  and  O_43
REMARK   19  A    between atoms: C_40  and  C_41
REMARK   20  A    between atoms: C_40  and  C_42
REMARK                            x       y       z     vdW  Elec       q    Type
REMARK                         _______ _______ _______ _____ _____    ______ ____
ROOT
ATOM      1  C   UNL     1      -1.342  -3.450   0.903  0.00  0.00    +0.184 C 
ATOM      2  C   UNL     1      -1.724  -4.759   0.206  0.00  0.00    +0.052 C 
ATOM      3  C   UNL     1      -3.271  -4.905   0.313  0.00  0.00    -0.019 C 
ATOM      4  C   UNL     1      -3.862  -4.553  -1.050  0.00  0.00    +0.006 C 
ATOM      5  C   UNL     1      -3.092  -3.374  -1.654  0.00  0.00    +0.031 C 
ATOM      6  C   UNL     1      -3.657  -3.019  -3.004  0.00  0.00    -0.026 C 
ATOM      7  C   UNL     1      -4.911  -3.166  -3.310  0.00  0.00    -0.062 C 
ATOM      8  C   UNL     1      -5.881  -3.823  -2.373  0.00  0.00    +0.024 C 
ATOM      9  C   UNL     1      -5.334  -4.169  -0.996  0.00  0.00    -0.022 C 
ATOM     10  C   UNL     1      -5.485  -2.972  -0.054  0.00  0.00    +0.008 C 
ATOM     11  C   UNL     1      -5.056  -3.367   1.347  0.00  0.00    +0.008 C 
ATOM     12  C   UNL     1      -3.687  -3.981   1.455  0.00  0.00    -0.017 C 
ATOM     13  C   UNL     1      -2.555  -2.997   1.730  0.00  0.00    +0.075 C 
ATOM     14  C   UNL     1      -3.756  -4.890   2.718  0.00  0.00    +0.012 C 
ATOM     15  C   UNL     1      -6.192  -5.333  -0.479  0.00  0.00    +0.012 C 
ATOM     16  C   UNL     1      -7.139  -2.962  -2.248  0.00  0.00    +0.042 C 
ATOM     17  C   UNL     1      -7.755  -2.795  -3.639  0.00  0.00    +0.144 C 
ATOM     18  C   UNL     1      -6.791  -2.058  -4.555  0.00  0.00    +0.153 C 
ATOM     19  C   UNL     1      -5.423  -2.727  -4.667  0.00  0.00    +0.015 C 
ATOM     20  C   UNL     1      -5.506  -3.938  -5.604  0.00  0.00    +0.018 C 
ATOM     21  C   UNL     1      -4.470  -1.699  -5.301  0.00  0.00    +0.018 C 
ATOM     22  C   UNL     1      -3.565  -6.384   0.685  0.00  0.00    +0.012 C 
ENDROOT
BRANCH  13  23
ATOM     23  C   UNL     1      -2.908  -1.548   1.412  0.00  0.00    +0.127 C 
ATOM     24  C   UNL     1      -4.024  -1.077   2.346  0.00  0.00    +0.050 C 
BRANCH  23  25
ATOM     25  C   UNL     1      -1.691  -0.680   1.607  0.00  0.00    +0.165 C 
ATOM     26  O   UNL     1      -0.814  -1.030   2.360  0.00  0.00    -0.294 OA
BRANCH  25  27
ATOM     27  C   UNL     1      -1.567   0.623   0.861  0.00  0.00    +0.080 C 
BRANCH  27  28
ATOM     28  C   UNL     1      -0.249   1.303   1.236  0.00  0.00    +0.042 C 
BRANCH  28  29
ATOM     29  C   UNL     1      -0.124   2.627   0.479  0.00  0.00    +0.061 C 
ATOM     30  C   UNL     1      -1.293   3.540   0.853  0.00  0.00    +0.041 C 
ATOM     31  C   UNL     1       1.195   3.306   0.854  0.00  0.00    +0.041 C 
BRANCH  29  32
ATOM     32  O   UNL     1      -0.147   2.375  -0.927  0.00  0.00    -0.389 OA
ATOM     33  H   UNL     1       0.568   1.801  -1.236  0.00  0.00    +0.210 HD
ENDBRANCH  29  32
ENDBRANCH  28  29
ENDBRANCH  27  28
ENDBRANCH  25  27
ENDBRANCH  23  25
BRANCH  23  34
ATOM     34  O   UNL     1      -3.349  -1.452   0.056  0.00  0.00    -0.381 OA
ATOM     35  H   UNL     1      -2.653  -1.202  -0.567  0.00  0.00    +0.211 HD
ENDBRANCH  23  34
ENDBRANCH  13  23
BRANCH  18  36
ATOM     36  O   UNL     1      -7.369  -1.951  -5.864  0.00  0.00    -0.388 OA
ATOM     37  H   UNL     1      -8.208  -1.472  -5.886  0.00  0.00    +0.210 HD
ENDBRANCH  18  36
BRANCH  17  38
ATOM     38  O   UNL     1      -8.105  -4.069  -4.175  0.00  0.00    -0.389 OA
ATOM     39  H   UNL     1      -8.746  -4.558  -3.641  0.00  0.00    +0.210 HD
ENDBRANCH  17  38
BRANCH   1  40
ATOM     40  O   UNL     1      -0.969  -2.445  -0.039  0.00  0.00    -0.461 OA
BRANCH  40  42
ATOM     41  C   UNL     1       0.800  -1.322  -1.345  0.00  0.00    +0.136 C 
ATOM     42  C   UNL     1       0.332  -2.360  -0.357  0.00  0.00    +0.304 C 
ATOM     43  O   UNL     1       1.128  -3.116   0.148  0.00  0.00    -0.251 OA
ENDBRANCH  40  42
ENDBRANCH   1  40
TORSDOF 11
