REMARK  Name = ZINC09039413
REMARK  11 active torsions:
REMARK  status: ('A' for Active; 'I' for Inactive)
REMARK    1  A    between atoms: C_1  and  C_2
REMARK    2  A    between atoms: C_2  and  C_3
REMARK    3  A    between atoms: C_4  and  C_38
REMARK    4  A    between atoms: C_12  and  N_17
REMARK    5  A    between atoms: C_14  and  C_16
REMARK    6  A    between atoms: C_18  and  C_20
REMARK    7  A    between atoms: N_22  and  C_23
REMARK    8  A    between atoms: C_23  and  C_24
REMARK    9  A    between atoms: C_24  and  C_25
REMARK   10  A    between atoms: C_25  and  C_26
REMARK   11  A    between atoms: C_25  and  C_32
REMARK                            x       y       z     vdW  Elec       q    Type
REMARK                         _______ _______ _______ _____ _____    ______ ____
ROOT
ATOM      1  N   UNL     1      -2.257   4.000  -5.540  0.00  0.00    -0.262 N 
ATOM      2  C   UNL     1      -1.503   3.273  -4.692  0.00  0.00    +0.304 C 
ATOM      3  O   UNL     1      -0.557   2.639  -5.113  0.00  0.00    -0.265 OA
ATOM      4  H   UNL     1      -3.013   4.506  -5.205  0.00  0.00    +0.157 HD
ENDROOT
BRANCH   1  14
ATOM      5  C   UNL     1      -5.905   7.070  -7.264  0.00  0.00    +0.038 A 
ATOM      6  C   UNL     1      -5.295   6.419  -6.232  0.00  0.00    +0.050 A 
ATOM      7  N   UNL     1      -4.230   5.652  -6.463  0.00  0.00    -0.217 NA
ATOM      8  C   UNL     1      -3.736   5.512  -7.674  0.00  0.00    +0.234 A 
ATOM      9  N   UNL     1      -4.301   6.136  -8.741  0.00  0.00    -0.291 N 
ATOM     10  H   UNL     1      -3.926   6.018  -9.628  0.00  0.00    +0.172 HD
ATOM     11  C   UNL     1      -5.385   6.920  -8.563  0.00  0.00    +0.256 A 
ATOM     12  O   UNL     1      -5.905   7.487  -9.510  0.00  0.00    -0.267 OA
ATOM     13  N   UNL     1      -2.626   4.710  -7.865  0.00  0.00    -0.185 N 
ATOM     14  C   UNL     1      -1.953   4.023  -6.897  0.00  0.00    +0.132 A 
ATOM     15  C   UNL     1      -0.925   3.369  -7.503  0.00  0.00    +0.068 A 
ATOM     16  C   UNL     1      -0.979   3.657  -8.871  0.00  0.00    +0.062 A 
ATOM     17  N   UNL     1      -1.989   4.459  -9.087  0.00  0.00    -0.167 NA
ATOM     18  C   UNL     1      -0.029   3.136  -9.918  0.00  0.00    +0.067 C 
ATOM     19  C   UNL     1      -5.830   6.561  -4.831  0.00  0.00    +0.066 C 
BRANCH   5  21
ATOM     20  C   UNL     1      -6.672   9.390  -6.844  0.00  0.00    +0.009 C 
ATOM     21  C   UNL     1      -7.113   7.936  -7.016  0.00  0.00    +0.039 C 
ENDBRANCH   5  21
ENDBRANCH   1  14
BRANCH   2  22
ATOM     22  C   UNL     1      -1.830   3.248  -3.236  0.00  0.00    +0.299 C 
ATOM     23  O   UNL     1      -2.776   3.882  -2.816  0.00  0.00    -0.265 OA
ATOM     24  N   UNL     1      -1.076   2.522  -2.388  0.00  0.00    -0.308 N 
ATOM     25  H   UNL     1      -0.320   2.015  -2.724  0.00  0.00    +0.149 HD
BRANCH  24  26
ATOM     26  C   UNL     1      -1.397   2.497  -0.959  0.00  0.00    +0.105 C 
BRANCH  26  27
ATOM     27  C   UNL     1      -0.393   1.605  -0.226  0.00  0.00    +0.031 C 
BRANCH  27  28
ATOM     28  C   UNL     1      -0.729   1.579   1.267  0.00  0.00    +0.050 C 
BRANCH  28  29
ATOM     29  C   UNL     1      -2.070   0.922   1.469  0.00  0.00    -0.040 A 
ATOM     30  C   UNL     1      -3.047   1.559   2.209  0.00  0.00    +0.004 A 
ATOM     31  C   UNL     1      -4.279   0.958   2.391  0.00  0.00    +0.000 A 
ATOM     32  C   UNL     1      -4.529  -0.285   1.841  0.00  0.00    +0.000 A 
ATOM     33  C   UNL     1      -3.549  -0.925   1.105  0.00  0.00    +0.000 A 
ATOM     34  C   UNL     1      -2.320  -0.322   0.919  0.00  0.00    +0.004 A 
ENDBRANCH  28  29
BRANCH  28  35
ATOM     35  C   UNL     1       0.329   0.801   2.006  0.00  0.00    -0.040 A 
ATOM     36  C   UNL     1       0.670  -0.472   1.588  0.00  0.00    +0.004 A 
ATOM     37  C   UNL     1       1.643  -1.183   2.264  0.00  0.00    +0.000 A 
ATOM     38  C   UNL     1       2.269  -0.626   3.363  0.00  0.00    +0.000 A 
ATOM     39  C   UNL     1       1.925   0.644   3.784  0.00  0.00    +0.000 A 
ATOM     40  C   UNL     1       0.955   1.358   3.106  0.00  0.00    +0.004 A 
ENDBRANCH  28  35
ENDBRANCH  27  28
ENDBRANCH  26  27
ENDBRANCH  24  26
ENDBRANCH   2  22
TORSDOF 8
