REMARK  Name = ZINC39521069
REMARK  5 active torsions:
REMARK  status: ('A' for Active; 'I' for Inactive)
REMARK    1  A    between atoms: C_4  and  C_7
REMARK    2  A    between atoms: C_7  and  N_8
REMARK    3  A    between atoms: C_9  and  S_22
REMARK    4  A    between atoms: S_22  and  O_25
REMARK    5  A    between atoms: O_25  and  C_26
REMARK                            x       y       z     vdW  Elec       q    Type
REMARK                         _______ _______ _______ _____ _____    ______ ____
ROOT
ATOM      1  N   UNL     1       4.228  -1.036   1.314  0.00  0.00    +0.403 N 
ATOM      2  C   UNL     1       3.341  -2.034   1.924  0.00  0.00    +0.120 C 
ATOM      3  C   UNL     1       3.242  -3.259   1.012  0.00  0.00    +0.010 C 
ATOM      4  C   UNL     1       4.638  -3.861   0.822  0.00  0.00    -0.001 C 
ATOM      5  C   UNL     1       5.572  -2.789   0.255  0.00  0.00    -0.012 C 
ATOM      6  C   UNL     1       5.585  -1.581   1.194  0.00  0.00    -0.061 C 
ATOM      7  C   UNL     1       6.519  -0.508   0.629  0.00  0.00    -0.012 C 
ATOM      8  C   UNL     1       6.537   0.699   1.568  0.00  0.00    -0.000 C 
ATOM      9  C   UNL     1       7.037   0.265   2.947  0.00  0.00    +0.015 C 
ATOM     10  C   UNL     1       6.104  -0.808   3.513  0.00  0.00    +0.055 C 
ATOM     11  C   UNL     1       6.085  -2.015   2.574  0.00  0.00    +0.003 C 
ATOM     12 BR   UNL     1       6.746  -1.366   5.285  0.00  0.00    -0.088 Br
ATOM     13  H   UNL     1       4.248  -0.209   1.892  0.00  0.00    -0.078 HD
ENDROOT
BRANCH   2  14
ATOM     14  S   UNL     1       1.691  -1.317   2.152  0.00  0.00    +0.108 S 
ATOM     15  O   UNL     1       1.757  -0.207   3.037  0.00  0.00    -0.138 OA
ATOM     16  O   UNL     1       1.028  -1.206   0.900  0.00  0.00    -0.138 OA
BRANCH  14  17
ATOM     17  O   UNL     1       0.907  -2.376   2.915  0.00  0.00    -0.347 OA
BRANCH  17  18
ATOM     18  C   UNL     1       1.235  -2.466   4.230  0.00  0.00    +0.156 A 
ATOM     19  C   UNL     1       2.248  -3.322   4.637  0.00  0.00    +0.048 A 
ATOM     20  C   UNL     1       2.579  -3.411   5.975  0.00  0.00    +0.004 A 
ATOM     21  C   UNL     1       1.903  -2.648   6.909  0.00  0.00    +0.000 A 
ATOM     22  C   UNL     1       0.892  -1.794   6.506  0.00  0.00    +0.004 A 
ATOM     23  C   UNL     1       0.561  -1.697   5.169  0.00  0.00    +0.048 A 
ENDBRANCH  17  18
ENDBRANCH  14  17
ENDBRANCH   2  14
BRANCH   1  24
ATOM     24  C   UNL     1       3.723  -0.685  -0.021  0.00  0.00    -0.039 C 
BRANCH  24  28
ATOM     25  C   UNL     1       5.103   3.213  -1.088  0.00  0.00    +0.000 A 
ATOM     26  C   UNL     1       5.422   2.126  -1.880  0.00  0.00    +0.000 A 
ATOM     27  C   UNL     1       4.976   0.865  -1.535  0.00  0.00    +0.002 A 
ATOM     28  C   UNL     1       4.210   0.690  -0.397  0.00  0.00    -0.064 A 
ATOM     29  C   UNL     1       3.892   1.777   0.396  0.00  0.00    +0.002 A 
ATOM     30  C   UNL     1       4.338   3.039   0.049  0.00  0.00    +0.000 A 
ENDBRANCH  24  28
ENDBRANCH   1  24
TORSDOF 5
