REMARK  Name = ZINC17273118
REMARK  9 active torsions:
REMARK  status: ('A' for Active; 'I' for Inactive)
REMARK    1  A    between atoms: C_1  and  C_2
REMARK    2  A    between atoms: C_2  and  C_4
REMARK    3  A    between atoms: C_2  and  S_17
REMARK    4  A    between atoms: N_6  and  C_7
REMARK    5  A    between atoms: C_9  and  N_14
REMARK    6  A    between atoms: S_17  and  C_18
REMARK    7  A    between atoms: C_21  and  C_26
REMARK    8  A    between atoms: N_22  and  C_23
REMARK    9  A    between atoms: C_26  and  C_27
REMARK                            x       y       z     vdW  Elec       q    Type
REMARK                         _______ _______ _______ _____ _____    ______ ____
ROOT
ATOM      1  C   UNL     1      -2.595   0.086  -1.125  0.00  0.00    +0.029 C 
ATOM      2  C   UNL     1      -2.212   0.600   0.264  0.00  0.00    +0.137 C 
ENDROOT
BRANCH   2   3
ATOM      3  C   UNL     1      -0.855   1.251   0.203  0.00  0.00    +0.230 C 
ATOM      4  O   UNL     1      -0.763   2.459   0.142  0.00  0.00    -0.274 OA
ATOM      5  N   UNL     1       0.258   0.491   0.215  0.00  0.00    -0.283 N 
ATOM      6  H   UNL     1       0.186  -0.476   0.180  0.00  0.00    +0.155 HD
BRANCH   5   7
ATOM      7  C   UNL     1       1.519   1.097   0.272  0.00  0.00    +0.054 A 
ATOM      8  C   UNL     1       1.655   2.370   0.809  0.00  0.00    +0.057 A 
ATOM      9  C   UNL     1       2.901   2.965   0.865  0.00  0.00    +0.128 A 
ATOM     10  C   UNL     1       4.011   2.295   0.386  0.00  0.00    +0.034 A 
ATOM     11  C   UNL     1       3.880   1.027  -0.150  0.00  0.00    +0.024 A 
ATOM     12  C   UNL     1       2.638   0.423  -0.203  0.00  0.00    +0.062 A 
ATOM     13 CL   UNL     1       2.474  -1.172  -0.869  0.00  0.00    -0.082 Cl
BRANCH   9  14
ATOM     14  N   UNL     1       3.046   4.322   1.437  0.00  0.00    +0.056 N 
ATOM     15  O   UNL     1       2.069   4.913   1.860  0.00  0.00    -0.126 OA
ATOM     16  O   UNL     1       4.144   4.848   1.486  0.00  0.00    -0.126 OA
ENDBRANCH   9  14
ENDBRANCH   5   7
ENDBRANCH   2   3
BRANCH   2  17
ATOM     17  S   UNL     1      -3.438   1.812   0.817  0.00  0.00    -0.074 S 
BRANCH  17  18
ATOM     18  C   UNL     1      -4.858   0.776   0.942  0.00  0.00    +0.193 A 
ATOM     19  N   UNL     1      -4.912  -0.509   0.678  0.00  0.00    -0.122 NA
ATOM     20  N   UNL     1      -6.104  -0.946   0.879  0.00  0.00    -0.133 NA
ATOM     21  C   UNL     1      -6.877   0.027   1.272  0.00  0.00    +0.139 A 
ATOM     22  N   UNL     1      -6.111   1.159   1.326  0.00  0.00    -0.303 N 
BRANCH  22  23
ATOM     23  C   UNL     1      -6.545   2.503   1.716  0.00  0.00    +0.091 C 
ATOM     24  C   UNL     1      -5.642   3.676   1.330  0.00  0.00    +0.027 C 
ATOM     25  C   UNL     1      -5.729   3.225   2.790  0.00  0.00    +0.027 C 
ENDBRANCH  22  23
BRANCH  21  26
ATOM     26  C   UNL     1      -8.343  -0.076   1.605  0.00  0.00    +0.118 C 
BRANCH  26  27
ATOM     27  C   UNL     1      -9.159   0.176   0.363  0.00  0.00    -0.003 A 
ATOM     28  C   UNL     1      -9.600  -0.710  -0.563  0.00  0.00    +0.011 A 
ATOM     29  C   UNL     1     -10.342  -0.247  -1.633  0.00  0.00    +0.008 A 
ATOM     30  C   UNL     1     -10.608   1.079  -1.724  0.00  0.00    +0.045 A 
ATOM     31  S   UNL     1      -9.803   1.718  -0.265  0.00  0.00    -0.101 S 
ENDBRANCH  26  27
ENDBRANCH  21  26
ENDBRANCH  17  18
ENDBRANCH   2  17
TORSDOF 8
