REMARK  Name = ZINC20833845
REMARK  7 active torsions:
REMARK  status: ('A' for Active; 'I' for Inactive)
REMARK    1  A    between atoms: C_3  and  C_9
REMARK    2  A    between atoms: N_10  and  N_11
REMARK    3  A    between atoms: C_14  and  S_17
REMARK    4  A    between atoms: S_17  and  C_18
REMARK    5  A    between atoms: C_18  and  C_19
REMARK    6  A    between atoms: N_21  and  N_22
REMARK    7  A    between atoms: C_23  and  C_25
REMARK                            x       y       z     vdW  Elec       q    Type
REMARK                         _______ _______ _______ _____ _____    ______ ____
ROOT
ATOM      1  N   UNL     1      -3.754   5.854   0.068  0.00  0.00    -0.205 N 
ATOM      2  C   UNL     1      -3.768   7.241   0.076  0.00  0.00    +0.232 A 
ATOM      3  N   UNL     1      -4.883   8.034   0.090  0.00  0.00    -0.186 NA
ATOM      4  C   UNL     1      -4.474   9.337   0.093  0.00  0.00    +0.211 A 
ATOM      5  N   UNL     1      -3.163   9.351   0.081  0.00  0.00    -0.144 NA
ATOM      6  N   UNL     1      -2.716   8.023   0.076  0.00  0.00    -0.245 N 
ATOM      7  H   UNL     1      -4.701   5.294   0.074  0.00  0.00    +0.177 HD
ATOM      8  H   UNL     1      -1.706   7.586   0.072  0.00  0.00    +0.192 HD
ENDROOT
BRANCH   1  10
ATOM      9  C   UNL     1      -2.520   3.868   0.046  0.00  0.00    +0.139 C 
ATOM     10  N   UNL     1      -2.534   5.166   0.053  0.00  0.00    -0.188 NA
BRANCH   9  13
ATOM     11  C   UNL     1      -0.013   1.076   0.008  0.00  0.00    +0.002 A 
ATOM     12  C   UNL     1      -1.218   1.747   0.017  0.00  0.00    +0.011 A 
ATOM     13  C   UNL     1      -1.236   3.144   0.030  0.00  0.00    +0.014 A 
ATOM     14  C   UNL     1      -0.030   3.852   0.023  0.00  0.00    +0.068 A 
ATOM     15  C   UNL     1       1.169   3.167   0.008  0.00  0.00    +0.060 A 
ATOM     16  C   UNL     1       1.177   1.782   0.000  0.00  0.00    +0.021 A 
ATOM     17 CL   UNL     1       2.667   4.042  -0.001  0.00  0.00    -0.082 Cl
ATOM     18 CL   UNL     1      -0.041   5.588   0.033  0.00  0.00    -0.081 Cl
ENDBRANCH   9  13
ENDBRANCH   1  10
BRANCH   4  19
ATOM     19  S   UNL     1      -5.525  10.751   0.111  0.00  0.00    -0.075 S 
BRANCH  19  20
ATOM     20  C   UNL     1      -4.373  12.153   0.108  0.00  0.00    +0.174 C 
BRANCH  20  21
ATOM     21  C   UNL     1      -5.152  13.443   0.122  0.00  0.00    +0.239 C 
ATOM     22  O   UNL     1      -6.365  13.419   0.134  0.00  0.00    -0.273 OA
ATOM     23  N   UNL     1      -4.502  14.623   0.123  0.00  0.00    -0.233 N 
ATOM     24  H   UNL     1      -3.402  14.645   0.112  0.00  0.00    +0.173 HD
BRANCH  23  25
ATOM     25  N   UNL     1      -5.226  15.823   0.136  0.00  0.00    -0.227 N 
ATOM     26  C   UNL     1      -4.575  17.003   0.137  0.00  0.00    +0.333 C 
ATOM     27  O   UNL     1      -3.363  17.027   0.125  0.00  0.00    -0.264 OA
ATOM     28  H   UNL     1      -6.326  15.801   0.147  0.00  0.00    +0.173 HD
BRANCH  26  29
ATOM     29  C   UNL     1      -5.354  18.293   0.151  0.00  0.00    +0.471 C 
ATOM     30  F   UNL     1      -4.466  19.374   0.148  0.00  0.00    -0.162 F 
ATOM     31  F   UNL     1      -6.171  18.357  -0.983  0.00  0.00    -0.162 F 
ATOM     32  F   UNL     1      -6.149  18.345   1.301  0.00  0.00    -0.162 F 
ENDBRANCH  26  29
ENDBRANCH  23  25
ENDBRANCH  20  21
ENDBRANCH  19  20
ENDBRANCH   4  19
TORSDOF 7
