REMARK  Name = ZINC50864661
REMARK  5 active torsions:
REMARK  status: ('A' for Active; 'I' for Inactive)
REMARK    1  A    between atoms: C_1  and  C_2
REMARK    2  A    between atoms: C_2  and  N_3
REMARK    3  A    between atoms: C_6  and  C_21
REMARK    4  A    between atoms: C_8  and  C_10
REMARK    5  A    between atoms: N_19  and  C_20
REMARK                            x       y       z     vdW  Elec       q    Type
REMARK                         _______ _______ _______ _____ _____    ______ ____
ROOT
ATOM      1  N   UNL     1      -1.272  -0.865   1.439  0.00  0.00    -0.329 N 
ATOM      2  C   UNL     1      -1.545  -2.206   1.228  0.00  0.00    +0.123 A 
ATOM      3  C   UNL     1      -0.511  -3.146   1.215  0.00  0.00    +0.066 A 
ATOM      4  C   UNL     1      -0.829  -4.474   1.001  0.00  0.00    +0.044 A 
ATOM      5  N   UNL     1      -2.095  -4.815   0.815  0.00  0.00    -0.232 NA
ATOM      6  C   UNL     1      -3.056  -3.902   0.832  0.00  0.00    +0.162 A 
ATOM      7  N   UNL     1      -2.793  -2.619   1.040  0.00  0.00    -0.213 NA
ATOM      8  C   UNL     1       0.254  -5.522   0.978  0.00  0.00    +0.066 C 
ATOM      9  H   UNL     1      -1.996  -0.218   1.450  0.00  0.00    +0.147 HD
ENDROOT
BRANCH   6  10
ATOM     10  C   UNL     1      -4.460  -4.327   0.619  0.00  0.00    +0.020 A 
ATOM     11  C   UNL     1      -5.485  -3.381   0.627  0.00  0.00    +0.013 A 
ATOM     12  C   UNL     1      -6.787  -3.782   0.430  0.00  0.00    +0.024 A 
ATOM     13  C   UNL     1      -7.082  -5.127   0.221  0.00  0.00    +0.033 A 
ATOM     14  C   UNL     1      -6.065  -6.072   0.209  0.00  0.00    -0.026 A 
ATOM     15  C   UNL     1      -4.757  -5.671   0.404  0.00  0.00    +0.017 A 
ATOM     16  C   UNL     1      -6.351  -7.532  -0.025  0.00  0.00    +0.038 C 
ATOM     17  C   UNL     1      -7.816  -7.846   0.276  0.00  0.00    +0.024 C 
ATOM     18  C   UNL     1      -8.702  -6.851  -0.486  0.00  0.00    +0.105 C 
ATOM     19  N   UNL     1      -8.413  -5.506   0.029  0.00  0.00    -0.333 N 
ATOM     20  C   UNL     1      -9.503  -4.577   0.335  0.00  0.00    +0.129 C 
ENDBRANCH   6  10
BRANCH   1  22
ATOM     21  C   UNL     1       0.132   1.094   1.854  0.00  0.00    +0.024 C 
ATOM     22  C   UNL     1       0.109  -0.421   1.645  0.00  0.00    +0.099 C 
ENDBRANCH   1  22
TORSDOF 2
