REMARK  Name = ZINC17135700
REMARK  6 active torsions:
REMARK  status: ('A' for Active; 'I' for Inactive)
REMARK    1  A    between atoms: C_1  and  C_2
REMARK    2  A    between atoms: C_6  and  N_9
REMARK    3  A    between atoms: C_7  and  C_8
REMARK    4  A    between atoms: C_10  and  N_17
REMARK    5  A    between atoms: C_18  and  C_20
REMARK    6  A    between atoms: C_21  and  C_22
REMARK                            x       y       z     vdW  Elec       q    Type
REMARK                         _______ _______ _______ _____ _____    ______ ____
ROOT
ATOM      1  N   UNL     1       2.040   0.717   2.324  0.00  0.00    -0.218 N 
ATOM      2  C   UNL     1       2.890   1.768   2.207  0.00  0.00    +0.133 A 
ATOM      3  C   UNL     1       2.310   2.845   2.838  0.00  0.00    +0.026 A 
ATOM      4  C   UNL     1       1.088   2.432   3.343  0.00  0.00    +0.079 A 
ATOM      5  N   UNL     1       0.922   1.153   3.036  0.00  0.00    -0.168 NA
ATOM      6  C   UNL     1       0.262   3.480   4.086  0.00  0.00    +0.127 C 
ATOM      7  S   UNL     1       1.518   4.787   4.408  0.00  0.00    -0.150 S 
ATOM      8  C   UNL     1       2.699   4.301   3.084  0.00  0.00    +0.110 C 
ENDROOT
BRANCH   1  14
ATOM      9  C   UNL     1       2.023  -4.152   3.017  0.00  0.00    +0.044 C 
ATOM     10  C   UNL     1       2.247  -2.951   2.134  0.00  0.00    -0.046 A 
ATOM     11  C   UNL     1       2.657  -3.123   0.825  0.00  0.00    +0.004 A 
ATOM     12  C   UNL     1       2.864  -2.024   0.012  0.00  0.00    +0.002 A 
ATOM     13  C   UNL     1       2.655  -0.750   0.504  0.00  0.00    +0.028 A 
ATOM     14  C   UNL     1       2.248  -0.574   1.820  0.00  0.00    +0.071 A 
ATOM     15  C   UNL     1       2.042  -1.680   2.634  0.00  0.00    -0.022 A 
ATOM     16  C   UNL     1       1.595  -1.493   4.061  0.00  0.00    +0.046 C 
ENDBRANCH   1  14
BRANCH   2  17
ATOM     17  N   UNL     1       4.126   1.759   1.564  0.00  0.00    -0.267 N 
ATOM     18  C   UNL     1       4.609   2.892   1.017  0.00  0.00    +0.242 C 
ATOM     19  O   UNL     1       3.992   3.934   1.131  0.00  0.00    -0.270 OA
ATOM     20  H   UNL     1       4.639   0.937   1.510  0.00  0.00    +0.157 HD
BRANCH  18  21
ATOM     21  C   UNL     1       5.876   2.868   0.284  0.00  0.00    +0.068 C 
ATOM     22  C   UNL     1       6.316   3.981  -0.338  0.00  0.00    +0.013 C 
BRANCH  22  23
ATOM     23  C   UNL     1       5.419   5.136  -0.501  0.00  0.00    -0.025 A 
ATOM     24  C   UNL     1       4.097   4.947  -0.916  0.00  0.00    +0.008 A 
ATOM     25  C   UNL     1       3.261   6.034  -1.060  0.00  0.00    +0.001 A 
ATOM     26  C   UNL     1       3.731   7.311  -0.807  0.00  0.00    +0.000 A 
ATOM     27  C   UNL     1       5.040   7.507  -0.401  0.00  0.00    +0.001 A 
ATOM     28  C   UNL     1       5.886   6.430  -0.246  0.00  0.00    +0.008 A 
ENDBRANCH  22  23
ENDBRANCH  18  21
ENDBRANCH   2  17
TORSDOF 4
