REMARK  Name = ZINC38792774
REMARK  6 active torsions:
REMARK  status: ('A' for Active; 'I' for Inactive)
REMARK    1  A    between atoms: C_4  and  C_7
REMARK    2  A    between atoms: C_7  and  N_8
REMARK    3  A    between atoms: C_11  and  N_14
REMARK    4  A    between atoms: C_15  and  C_17
REMARK    5  A    between atoms: C_17  and  S_18
REMARK    6  A    between atoms: S_18  and  C_19
REMARK                            x       y       z     vdW  Elec       q    Type
REMARK                         _______ _______ _______ _____ _____    ______ ____
ROOT
ATOM      1  N   UNL     1       7.307  -1.835   2.882  0.00  0.00    -0.314 N 
ATOM      2  C   UNL     1       8.537  -1.434   3.260  0.00  0.00    +0.223 C 
ATOM      3  O   UNL     1       8.959  -0.353   2.905  0.00  0.00    -0.275 OA
ATOM      4  H   UNL     1       6.970  -2.699   3.166  0.00  0.00    +0.149 HD
ENDROOT
BRANCH   1   8
ATOM      5  N   UNL     1       4.153  -0.953   1.342  0.00  0.00    +0.384 N 
ATOM      6  C   UNL     1       4.457   0.334   2.004  0.00  0.00    -0.077 C 
ATOM      7  C   UNL     1       5.671   0.032   2.916  0.00  0.00    +0.002 C 
ATOM      8  C   UNL     1       6.479  -0.965   2.044  0.00  0.00    +0.055 C 
ATOM      9  C   UNL     1       5.376  -1.776   1.331  0.00  0.00    -0.056 C 
ATOM     10  H   UNL     1       3.426  -1.432   1.852  0.00  0.00    -0.081 HD
BRANCH   5  11
ATOM     11  C   UNL     1       3.711  -0.707  -0.038  0.00  0.00    -0.043 C 
BRANCH  11  15
ATOM     12  C   UNL     1      -0.017   1.378   0.010  0.00  0.00    +0.000 A 
ATOM     13  C   UNL     1       1.171   2.086   0.002  0.00  0.00    +0.000 A 
ATOM     14  C   UNL     1       2.377   1.411  -0.013  0.00  0.00    +0.002 A 
ATOM     15  C   UNL     1       2.396   0.029  -0.020  0.00  0.00    -0.064 A 
ATOM     16  C   UNL     1       1.208  -0.679  -0.012  0.00  0.00    +0.002 A 
ATOM     17  C   UNL     1       0.002  -0.004   0.002  0.00  0.00    +0.000 A 
ENDBRANCH  11  15
ENDBRANCH   5  11
ENDBRANCH   1   8
BRANCH   2  18
ATOM     18  C   UNL     1       9.389  -2.329   4.123  0.00  0.00    +0.172 C 
BRANCH  18  19
ATOM     19  S   UNL     1      10.976  -1.515   4.457  0.00  0.00    -0.079 S 
BRANCH  19  20
ATOM     20  C   UNL     1      11.845  -2.671   5.463  0.00  0.00    +0.182 C 
ATOM     21  N   UNL     1      11.253  -3.815   5.762  0.00  0.00    -0.151 NA
ATOM     22  C   UNL     1      11.829  -4.747   6.520  0.00  0.00    +0.272 C 
ATOM     23  O   UNL     1      11.255  -5.793   6.774  0.00  0.00    -0.268 OA
ATOM     24  C   UNL     1      13.204  -4.473   7.050  0.00  0.00    +0.071 C 
ATOM     25  C   UNL     1      13.936  -5.239   7.875  0.00  0.00    -0.042 C 
ATOM     26  C   UNL     1      13.404  -6.491   8.569  0.00  0.00    +0.033 C 
ATOM     27  C   UNL     1      13.641  -6.297  10.073  0.00  0.00    +0.004 C 
ATOM     28  C   UNL     1      15.104  -5.952  10.338  0.00  0.00    +0.002 C 
ATOM     29  C   UNL     1      15.476  -4.617   9.686  0.00  0.00    +0.019 C 
ATOM     30  C   UNL     1      15.356  -4.765   8.167  0.00  0.00    +0.079 C 
ATOM     31  S   UNL     1      15.378  -3.114   7.372  0.00  0.00    -0.097 S 
ATOM     32  C   UNL     1      13.762  -3.167   6.637  0.00  0.00    +0.112 C 
ATOM     33  N   UNL     1      13.071  -2.354   5.881  0.00  0.00    -0.217 NA
ENDBRANCH  19  20
ENDBRANCH  18  19
ENDBRANCH   2  18
TORSDOF 6
