REMARK  Name = ZINC35486273
REMARK  14 active torsions:
REMARK  status: ('A' for Active; 'I' for Inactive)
REMARK    1  A    between atoms: C_1  and  C_2
REMARK    2  A    between atoms: C_2  and  N_3
REMARK    3  A    between atoms: N_3  and  C_4
REMARK    4  A    between atoms: N_3  and  C_6
REMARK    5  A    between atoms: C_4  and  C_5
REMARK    6  A    between atoms: C_6  and  C_7
REMARK    7  A    between atoms: C_7  and  N_8
REMARK    8  A    between atoms: C_9  and  C_26
REMARK    9  A    between atoms: C_16  and  C_25
REMARK   10  A    between atoms: C_17  and  C_24
REMARK   11  A    between atoms: C_29  and  C_32
REMARK   12  A    between atoms: C_32  and  C_33
REMARK   13  A    between atoms: C_32  and  C_34
REMARK   14  A    between atoms: C_32  and  C_35
REMARK                            x       y       z     vdW  Elec       q    Type
REMARK                         _______ _______ _______ _____ _____    ______ ____
ROOT
ATOM      1  N   UNL     1      -0.795  -3.595   2.125  0.00  0.00    -0.285 N 
ATOM      2  C   UNL     1      -1.874  -4.291   2.846  0.00  0.00    +0.144 C 
ATOM      3  C   UNL     1      -1.459  -5.724   2.915  0.00  0.00    +0.072 A 
ATOM      4  C   UNL     1      -2.113  -6.892   3.516  0.00  0.00    +0.199 A 
ATOM      5  O   UNL     1      -3.257  -6.873   3.935  0.00  0.00    -0.287 OA
ATOM      6  C   UNL     1      -1.248  -8.098   3.564  0.00  0.00    +0.065 A 
ATOM      7  C   UNL     1      -1.649  -9.226   4.280  0.00  0.00    +0.019 A 
ATOM      8  C   UNL     1      -0.839 -10.326   4.319  0.00  0.00    -0.047 A 
ATOM      9  C   UNL     1       0.378 -10.323   3.651  0.00  0.00    -0.044 A 
ATOM     10  C   UNL     1       0.788  -9.219   2.938  0.00  0.00    +0.050 A 
ATOM     11  C   UNL     1      -0.021  -8.084   2.881  0.00  0.00    +0.140 A 
ATOM     12  O   UNL     1       0.397  -7.014   2.167  0.00  0.00    -0.450 OA
ATOM     13  C   UNL     1      -0.253  -5.840   2.285  0.00  0.00    +0.199 A 
ATOM     14  C   UNL     1       0.143  -4.507   1.797  0.00  0.00    +0.283 C 
ATOM     15  O   UNL     1       1.167  -4.263   1.190  0.00  0.00    -0.267 OA
ATOM     16  C   UNL     1       1.260 -11.543   3.706  0.00  0.00    +0.044 C 
ATOM     17  C   UNL     1      -1.268 -11.547   5.091  0.00  0.00    +0.044 C 
ENDROOT
BRANCH   2  18
ATOM     18  C   UNL     1      -3.172  -4.160   2.092  0.00  0.00    -0.022 A 
ATOM     19  C   UNL     1      -3.184  -4.262   0.713  0.00  0.00    +0.006 A 
ATOM     20  C   UNL     1      -4.375  -4.142   0.022  0.00  0.00    +0.004 A 
ATOM     21  C   UNL     1      -5.554  -3.921   0.709  0.00  0.00    -0.042 A 
ATOM     22  C   UNL     1      -5.542  -3.821   2.088  0.00  0.00    +0.004 A 
ATOM     23  C   UNL     1      -4.352  -3.945   2.779  0.00  0.00    +0.006 A 
BRANCH  21  24
ATOM     24  C   UNL     1      -6.852  -3.789  -0.045  0.00  0.00    -0.013 C 
ATOM     25  C   UNL     1      -7.118  -5.074  -0.832  0.00  0.00    +0.015 C 
ATOM     26  C   UNL     1      -7.995  -3.552   0.944  0.00  0.00    +0.015 C 
ATOM     27  C   UNL     1      -6.762  -2.608  -1.013  0.00  0.00    +0.015 C 
ENDBRANCH  21  24
ENDBRANCH   2  18
BRANCH   1  28
ATOM     28  C   UNL     1      -0.753  -2.165   1.812  0.00  0.00    +0.090 C 
BRANCH  28  29
ATOM     29  C   UNL     1      -1.417  -1.919   0.456  0.00  0.00    -0.060 C 
BRANCH  29  30
ATOM     30  N   UNL     1      -1.374  -0.485   0.142  0.00  0.00    +0.380 N 
ATOM     31  H   UNL     1      -1.794   0.037   0.896  0.00  0.00    -0.082 HD
BRANCH  30  33
ATOM     32  C   UNL     1       0.077   1.455  -0.214  0.00  0.00    -0.017 C 
ATOM     33  C   UNL     1       0.023  -0.062  -0.027  0.00  0.00    -0.082 C 
ENDBRANCH  30  33
BRANCH  30  34
ATOM     34  C   UNL     1      -2.116  -0.233  -1.101  0.00  0.00    -0.082 C 
ATOM     35  C   UNL     1      -3.600  -0.533  -0.879  0.00  0.00    -0.017 C 
ENDBRANCH  30  34
ENDBRANCH  29  30
ENDBRANCH  28  29
ENDBRANCH   1  28
TORSDOF 7
