REMARK  Name = ZINC64054860
REMARK  9 active torsions:
REMARK  status: ('A' for Active; 'I' for Inactive)
REMARK    1  A    between atoms: C_4  and  C_7
REMARK    2  A    between atoms: C_7  and  N_8
REMARK    3  A    between atoms: N_8  and  S_9
REMARK    4  A    between atoms: S_9  and  C_12
REMARK    5  A    between atoms: C_16  and  C_18
REMARK    6  A    between atoms: C_18  and  O_20
REMARK    7  A    between atoms: O_20  and  C_21
REMARK    8  A    between atoms: C_21  and  C_22
REMARK    9  A    between atoms: C_22  and  C_24
REMARK                            x       y       z     vdW  Elec       q    Type
REMARK                         _______ _______ _______ _____ _____    ______ ____
ROOT
ATOM      1  C   UNL     1       6.827  -1.425   0.900  0.00  0.00    +0.106 A 
ATOM      2  C   UNL     1       7.133  -1.749  -0.411  0.00  0.00    +0.028 A 
ATOM      3  C   UNL     1       8.287  -1.263  -0.999  0.00  0.00    +0.003 A 
ATOM      4  C   UNL     1       9.141  -0.451  -0.281  0.00  0.00    +0.015 A 
ATOM      5  C   UNL     1       8.839  -0.121   1.041  0.00  0.00    +0.061 A 
ATOM      6  C   UNL     1       7.669  -0.610   1.627  0.00  0.00    +0.043 A 
ENDROOT
BRANCH   1   7
ATOM      7  S   UNL     1       5.355  -2.050   1.639  0.00  0.00    +0.059 S 
ATOM      8  O   UNL     1       5.570  -2.042   3.043  0.00  0.00    -0.153 OA
ATOM      9  O   UNL     1       5.013  -3.232   0.927  0.00  0.00    -0.153 OA
BRANCH   7  10
ATOM     10  N   UNL     1       4.152  -0.952   1.338  0.00  0.00    -0.186 NA
ATOM     11  H   UNL     1       3.739  -0.472   2.072  0.00  0.00    +0.148 HD
BRANCH  10  12
ATOM     12  C   UNL     1       3.711  -0.707  -0.038  0.00  0.00    +0.141 C 
BRANCH  12  16
ATOM     13  C   UNL     1      -0.017   1.378   0.010  0.00  0.00    +0.000 A 
ATOM     14  C   UNL     1       1.171   2.086   0.002  0.00  0.00    +0.000 A 
ATOM     15  C   UNL     1       2.377   1.411  -0.013  0.00  0.00    +0.005 A 
ATOM     16  C   UNL     1       2.396   0.029  -0.020  0.00  0.00    -0.032 A 
ATOM     17  C   UNL     1       1.208  -0.679  -0.012  0.00  0.00    +0.005 A 
ATOM     18  C   UNL     1       0.002  -0.004   0.002  0.00  0.00    +0.000 A 
ENDBRANCH  12  16
ENDBRANCH  10  12
ENDBRANCH   7  10
ENDBRANCH   1   7
BRANCH   5  19
ATOM     19  C   UNL     1       9.749   0.747   1.816  0.00  0.00    +0.340 C 
ATOM     20  O   UNL     1       9.483   1.033   2.966  0.00  0.00    -0.245 OA
BRANCH  19  21
ATOM     21  O   UNL     1      10.874   1.222   1.246  0.00  0.00    -0.453 OA
BRANCH  21  22
ATOM     22  C   UNL     1      11.708   2.056   2.054  0.00  0.00    +0.311 C 
BRANCH  22  23
ATOM     23  C   UNL     1      12.910   2.489   1.254  0.00  0.00    +0.199 C 
ATOM     24  O   UNL     1      13.040   2.119   0.105  0.00  0.00    -0.289 OA
BRANCH  23  25
ATOM     25  C   UNL     1      13.884   3.324   1.842  0.00  0.00    +0.026 C 
ATOM     26  C   UNL     1      15.034   3.812   1.249  0.00  0.00    +0.006 A 
ATOM     27  C   UNL     1      15.591   3.659  -0.043  0.00  0.00    +0.010 A 
ATOM     28  C   UNL     1      16.757   4.264  -0.358  0.00  0.00    +0.001 A 
ATOM     29  C   UNL     1      17.465   5.060   0.557  0.00  0.00    +0.002 A 
ATOM     30  C   UNL     1      17.021   5.270   1.815  0.00  0.00    +0.026 A 
ATOM     31  C   UNL     1      15.757   4.647   2.240  0.00  0.00    +0.043 A 
ATOM     32  N   UNL     1      15.108   4.679   3.369  0.00  0.00    -0.380 N 
ATOM     33  C   UNL     1      13.886   3.877   3.250  0.00  0.00    +0.152 C 
ATOM     34  H   UNL     1      15.388   5.160   4.163  0.00  0.00    +0.160 HD
ENDBRANCH  23  25
ENDBRANCH  22  23
ENDBRANCH  21  22
ENDBRANCH  19  21
ENDBRANCH   5  19
TORSDOF 9
