REMARK  Name = ZINC63985138
REMARK  4 active torsions:
REMARK  status: ('A' for Active; 'I' for Inactive)
REMARK    1  A    between atoms: C_10  and  N_11
REMARK    2  A    between atoms: C_12  and  O_36
REMARK    3  A    between atoms: C_15  and  O_35
REMARK    4  A    between atoms: C_16  and  C_20
REMARK                            x       y       z     vdW  Elec       q    Type
REMARK                         _______ _______ _______ _____ _____    ______ ____
ROOT
ATOM      1  N   UNL     1       4.871   0.098  -0.045  0.00  0.00    -0.225 N 
ATOM      2  C   UNL     1       5.487   0.445   1.227  0.00  0.00    +0.338 C 
ATOM      3  N   UNL     1       6.902   0.747   1.087  0.00  0.00    -0.204 NA
ATOM      4  C   UNL     1       7.459   1.077  -0.013  0.00  0.00    +0.200 C 
ATOM      5  C   UNL     1       6.707   1.189  -1.307  0.00  0.00    +0.179 C 
ATOM      6  C   UNL     1       5.412   0.433  -1.224  0.00  0.00    +0.237 C 
ATOM      7  O   UNL     1       4.840   0.123  -2.248  0.00  0.00    -0.274 OA
ENDROOT
BRANCH   5   8
ATOM      8  C   UNL     1       6.416   2.663  -1.597  0.00  0.00    +0.101 C 
ATOM      9  C   UNL     1       7.732   3.415  -1.814  0.00  0.00    +0.124 C 
ATOM     10  C   UNL     1       7.365   4.891  -1.924  0.00  0.00    -0.036 C 
ATOM     11  C   UNL     1       7.887   5.323  -3.064  0.00  0.00    -0.001 A 
ATOM     12  C   UNL     1       7.944   6.662  -3.673  0.00  0.00    +0.010 A 
ATOM     13  C   UNL     1       8.556   6.745  -4.883  0.00  0.00    +0.001 A 
ATOM     14  C   UNL     1       9.111   5.643  -5.541  0.00  0.00    +0.002 A 
ATOM     15  C   UNL     1       9.110   4.377  -5.053  0.00  0.00    +0.026 A 
ATOM     16  C   UNL     1       8.499   4.164  -3.783  0.00  0.00    +0.043 A 
ATOM     17  N   UNL     1       8.383   3.058  -3.073  0.00  0.00    -0.376 N 
ATOM     18  C   UNL     1       6.483   5.566  -0.902  0.00  0.00    +0.048 C 
ATOM     19  C   UNL     1       5.271   4.639  -0.700  0.00  0.00    +0.085 C 
ATOM     20  N   UNL     1       5.721   3.267  -0.449  0.00  0.00    -0.310 NA
ATOM     21  H   UNL     1       4.956   2.685  -0.143  0.00  0.00    +0.122 HD
ATOM     22  H   UNL     1       8.668   2.168  -3.332  0.00  0.00    +0.160 HD
ENDBRANCH   5   8
BRANCH   1  32
ATOM     23  C   UNL     1      -0.016   1.357   0.009  0.00  0.00    +0.001 A 
ATOM     24  C   UNL     1       1.169   2.090   0.002  0.00  0.00    +0.001 A 
ATOM     25  C   UNL     1       2.378   1.466  -0.013  0.00  0.00    +0.010 A 
ATOM     26  C   UNL     1       2.437   0.064  -0.021  0.00  0.00    +0.004 A 
ATOM     27  C   UNL     1       1.233  -0.683  -0.013  0.00  0.00    -0.016 A 
ATOM     28  C   UNL     1       0.002  -0.004   0.002  0.00  0.00    +0.008 A 
ATOM     29  C   UNL     1       1.290  -2.087  -0.021  0.00  0.00    +0.008 A 
ATOM     30  C   UNL     1       2.496  -2.718  -0.036  0.00  0.00    +0.002 A 
ATOM     31  C   UNL     1       3.685  -1.996  -0.043  0.00  0.00    +0.024 A 
ATOM     32  C   UNL     1       3.672  -0.618  -0.037  0.00  0.00    +0.048 A 
ENDBRANCH   1  32
BRANCH   4  33
ATOM     33  O   UNL     1       8.783   1.337  -0.012  0.00  0.00    -0.495 OA
ATOM     34  H   UNL     1       9.202   1.245   0.855  0.00  0.00    +0.293 HD
ENDBRANCH   4  33
BRANCH   2  35
ATOM     35  O   UNL     1       4.822   1.588   1.768  0.00  0.00    -0.356 OA
ATOM     36  H   UNL     1       5.175   1.883   2.619  0.00  0.00    +0.214 HD
ENDBRANCH   2  35
TORSDOF 4
