REMARK  Name = ZINC33743123
REMARK  13 active torsions:
REMARK  status: ('A' for Active; 'I' for Inactive)
REMARK    1  A    between atoms: C_1  and  C_2
REMARK    2  A    between atoms: C_2  and  C_40
REMARK    3  A    between atoms: C_7  and  C_11
REMARK    4  A    between atoms: C_11  and  N_12
REMARK    5  A    between atoms: N_12  and  C_13
REMARK    6  A    between atoms: N_12  and  C_22
REMARK    7  A    between atoms: C_13  and  C_14
REMARK    8  A    between atoms: C_14  and  C_15
REMARK    9  A    between atoms: C_15  and  C_16
REMARK   10  A    between atoms: C_22  and  C_23
REMARK   11  A    between atoms: C_23  and  N_24
REMARK   12  A    between atoms: N_27  and  S_30
REMARK   13  A    between atoms: S_30  and  C_33
REMARK                            x       y       z     vdW  Elec       q    Type
REMARK                         _______ _______ _______ _____ _____    ______ ____
ROOT
ATOM      1  N   UNL     1      -0.892   1.175   1.184  0.00  0.00    +0.383 N 
ATOM      2  H   UNL     1      -1.161   2.229   1.350  0.00  0.00    -0.081 HD
ENDROOT
BRANCH   1   3
ATOM      3  C   UNL     1      -2.131   0.385   1.198  0.00  0.00    -0.047 C 
BRANCH   3   9
ATOM      4  C   UNL     1       0.079  -3.138  -1.645  0.00  0.00    +0.012 C 
ATOM      5  C   UNL     1      -0.348  -2.656  -0.257  0.00  0.00    -0.025 C 
ATOM      6  C   UNL     1      -1.250  -3.652   0.500  0.00  0.00    -0.000 C 
ATOM      7  C   UNL     1      -1.307  -3.309   1.995  0.00  0.00    +0.031 C 
ATOM      8  C   UNL     1      -1.666  -1.835   2.150  0.00  0.00    -0.029 C 
ATOM      9  C   UNL     1      -1.794  -1.079   1.083  0.00  0.00    -0.086 C 
ATOM     10  C   UNL     1      -1.583  -1.737  -0.269  0.00  0.00    +0.019 C 
ATOM     11  C   UNL     1      -2.405  -3.048  -0.316  0.00  0.00    +0.012 C 
ATOM     12  C   UNL     1       0.817  -2.116   0.574  0.00  0.00    +0.012 C 
ENDBRANCH   3   9
ENDBRANCH   1   3
BRANCH   1  13
ATOM     13  C   UNL     1       0.007   0.762   2.270  0.00  0.00    -0.078 C 
BRANCH  13  14
ATOM     14  C   UNL     1      -0.565   1.226   3.611  0.00  0.00    -0.014 C 
BRANCH  14  15
ATOM     15  C   UNL     1       0.404   0.854   4.735  0.00  0.00    +0.033 C 
BRANCH  15  16
ATOM     16  C   UNL     1      -0.212   1.204   6.065  0.00  0.00    -0.047 A 
ATOM     17  C   UNL     1      -0.080   2.484   6.572  0.00  0.00    +0.003 A 
ATOM     18  C   UNL     1      -0.648   2.807   7.790  0.00  0.00    +0.000 A 
ATOM     19  C   UNL     1      -1.341   1.848   8.506  0.00  0.00    +0.000 A 
ATOM     20  C   UNL     1      -1.469   0.567   8.001  0.00  0.00    +0.000 A 
ATOM     21  C   UNL     1      -0.904   0.245   6.781  0.00  0.00    +0.003 A 
ENDBRANCH  15  16
ENDBRANCH  14  15
ENDBRANCH  13  14
ENDBRANCH   1  13
BRANCH   1  22
ATOM     22  C   UNL     1      -0.222   1.080  -0.119  0.00  0.00    -0.063 C 
BRANCH  22  23
ATOM     23  C   UNL     1      -1.020   1.866  -1.162  0.00  0.00    +0.066 C 
BRANCH  23  24
ATOM     24  N   UNL     1      -0.350   1.771  -2.466  0.00  0.00    -0.302 NA
ATOM     25  C   UNL     1       0.956   2.443  -2.436  0.00  0.00    +0.101 C 
ATOM     26  C   UNL     1       1.698   2.168  -3.748  0.00  0.00    +0.125 C 
ATOM     27  N   UNL     1       0.825   2.554  -4.868  0.00  0.00    -0.174 NA
ATOM     28  C   UNL     1      -0.548   2.027  -4.893  0.00  0.00    +0.125 C 
ATOM     29  C   UNL     1      -1.202   2.308  -3.535  0.00  0.00    +0.101 C 
BRANCH  27  30
ATOM     30  S   UNL     1       1.374   3.553  -6.069  0.00  0.00    +0.061 S 
ATOM     31  O   UNL     1       2.790   3.429  -6.084  0.00  0.00    -0.153 OA
ATOM     32  O   UNL     1       0.574   3.290  -7.213  0.00  0.00    -0.153 OA
BRANCH  30  33
ATOM     33  C   UNL     1       1.018   5.206  -5.574  0.00  0.00    +0.106 A 
ATOM     34  C   UNL     1      -0.184   5.789  -5.928  0.00  0.00    +0.031 A 
ATOM     35  C   UNL     1      -0.467   7.084  -5.537  0.00  0.00    +0.040 A 
ATOM     36  C   UNL     1       0.460   7.801  -4.799  0.00  0.00    +0.124 A 
ATOM     37  C   UNL     1       1.666   7.218  -4.449  0.00  0.00    +0.040 A 
ATOM     38  C   UNL     1       1.944   5.921  -4.838  0.00  0.00    +0.031 A 
ATOM     39  F   UNL     1       0.187   9.069  -4.420  0.00  0.00    -0.205 F 
ENDBRANCH  30  33
ENDBRANCH  27  30
ENDBRANCH  23  24
ENDBRANCH  22  23
ENDBRANCH   1  22
TORSDOF 11
