REMARK  Name = ZINC21856460
REMARK  10 active torsions:
REMARK  status: ('A' for Active; 'I' for Inactive)
REMARK    1  A    between atoms: C_1  and  C_2
REMARK    2  A    between atoms: C_7  and  C_8
REMARK    3  A    between atoms: C_8  and  N_9
REMARK    4  A    between atoms: C_15  and  O_35
REMARK    5  A    between atoms: C_18  and  O_33
REMARK    6  A    between atoms: C_22  and  C_23
REMARK    7  A    between atoms: C_22  and  C_24
REMARK    8  A    between atoms: N_26  and  C_27
REMARK    9  A    between atoms: O_33  and  C_34
REMARK   10  A    between atoms: O_35  and  C_36
REMARK                            x       y       z     vdW  Elec       q    Type
REMARK                         _______ _______ _______ _____ _____    ______ ____
ROOT
ATOM      1  N   UNL     1       1.833   1.052  -0.261  0.00  0.00    -0.276 N 
ATOM      2  C   UNL     1       0.803   0.201  -0.045  0.00  0.00    +0.264 C 
ATOM      3  O   UNL     1       0.961  -1.005  -0.036  0.00  0.00    -0.268 OA
ATOM      4  C   UNL     1      -0.519   0.812   0.172  0.00  0.00    +0.106 A 
ATOM      5  C   UNL     1      -1.673   0.248   0.593  0.00  0.00    +0.044 A 
ATOM      6  C   UNL     1      -2.638   1.267   0.662  0.00  0.00    +0.046 A 
ATOM      7  C   UNL     1      -3.995   1.245   1.035  0.00  0.00    +0.129 A 
ATOM      8  C   UNL     1      -4.674   2.453   1.000  0.00  0.00    +0.050 A 
ATOM      9  C   UNL     1      -4.054   3.631   0.616  0.00  0.00    +0.051 A 
ATOM     10  C   UNL     1      -2.720   3.678   0.241  0.00  0.00    +0.144 A 
ATOM     11  C   UNL     1      -2.005   2.476   0.264  0.00  0.00    +0.095 A 
ATOM     12  N   UNL     1      -0.717   2.179  -0.038  0.00  0.00    -0.331 N 
ATOM     13  C   UNL     1       0.367   3.040  -0.521  0.00  0.00    +0.157 C 
ATOM     14  C   UNL     1       1.706   2.487  -0.036  0.00  0.00    +0.129 C 
ATOM     15  C   UNL     1       1.841   2.768   1.462  0.00  0.00    +0.043 C 
ENDROOT
BRANCH  14  16
ATOM     16  C   UNL     1       2.818   3.195  -0.766  0.00  0.00    +0.238 C 
ATOM     17  O   UNL     1       3.452   4.065  -0.208  0.00  0.00    -0.273 OA
ATOM     18  N   UNL     1       3.109   2.860  -2.039  0.00  0.00    -0.311 N 
ATOM     19  H   UNL     1       2.473   2.143  -2.578  0.00  0.00    +0.149 HD
BRANCH  18  20
ATOM     20  C   UNL     1       4.272   3.452  -2.705  0.00  0.00    +0.073 C 
ATOM     21  C   UNL     1       3.877   4.794  -3.324  0.00  0.00    +0.022 C 
ATOM     22  C   UNL     1       5.092   5.412  -4.019  0.00  0.00    +0.002 C 
ATOM     23  C   UNL     1       5.586   4.469  -5.118  0.00  0.00    +0.000 C 
ATOM     24  C   UNL     1       5.981   3.127  -4.498  0.00  0.00    +0.002 C 
ATOM     25  C   UNL     1       4.766   2.509  -3.803  0.00  0.00    +0.022 C 
ENDBRANCH  18  20
ENDBRANCH  14  16
BRANCH  10  26
ATOM     26  O   UNL     1      -2.131   4.846  -0.134  0.00  0.00    -0.493 OA
ATOM     27  C   UNL     1      -2.948   6.018  -0.123  0.00  0.00    +0.277 C 
ENDBRANCH  10  26
BRANCH   7  28
ATOM     28  O   UNL     1      -4.610   0.094   1.413  0.00  0.00    -0.494 OA
ATOM     29  C   UNL     1      -5.990   0.183   1.772  0.00  0.00    +0.277 C 
ENDBRANCH   7  28
BRANCH   1  30
ATOM     30  C   UNL     1       3.112   0.516  -0.733  0.00  0.00    +0.144 C 
BRANCH  30  37
ATOM     31  C   UNL     1       3.285  -1.237   1.557  0.00  0.00    +0.044 C 
ATOM     32  C   UNL     1       4.254  -0.092   1.410  0.00  0.00    -0.046 A 
ATOM     33  C   UNL     1       5.228   0.117   2.368  0.00  0.00    +0.003 A 
ATOM     34  C   UNL     1       6.113   1.169   2.236  0.00  0.00    +0.000 A 
ATOM     35  C   UNL     1       6.027   2.011   1.142  0.00  0.00    +0.000 A 
ATOM     36  C   UNL     1       5.056   1.800   0.182  0.00  0.00    +0.005 A 
ATOM     37  C   UNL     1       4.171   0.746   0.314  0.00  0.00    -0.027 A 
ENDBRANCH  30  37
ENDBRANCH   1  30
TORSDOF 6
