REMARK  Name = ZINC15859434
REMARK  5 active torsions:
REMARK  status: ('A' for Active; 'I' for Inactive)
REMARK    1  A    between atoms: C_7  and  N_24
REMARK    2  A    between atoms: C_8  and  C_10
REMARK    3  A    between atoms: C_10  and  C_12
REMARK    4  A    between atoms: C_10  and  N_54
REMARK    5  A    between atoms: C_25  and  C_27
REMARK                            x       y       z     vdW  Elec       q    Type
REMARK                         _______ _______ _______ _____ _____    ______ ____
ROOT
ATOM      1  C   UNL     1      -0.102   0.515  -3.270  0.00  0.00    +0.001 A 
ATOM      2  C   UNL     1      -0.427  -0.745  -2.790  0.00  0.00    +0.004 A 
ATOM      3  C   UNL     1      -0.155  -1.093  -1.484  0.00  0.00    +0.047 A 
ATOM      4  C   UNL     1       0.451  -0.173  -0.637  0.00  0.00    +0.137 A 
ATOM      5  C   UNL     1       0.779   1.101  -1.130  0.00  0.00    +0.042 A 
ATOM      6  C   UNL     1       0.492   1.435  -2.451  0.00  0.00    +0.013 A 
ATOM      7  C   UNL     1       1.395   1.813   0.000  0.00  0.00    +0.082 A 
ATOM      8  C   UNL     1       1.389   0.951   1.032  0.00  0.00    +0.118 A 
ATOM      9  O   UNL     1       0.833  -0.216   0.655  0.00  0.00    -0.459 OA
ENDROOT
BRANCH   7  10
ATOM     10  N   UNL     1       1.890   3.128   0.000  0.00  0.00    -0.278 N 
ATOM     11  C   UNL     1       1.054   4.163   0.216  0.00  0.00    +0.255 C 
ATOM     12  O   UNL     1      -0.112   3.955   0.499  0.00  0.00    -0.269 OA
ATOM     13  H   UNL     1       2.833   3.291  -0.155  0.00  0.00    +0.155 HD
BRANCH  11  14
ATOM     14  C   UNL     1       1.548   5.539   0.110  0.00  0.00    +0.074 A 
ATOM     15  C   UNL     1       0.862   6.730   0.290  0.00  0.00    +0.021 A 
ATOM     16  C   UNL     1       1.575   7.892   0.129  0.00  0.00    +0.008 A 
ATOM     17  C   UNL     1       2.893   7.822  -0.195  0.00  0.00    +0.046 A 
ATOM     18  S   UNL     1       3.191   6.117  -0.278  0.00  0.00    -0.092 S 
ENDBRANCH  11  14
ENDBRANCH   7  10
BRANCH   8  19
ATOM     19  C   UNL     1       1.925   1.248   2.409  0.00  0.00    +0.032 C 
BRANCH  19  20
ATOM     20  C   UNL     1       3.244   0.544   2.597  0.00  0.00    -0.053 A 
ATOM     21  C   UNL     1       3.271  -0.800   2.920  0.00  0.00    +0.002 A 
ATOM     22  C   UNL     1       4.480  -1.448   3.087  0.00  0.00    +0.001 A 
ATOM     23  C   UNL     1       5.664  -0.749   2.942  0.00  0.00    +0.015 A 
ATOM     24  C   UNL     1       5.638   0.597   2.624  0.00  0.00    +0.018 A 
ATOM     25  C   UNL     1       4.427   1.243   2.452  0.00  0.00    +0.017 A 
ATOM     26 BR   UNL     1       7.258   1.553   2.426  0.00  0.00    -0.050 Br
ENDBRANCH  19  20
BRANCH  19  32
ATOM     27  C   UNL     1      -0.358   1.366   3.206  0.00  0.00    -0.077 C 
ATOM     28  C   UNL     1      -1.359   0.742   4.182  0.00  0.00    -0.019 C 
ATOM     29  C   UNL     1      -0.891   0.998   5.617  0.00  0.00    -0.004 C 
ATOM     30  C   UNL     1       0.514   0.415   5.799  0.00  0.00    -0.019 C 
ATOM     31  C   UNL     1       1.460   1.048   4.776  0.00  0.00    -0.077 C 
ATOM     32  N   UNL     1       0.967   0.745   3.416  0.00  0.00    +0.389 N 
ATOM     33  H   UNL     1       0.879  -0.272   3.312  0.00  0.00    -0.080 HD
ENDBRANCH  19  32
ENDBRANCH   8  19
TORSDOF 5
