REMARK  Name = ZINC40988379
REMARK  11 active torsions:
REMARK  status: ('A' for Active; 'I' for Inactive)
REMARK    1  A    between atoms: C_1  and  C_2
REMARK    2  A    between atoms: C_2  and  N_3
REMARK    3  A    between atoms: N_3  and  C_4
REMARK    4  A    between atoms: N_3  and  C_6
REMARK    5  A    between atoms: C_4  and  C_5
REMARK    6  A    between atoms: C_6  and  C_8
REMARK    7  A    between atoms: C_6  and  C_29
REMARK    8  A    between atoms: C_8  and  N_9
REMARK    9  A    between atoms: C_10  and  C_12
REMARK   10  A    between atoms: N_15  and  C_17
REMARK   11  A    between atoms: C_32  and  C_35
REMARK                            x       y       z     vdW  Elec       q    Type
REMARK                         _______ _______ _______ _____ _____    ______ ____
ROOT
ATOM      1  N   UNL     1      -1.681  -2.422   0.788  0.00  0.00    -0.311 N 
ATOM      2  C   UNL     1      -1.304  -3.460   0.015  0.00  0.00    +0.264 C 
ATOM      3  O   UNL     1      -1.092  -3.289  -1.170  0.00  0.00    -0.268 OA
ATOM      4  H   UNL     1      -1.780  -2.541   1.746  0.00  0.00    +0.149 HD
ENDROOT
BRANCH   2   5
ATOM      5  C   UNL     1      -1.150  -4.804   0.608  0.00  0.00    +0.150 A 
ATOM      6  C   UNL     1      -0.671  -5.956  -0.039  0.00  0.00    +0.006 A 
ATOM      7  C   UNL     1      -0.707  -6.945   0.888  0.00  0.00    +0.044 A 
ATOM      8  N   UNL     1      -1.178  -6.408   2.025  0.00  0.00    -0.263 N 
ATOM      9  N   UNL     1      -1.429  -5.156   1.851  0.00  0.00    -0.166 NA
ATOM     10  C   UNL     1      -0.281  -8.365   0.617  0.00  0.00    +0.055 C 
ATOM     11  C   UNL     1      -0.224  -8.571  -0.902  0.00  0.00    +0.006 C 
ATOM     12  C   UNL     1       0.589  -7.443  -1.544  0.00  0.00    +0.005 C 
ATOM     13  C   UNL     1      -0.200  -6.130  -1.456  0.00  0.00    +0.039 C 
BRANCH   8  14
ATOM     14  C   UNL     1      -1.373  -7.137   3.280  0.00  0.00    +0.130 C 
ATOM     15  C   UNL     1      -0.522  -6.488   4.385  0.00  0.00    +0.051 C 
ATOM     16  C   UNL     1      -0.980  -7.070   5.753  0.00  0.00    +0.168 C 
ATOM     17  S   UNL     1      -2.806  -7.105   5.511  0.00  0.00    -0.029 S 
ATOM     18  O   UNL     1      -3.361  -5.892   6.001  0.00  0.00    -0.174 OA
ATOM     19  O   UNL     1      -3.311  -8.347   5.984  0.00  0.00    -0.174 OA
ATOM     20  C   UNL     1      -2.869  -7.091   3.674  0.00  0.00    +0.192 C 
ENDBRANCH   8  14
ENDBRANCH   2   5
BRANCH   1  21
ATOM     21  C   UNL     1      -1.941  -1.113   0.182  0.00  0.00    +0.094 C 
BRANCH  21  22
ATOM     22  C   UNL     1      -2.209  -0.086   1.284  0.00  0.00    -0.020 C 
BRANCH  22  23
ATOM     23  C   UNL     1      -2.355   1.282   0.669  0.00  0.00    -0.059 A 
ATOM     24  C   UNL     1      -2.704   1.408  -0.663  0.00  0.00    +0.002 A 
ATOM     25  C   UNL     1      -2.838   2.663  -1.227  0.00  0.00    +0.003 A 
ATOM     26  C   UNL     1      -2.624   3.792  -0.459  0.00  0.00    -0.050 A 
ATOM     27  C   UNL     1      -2.276   3.667   0.874  0.00  0.00    +0.003 A 
ATOM     28  C   UNL     1      -2.147   2.412   1.438  0.00  0.00    +0.002 A 
ATOM     29  C   UNL     1      -2.769   5.161  -1.073  0.00  0.00    +0.044 C 
ENDBRANCH  22  23
BRANCH  22  30
ATOM     30  N   UNL     1      -1.087  -0.080   2.232  0.00  0.00    +0.385 N 
ATOM     31  H   UNL     1      -0.700  -1.008   2.300  0.00  0.00    -0.081 HD
BRANCH  30  33
ATOM     32  C   UNL     1       0.388   0.448   0.350  0.00  0.00    -0.017 C 
ATOM     33  C   UNL     1      -0.052   0.849   1.759  0.00  0.00    -0.081 C 
ENDBRANCH  30  33
BRANCH  30  34
ATOM     34  C   UNL     1      -1.565   0.351   3.553  0.00  0.00    -0.081 C 
ATOM     35  C   UNL     1      -2.481  -0.726   4.139  0.00  0.00    -0.017 C 
ENDBRANCH  30  34
ENDBRANCH  22  30
ENDBRANCH  21  22
ENDBRANCH   1  21
TORSDOF 8
