REMARK  Name = ZINC39923311
REMARK  8 active torsions:
REMARK  status: ('A' for Active; 'I' for Inactive)
REMARK    1  A    between atoms: C_1  and  C_2
REMARK    2  A    between atoms: C_5  and  C_8
REMARK    3  A    between atoms: C_12  and  S_21
REMARK    4  A    between atoms: N_13  and  C_14
REMARK    5  A    between atoms: S_21  and  C_22
REMARK    6  A    between atoms: C_22  and  C_23
REMARK    7  A    between atoms: N_25  and  N_26
REMARK    8  A    between atoms: C_27  and  C_28
REMARK                            x       y       z     vdW  Elec       q    Type
REMARK                         _______ _______ _______ _____ _____    ______ ____
ROOT
ATOM      1  C   UNL     1       0.060  -4.276  -0.021  0.00  0.00    +0.213 C 
ATOM      2  N   UNL     1      -0.796  -4.798  -1.101  0.00  0.00    -0.242 N 
ATOM      3  N   UNL     1      -1.796  -5.553  -0.476  0.00  0.00    -0.162 NA
ATOM      4  C   UNL     1      -1.655  -5.553   0.807  0.00  0.00    +0.180 C 
ATOM      5  N   UNL     1      -0.553  -4.807   1.208  0.00  0.00    -0.254 N 
ATOM      6  H   UNL     1      -0.689  -4.648  -2.053  0.00  0.00    +0.170 HD
ENDROOT
BRANCH   1  11
ATOM      7  C   UNL     1      -0.014   1.502   0.010  0.00  0.00    +0.044 C 
ATOM      8  C   UNL     1       0.005  -0.005   0.002  0.00  0.00    -0.050 A 
ATOM      9  C   UNL     1      -0.223  -0.693  -1.176  0.00  0.00    +0.004 A 
ATOM     10  C   UNL     1      -0.205  -2.075  -1.183  0.00  0.00    +0.007 A 
ATOM     11  C   UNL     1       0.042  -2.769  -0.014  0.00  0.00    -0.008 A 
ATOM     12  C   UNL     1       0.271  -2.081   1.163  0.00  0.00    +0.007 A 
ATOM     13  C   UNL     1       0.258  -0.699   1.170  0.00  0.00    +0.004 A 
ENDBRANCH   1  11
BRANCH   5  14
ATOM     14  C   UNL     1      -0.112  -4.599   2.518  0.00  0.00    +0.038 A 
ATOM     15  C   UNL     1      -0.982  -4.086   3.472  0.00  0.00    +0.025 A 
ATOM     16  C   UNL     1      -0.543  -3.882   4.766  0.00  0.00    +0.022 A 
ATOM     17  C   UNL     1       0.761  -4.188   5.112  0.00  0.00    +0.041 A 
ATOM     18  C   UNL     1       1.630  -4.699   4.164  0.00  0.00    +0.022 A 
ATOM     19  C   UNL     1       1.195  -4.911   2.870  0.00  0.00    +0.025 A 
ATOM     20 CL   UNL     1       1.308  -3.930   6.739  0.00  0.00    -0.084 Cl
ENDBRANCH   5  14
BRANCH   4  21
ATOM     21  S   UNL     1      -2.730  -6.400   1.917  0.00  0.00    -0.079 S 
BRANCH  21  22
ATOM     22  C   UNL     1      -3.954  -7.183   0.832  0.00  0.00    +0.174 C 
BRANCH  22  23
ATOM     23  C   UNL     1      -4.948  -7.950   1.666  0.00  0.00    +0.242 C 
ATOM     24  O   UNL     1      -4.840  -7.967   2.873  0.00  0.00    -0.273 OA
ATOM     25  N   UNL     1      -5.955  -8.617   1.070  0.00  0.00    -0.206 N 
ATOM     26  H   UNL     1      -6.041  -8.604   0.104  0.00  0.00    +0.177 HD
BRANCH  25  27
ATOM     27  N   UNL     1      -6.879  -9.331   1.845  0.00  0.00    -0.188 NA
ATOM     28  C   UNL     1      -7.858  -9.979   1.266  0.00  0.00    +0.136 C 
BRANCH  28  29
ATOM     29  C   UNL     1      -8.782 -10.693   2.042  0.00  0.00    +0.000 C 
ATOM     30  C   UNL     1      -9.869 -11.434   1.587  0.00  0.00    +0.004 A 
ATOM     31  C   UNL     1     -10.370 -11.697   0.292  0.00  0.00    +0.010 A 
ATOM     32  C   UNL     1     -11.474 -12.472   0.143  0.00  0.00    +0.001 A 
ATOM     33  C   UNL     1     -12.137 -13.023   1.243  0.00  0.00    +0.002 A 
ATOM     34  C   UNL     1     -11.713 -12.814   2.512  0.00  0.00    +0.026 A 
ATOM     35  C   UNL     1     -10.564 -12.013   2.750  0.00  0.00    +0.043 A 
ATOM     36  N   UNL     1      -9.961 -11.664   3.867  0.00  0.00    -0.380 N 
ATOM     37  C   UNL     1      -8.802 -10.824   3.549  0.00  0.00    +0.150 C 
ATOM     38  H   UNL     1     -10.238 -11.925   4.759  0.00  0.00    +0.160 HD
ENDBRANCH  28  29
ENDBRANCH  25  27
ENDBRANCH  22  23
ENDBRANCH  21  22
ENDBRANCH   4  21
TORSDOF 7
