REMARK  Name = ZINC01419096
REMARK  12 active torsions:
REMARK  status: ('A' for Active; 'I' for Inactive)
REMARK    1  A    between atoms: C_1  and  C_2
REMARK    2  A    between atoms: C_5  and  C_8
REMARK    3  A    between atoms: C_8  and  C_10
REMARK    4  A    between atoms: C_8  and  N_22
REMARK    5  A    between atoms: N_12  and  C_13
REMARK    6  A    between atoms: C_16  and  N_19
REMARK    7  A    between atoms: N_19  and  C_20
REMARK    8  A    between atoms: N_19  and  C_21
REMARK    9  A    between atoms: N_22  and  C_23
REMARK   10  A    between atoms: C_23  and  C_24
REMARK   11  A    between atoms: C_31  and  C_33
REMARK   12  A    between atoms: C_33  and  N_34
REMARK                            x       y       z     vdW  Elec       q    Type
REMARK                         _______ _______ _______ _____ _____    ______ ____
ROOT
ATOM      1  C   UNL     1      -5.641   2.821  -2.962  0.00  0.00    +0.193 C 
ENDROOT
BRANCH   1   6
ATOM      2  C   UNL     1      -7.794  -2.436  -4.019  0.00  0.00    +0.044 C 
ATOM      3  C   UNL     1      -7.232  -1.065  -3.743  0.00  0.00    -0.050 A 
ATOM      4  C   UNL     1      -6.469  -0.425  -4.701  0.00  0.00    +0.004 A 
ATOM      5  C   UNL     1      -5.954   0.832  -4.449  0.00  0.00    +0.006 A 
ATOM      6  C   UNL     1      -6.202   1.450  -3.238  0.00  0.00    -0.018 A 
ATOM      7  C   UNL     1      -6.961   0.809  -2.277  0.00  0.00    +0.006 A 
ATOM      8  C   UNL     1      -7.481  -0.447  -2.532  0.00  0.00    +0.004 A 
ENDBRANCH   1   6
BRANCH   1   9
ATOM      9  C   UNL     1      -6.583   3.868  -3.498  0.00  0.00    +0.242 C 
ATOM     10  O   UNL     1      -7.012   4.732  -2.763  0.00  0.00    -0.273 OA
ATOM     11  N   UNL     1      -6.950   3.843  -4.795  0.00  0.00    -0.284 N 
ATOM     12  H   UNL     1      -6.665   3.112  -5.366  0.00  0.00    +0.155 HD
BRANCH  11  13
ATOM     13  C   UNL     1      -7.744   4.873  -5.319  0.00  0.00    +0.034 A 
ATOM     14  C   UNL     1      -8.673   4.596  -6.313  0.00  0.00    +0.025 A 
ATOM     15  C   UNL     1      -9.458   5.609  -6.825  0.00  0.00    +0.025 A 
ATOM     16  C   UNL     1      -9.311   6.907  -6.353  0.00  0.00    +0.029 A 
ATOM     17  C   UNL     1      -8.378   7.185  -5.363  0.00  0.00    +0.025 A 
ATOM     18  C   UNL     1      -7.597   6.170  -4.847  0.00  0.00    +0.025 A 
BRANCH  16  19
ATOM     19  N   UNL     1     -10.104   7.935  -6.876  0.00  0.00    -0.336 N 
ATOM     20  C   UNL     1      -9.950   9.304  -6.378  0.00  0.00    +0.129 C 
ATOM     21  C   UNL     1     -11.088   7.643  -7.921  0.00  0.00    +0.129 C 
ENDBRANCH  16  19
ENDBRANCH  11  13
ENDBRANCH   1   9
BRANCH   1  22
ATOM     22  N   UNL     1      -5.481   3.002  -1.517  0.00  0.00    -0.280 N 
ATOM     23  C   UNL     1      -6.568   3.061  -0.721  0.00  0.00    +0.238 C 
ATOM     24  O   UNL     1      -7.678   3.057  -1.210  0.00  0.00    -0.274 OA
BRANCH  22  25
ATOM     25  C   UNL     1      -4.141   3.120  -0.937  0.00  0.00    +0.147 C 
BRANCH  25  26
ATOM     26  C   UNL     1      -3.575   1.745  -0.697  0.00  0.00    +0.005 A 
ATOM     27  C   UNL     1      -3.580   1.207   0.576  0.00  0.00    +0.008 A 
ATOM     28  C   UNL     1      -3.066  -0.057   0.795  0.00  0.00    +0.000 A 
ATOM     29  C   UNL     1      -2.535  -0.780  -0.257  0.00  0.00    +0.003 A 
ATOM     30  C   UNL     1      -2.524  -0.243  -1.529  0.00  0.00    +0.038 A 
ATOM     31  C   UNL     1      -3.044   1.021  -1.751  0.00  0.00    +0.128 A 
ATOM     32  F   UNL     1      -3.033   1.548  -2.995  0.00  0.00    -0.205 F 
ENDBRANCH  25  26
ENDBRANCH  22  25
BRANCH  23  33
ATOM     33  C   UNL     1      -6.403   3.130   0.775  0.00  0.00    +0.241 C 
BRANCH  33  34
ATOM     34  N   UNL     1      -7.722   3.184   1.410  0.00  0.00    -0.235 N 
ATOM     35  C   UNL     1      -8.443   4.315   1.713  0.00  0.00    +0.090 A 
ATOM     36  C   UNL     1      -8.219   5.677   1.546  0.00  0.00    +0.029 A 
ATOM     37  C   UNL     1      -9.157   6.577   1.970  0.00  0.00    +0.002 A 
ATOM     38  C   UNL     1     -10.339   6.142   2.557  0.00  0.00    +0.002 A 
ATOM     39  C   UNL     1     -10.584   4.811   2.727  0.00  0.00    +0.032 A 
ATOM     40  C   UNL     1      -9.636   3.868   2.307  0.00  0.00    +0.113 A 
ATOM     41  N   UNL     1      -9.597   2.521   2.341  0.00  0.00    -0.129 NA
ATOM     42  N   UNL     1      -8.498   2.093   1.827  0.00  0.00    -0.064 NA
ENDBRANCH  33  34
ENDBRANCH  23  33
ENDBRANCH   1  22
TORSDOF 9
