REMARK  Name = ZINC22537303
REMARK  12 active torsions:
REMARK  status: ('A' for Active; 'I' for Inactive)
REMARK    1  A    between atoms: C_1  and  C_2
REMARK    2  A    between atoms: C_4  and  C_37
REMARK    3  A    between atoms: C_5  and  C_9
REMARK    4  A    between atoms: C_7  and  C_8
REMARK    5  A    between atoms: C_9  and  C_11
REMARK    6  A    between atoms: C_9  and  N_12
REMARK    7  A    between atoms: C_13  and  C_15
REMARK    8  A    between atoms: C_15  and  O_16
REMARK    9  A    between atoms: O_16  and  C_17
REMARK   10  A    between atoms: C_20  and  S_24
REMARK   11  A    between atoms: C_22  and  C_23
REMARK   12  A    between atoms: S_24  and  N_27
REMARK                            x       y       z     vdW  Elec       q    Type
REMARK                         _______ _______ _______ _____ _____    ______ ____
ROOT
ATOM      1  C   UNL     1       7.985   4.127   3.271  0.00  0.00    +0.124 A 
ATOM      2  C   UNL     1       7.925   2.757   3.063  0.00  0.00    +0.048 A 
ATOM      3  C   UNL     1       8.910   1.937   3.578  0.00  0.00    +0.032 A 
ATOM      4  C   UNL     1       9.955   2.482   4.302  0.00  0.00    +0.109 A 
ATOM      5  C   UNL     1      10.017   3.847   4.511  0.00  0.00    +0.035 A 
ATOM      6  C   UNL     1       9.037   4.671   3.991  0.00  0.00    -0.007 A 
ATOM      7  C   UNL     1       9.109   6.160   4.214  0.00  0.00    +0.047 C 
ENDROOT
BRANCH   4   8
ATOM      8  S   UNL     1      11.210   1.434   4.958  0.00  0.00    +0.075 S 
ATOM      9  O   UNL     1      11.784   2.127   6.058  0.00  0.00    -0.150 OA
ATOM     10  O   UNL     1      10.633   0.142   5.089  0.00  0.00    -0.150 OA
BRANCH   8  11
ATOM     11  N   UNL     1      12.395   1.308   3.808  0.00  0.00    -0.203 N 
ATOM     12  C   UNL     1      12.409   0.177   2.871  0.00  0.00    +0.132 C 
ATOM     13  C   UNL     1      13.845  -0.341   2.775  0.00  0.00    +0.025 C 
ATOM     14  C   UNL     1      14.733   0.761   2.197  0.00  0.00    +0.038 C 
ATOM     15  C   UNL     1      14.539   2.047   2.957  0.00  0.00    -0.025 A 
ATOM     16  C   UNL     1      13.402   2.275   3.717  0.00  0.00    +0.054 A 
ATOM     17  C   UNL     1      13.253   3.476   4.402  0.00  0.00    +0.025 A 
ATOM     18  C   UNL     1      14.237   4.441   4.327  0.00  0.00    +0.002 A 
ATOM     19  C   UNL     1      15.371   4.212   3.571  0.00  0.00    +0.000 A 
ATOM     20  C   UNL     1      15.522   3.020   2.889  0.00  0.00    +0.005 A 
ENDBRANCH   8  11
ENDBRANCH   4   8
BRANCH   1  21
ATOM     21  O   UNL     1       7.016   4.935   2.765  0.00  0.00    -0.483 OA
BRANCH  21  22
ATOM     22  C   UNL     1       5.966   4.306   2.028  0.00  0.00    +0.324 C 
BRANCH  22  24
ATOM     23  N   UNL     1       3.914   4.989   0.827  0.00  0.00    -0.306 N 
ATOM     24  C   UNL     1       4.993   5.352   1.548  0.00  0.00    +0.251 C 
ATOM     25  O   UNL     1       5.180   6.521   1.811  0.00  0.00    -0.272 OA
ATOM     26  H   UNL     1       3.744   3.929   0.588  0.00  0.00    +0.149 HD
BRANCH  23  27
ATOM     27  C   UNL     1       2.968   6.006   0.360  0.00  0.00    +0.100 C 
ATOM     28  C   UNL     1       3.413   6.528  -1.007  0.00  0.00    +0.033 C 
BRANCH  27  33
ATOM     29  C   UNL     1      -2.300   3.675  -0.103  0.00  0.00    +0.044 C 
ATOM     30  C   UNL     1      -0.926   4.283   0.021  0.00  0.00    -0.047 A 
ATOM     31  C   UNL     1      -0.788   5.637   0.261  0.00  0.00    +0.007 A 
ATOM     32  C   UNL     1       0.472   6.195   0.369  0.00  0.00    -0.045 A 
ATOM     33  C   UNL     1       1.594   5.397   0.243  0.00  0.00    -0.024 A 
ATOM     34  C   UNL     1       1.456   4.042   0.008  0.00  0.00    +0.009 A 
ATOM     35  C   UNL     1       0.196   3.485  -0.100  0.00  0.00    -0.047 A 
ATOM     36  C   UNL     1       0.045   2.007  -0.357  0.00  0.00    +0.044 C 
ATOM     37  C   UNL     1       0.622   7.672   0.625  0.00  0.00    +0.044 C 
ENDBRANCH  27  33
ENDBRANCH  23  27
ENDBRANCH  22  24
ENDBRANCH  21  22
ENDBRANCH   1  21
TORSDOF 7
