REMARK  Name = ZINC39703842
REMARK  16 active torsions:
REMARK  status: ('A' for Active; 'I' for Inactive)
REMARK    1  A    between atoms: C_1  and  C_2
REMARK    2  A    between atoms: C_2  and  O_3
REMARK    3  A    between atoms: O_3  and  C_4
REMARK    4  A    between atoms: C_4  and  C_6
REMARK    5  A    between atoms: C_8  and  C_35
REMARK    6  A    between atoms: C_9  and  C_30
REMARK    7  A    between atoms: C_10  and  N_13
REMARK    8  A    between atoms: C_14  and  C_16
REMARK    9  A    between atoms: C_16  and  S_17
REMARK   10  A    between atoms: S_17  and  C_18
REMARK   11  A    between atoms: C_22  and  C_25
REMARK   12  A    between atoms: C_25  and  C_26
REMARK   13  A    between atoms: C_26  and  C_27
REMARK   14  A    between atoms: C_30  and  O_32
REMARK   15  A    between atoms: O_32  and  C_33
REMARK   16  A    between atoms: C_33  and  C_34
REMARK                            x       y       z     vdW  Elec       q    Type
REMARK                         _______ _______ _______ _____ _____    ______ ____
ROOT
ATOM      1  N   UNL     1       4.066  -5.185  -2.886  0.00  0.00    -0.299 N 
ATOM      2  C   UNL     1       5.226  -4.510  -3.014  0.00  0.00    +0.224 C 
ATOM      3  O   UNL     1       5.355  -3.422  -2.493  0.00  0.00    -0.275 OA
ATOM      4  H   UNL     1       3.963  -6.055  -3.302  0.00  0.00    +0.150 HD
ENDROOT
BRANCH   1   8
ATOM      5  C   UNL     1       1.320  -2.406  -2.326  0.00  0.00    +0.183 C 
ATOM      6  C   UNL     1       0.862  -3.711  -2.954  0.00  0.00    -0.037 C 
ATOM      7  C   UNL     1       1.643  -4.757  -2.855  0.00  0.00    +0.067 C 
ATOM      8  C   UNL     1       2.962  -4.604  -2.118  0.00  0.00    +0.169 C 
ATOM      9  S   UNL     1       3.105  -2.765  -2.031  0.00  0.00    -0.114 S 
ATOM     10  C   UNL     1      -0.460  -3.800  -3.674  0.00  0.00    +0.041 C 
BRANCH   5  11
ATOM     11  C   UNL     1       0.597  -2.144  -1.030  0.00  0.00    +0.324 C 
ATOM     12  O   UNL     1       0.244  -3.069  -0.338  0.00  0.00    -0.249 OA
BRANCH  11  13
ATOM     13  O   UNL     1       0.344  -0.883  -0.646  0.00  0.00    -0.464 OA
BRANCH  13  15
ATOM     14  C   UNL     1      -0.540   0.784   0.863  0.00  0.00    +0.048 C 
ATOM     15  C   UNL     1      -0.345  -0.709   0.594  0.00  0.00    +0.229 C 
ENDBRANCH  13  15
ENDBRANCH  11  13
ENDBRANCH   5  11
BRANCH   7  16
ATOM     16  C   UNL     1       1.253  -6.046  -3.442  0.00  0.00    +0.338 C 
ATOM     17  O   UNL     1       0.255  -6.123  -4.132  0.00  0.00    -0.245 OA
BRANCH  16  18
ATOM     18  O   UNL     1       2.003  -7.144  -3.216  0.00  0.00    -0.462 OA
BRANCH  18  19
ATOM     19  C   UNL     1       1.565  -8.364  -3.818  0.00  0.00    +0.229 C 
ATOM     20  C   UNL     1       2.534  -9.490  -3.452  0.00  0.00    +0.048 C 
ENDBRANCH  18  19
ENDBRANCH  16  18
ENDBRANCH   7  16
ENDBRANCH   1   8
BRANCH   2  21
ATOM     21  C   UNL     1       6.362  -5.107  -3.804  0.00  0.00    +0.173 C 
BRANCH  21  22
ATOM     22  S   UNL     1       7.772  -3.967  -3.791  0.00  0.00    -0.075 S 
BRANCH  22  23
ATOM     23  C   UNL     1       9.001  -4.798  -4.743  0.00  0.00    +0.213 A 
ATOM     24  N   UNL     1      10.183  -4.224  -4.933  0.00  0.00    -0.180 NA
ATOM     25  C   UNL     1      11.105  -4.855  -5.652  0.00  0.00    +0.296 A 
ATOM     26  O   UNL     1      12.320  -4.293  -5.862  0.00  0.00    -0.264 OA
ATOM     27  C   UNL     1      10.798  -6.107  -6.185  0.00  0.00    +0.130 A 
ATOM     28  N   UNL     1       9.605  -6.628  -5.962  0.00  0.00    -0.146 NA
ATOM     29  N   UNL     1       8.736  -5.993  -5.256  0.00  0.00    -0.122 NA
BRANCH  27  30
ATOM     30  C   UNL     1      11.815  -6.856  -7.006  0.00  0.00    +0.074 C 
BRANCH  30  31
ATOM     31  C   UNL     1      12.659  -7.742  -6.088  0.00  0.00    +0.131 C 
BRANCH  31  32
ATOM     32  C   UNL     1      13.677  -8.492  -6.909  0.00  0.00    +0.356 C 
ATOM     33  O   UNL     1      13.722  -8.332  -8.117  0.00  0.00    -0.246 OA
ATOM     34  O   UNL     1      14.454  -9.257  -6.366  0.00  0.00    -0.246 OA
ENDBRANCH  31  32
ENDBRANCH  30  31
ENDBRANCH  27  30
ENDBRANCH  22  23
ENDBRANCH  21  22
ENDBRANCH   2  21
TORSDOF 13
