REMARK  Name = ZINC12246685
REMARK  10 active torsions:
REMARK  status: ('A' for Active; 'I' for Inactive)
REMARK    1  A    between atoms: C_1  and  C_2
REMARK    2  A    between atoms: C_6  and  N_9
REMARK    3  A    between atoms: C_7  and  C_8
REMARK    4  A    between atoms: N_9  and  S_10
REMARK    5  A    between atoms: S_10  and  C_13
REMARK    6  A    between atoms: C_14  and  C_30
REMARK    7  A    between atoms: C_22  and  C_24
REMARK    8  A    between atoms: N_28  and  C_29
REMARK    9  A    between atoms: C_30  and  O_32
REMARK   10  A    between atoms: O_32  and  C_33
REMARK                            x       y       z     vdW  Elec       q    Type
REMARK                         _______ _______ _______ _____ _____    ______ ____
ROOT
ATOM      1  C   UNL     1      -0.765   0.810  -2.512  0.00  0.00    +0.160 A 
ATOM      2  C   UNL     1      -1.527   0.510  -3.621  0.00  0.00    +0.096 A 
ATOM      3  C   UNL     1      -1.716   1.550  -4.616  0.00  0.00    -0.018 A 
ATOM      4  C   UNL     1      -1.113   2.727  -4.333  0.00  0.00    +0.013 A 
ATOM      5  S   UNL     1      -0.311   2.461  -2.778  0.00  0.00    -0.071 S 
ATOM      6  C   UNL     1      -1.138   3.973  -5.166  0.00  0.00    +0.150 C 
ATOM      7  N   UNL     1      -1.743   3.616  -6.464  0.00  0.00    -0.291 N 
ATOM      8  C   UNL     1      -2.919   2.732  -6.446  0.00  0.00    +0.113 C 
ATOM      9  C   UNL     1      -2.523   1.362  -5.894  0.00  0.00    +0.056 C 
ATOM     10  C   UNL     1      -1.236   4.081  -7.623  0.00  0.00    +0.265 C 
ATOM     11  O   UNL     1      -1.773   3.800  -8.678  0.00  0.00    -0.268 OA
ENDROOT
BRANCH  10  12
ATOM     12  C   UNL     1      -0.034   4.929  -7.612  0.00  0.00    +0.123 A 
ATOM     13  C   UNL     1       0.439   5.686  -6.555  0.00  0.00    +0.054 A 
ATOM     14  C   UNL     1       1.598   6.304  -7.032  0.00  0.00    +0.135 A 
ATOM     15  N   UNL     1       1.769   5.931  -8.275  0.00  0.00    -0.179 NA
ATOM     16  N   UNL     1       0.837   5.130  -8.646  0.00  0.00    -0.262 N 
ATOM     17  C   UNL     1       0.724   4.524  -9.975  0.00  0.00    +0.173 C 
ENDBRANCH  10  12
BRANCH   1  18
ATOM     18  S   UNL     1      -0.359  -0.230  -1.149  0.00  0.00    +0.079 S 
ATOM     19  O   UNL     1      -1.367  -1.230  -1.086  0.00  0.00    -0.149 OA
ATOM     20  O   UNL     1      -0.068   0.628  -0.055  0.00  0.00    -0.149 OA
BRANCH  18  21
ATOM     21  N   UNL     1       1.053  -1.007  -1.531  0.00  0.00    -0.216 N 
ATOM     22  H   UNL     1       1.077  -1.975  -1.579  0.00  0.00    +0.174 HD
BRANCH  21  28
ATOM     23  C   UNL     1       5.237  -0.434  -4.045  0.00  0.00    +0.044 C 
ATOM     24  C   UNL     1       4.256   0.034  -3.002  0.00  0.00    -0.046 A 
ATOM     25  C   UNL     1       4.501   1.199  -2.297  0.00  0.00    +0.004 A 
ATOM     26  C   UNL     1       3.603   1.632  -1.339  0.00  0.00    +0.002 A 
ATOM     27  C   UNL     1       2.459   0.903  -1.082  0.00  0.00    +0.025 A 
ATOM     28  C   UNL     1       2.210  -0.267  -1.788  0.00  0.00    +0.051 A 
ATOM     29  C   UNL     1       3.116  -0.702  -2.746  0.00  0.00    -0.025 A 
ATOM     30  C   UNL     1       2.853  -1.974  -3.510  0.00  0.00    +0.046 C 
ENDBRANCH  21  28
ENDBRANCH  18  21
ENDBRANCH   1  18
BRANCH   2  31
ATOM     31  C   UNL     1      -2.128  -0.821  -3.791  0.00  0.00    +0.342 C 
ATOM     32  O   UNL     1      -3.240  -1.046  -3.356  0.00  0.00    -0.245 OA
BRANCH  31  33
ATOM     33  O   UNL     1      -1.445  -1.792  -4.429  0.00  0.00    -0.464 OA
ATOM     34  C   UNL     1      -2.100  -3.082  -4.561  0.00  0.00    +0.280 C 
ENDBRANCH  31  33
ENDBRANCH   2  31
TORSDOF 6
