REMARK  Name = ZINC40169186
REMARK  11 active torsions:
REMARK  status: ('A' for Active; 'I' for Inactive)
REMARK    1  A    between atoms: C_1  and  C_2
REMARK    2  A    between atoms: C_2  and  C_3
REMARK    3  A    between atoms: C_3  and  C_5
REMARK    4  A    between atoms: C_3  and  O_18
REMARK    5  A    between atoms: N_7  and  C_8
REMARK    6  A    between atoms: C_10  and  O_16
REMARK    7  A    between atoms: C_13  and  O_14
REMARK    8  A    between atoms: O_14  and  C_15
REMARK    9  A    between atoms: O_16  and  C_17
REMARK   10  A    between atoms: O_18  and  C_19
REMARK   11  A    between atoms: C_29  and  C_30
REMARK                            x       y       z     vdW  Elec       q    Type
REMARK                         _______ _______ _______ _____ _____    ______ ____
ROOT
ATOM      1  C   UNL     1      -1.264  -0.761   0.243  0.00  0.00    +0.259 C 
ENDROOT
BRANCH   1   2
ATOM      2  C   UNL     1      -1.300  -2.248   0.001  0.00  0.00    +0.258 C 
ATOM      3  O   UNL     1      -1.351  -3.014   0.941  0.00  0.00    -0.271 OA
ATOM      4  N   UNL     1      -1.275  -2.728  -1.258  0.00  0.00    -0.279 N 
ATOM      5  H   UNL     1      -1.154  -2.121  -2.005  0.00  0.00    +0.155 HD
BRANCH   4   6
ATOM      6  C   UNL     1      -1.423  -4.102  -1.488  0.00  0.00    +0.079 A 
ATOM      7  C   UNL     1      -2.023  -4.906  -0.530  0.00  0.00    +0.072 A 
ATOM      8  C   UNL     1      -2.169  -6.265  -0.760  0.00  0.00    +0.122 A 
ATOM      9  C   UNL     1      -1.714  -6.821  -1.947  0.00  0.00    +0.049 A 
ATOM     10  C   UNL     1      -1.115  -6.022  -2.902  0.00  0.00    +0.051 A 
ATOM     11  C   UNL     1      -0.973  -4.662  -2.680  0.00  0.00    +0.141 A 
BRANCH  11  12
ATOM     12  O   UNL     1      -0.388  -3.876  -3.624  0.00  0.00    -0.493 OA
ATOM     13  C   UNL     1       0.050  -4.518  -4.823  0.00  0.00    +0.277 C 
ENDBRANCH  11  12
BRANCH   8  14
ATOM     14  O   UNL     1      -2.757  -7.054   0.178  0.00  0.00    -0.495 OA
ATOM     15  C   UNL     1      -2.874  -8.445  -0.124  0.00  0.00    +0.277 C 
ENDBRANCH   8  14
ENDBRANCH   4   6
ENDBRANCH   1   2
BRANCH   1  17
ATOM     16  C   UNL     1       0.048   1.328  -0.151  0.00  0.00    +0.008 C 
ATOM     17  C   UNL     1       0.075  -0.199  -0.240  0.00  0.00    +0.051 C 
ENDBRANCH   1  17
BRANCH   1  18
ATOM     18  O   UNL     1      -1.414  -0.501   1.640  0.00  0.00    -0.472 OA
BRANCH  18  19
ATOM     19  C   UNL     1      -2.016   0.668   1.989  0.00  0.00    +0.215 A 
ATOM     20  C   UNL     1      -3.347   0.933   1.591  0.00  0.00    +0.235 A 
ATOM     21  O   UNL     1      -3.983   0.127   0.931  0.00  0.00    -0.283 OA
ATOM     22  C   UNL     1      -3.938   2.220   2.005  0.00  0.00    +0.068 A 
ATOM     23  C   UNL     1      -5.244   2.560   1.656  0.00  0.00    +0.015 A 
ATOM     24  C   UNL     1      -5.763   3.771   2.060  0.00  0.00    +0.001 A 
ATOM     25  C   UNL     1      -4.993   4.647   2.810  0.00  0.00    +0.004 A 
ATOM     26  C   UNL     1      -3.700   4.323   3.161  0.00  0.00    +0.047 A 
ATOM     27  C   UNL     1      -3.157   3.106   2.764  0.00  0.00    +0.140 A 
ATOM     28  O   UNL     1      -1.894   2.773   3.102  0.00  0.00    -0.448 OA
ATOM     29  C   UNL     1      -1.337   1.604   2.740  0.00  0.00    +0.216 A 
BRANCH  29  30
ATOM     30  C   UNL     1       0.039   1.317   3.153  0.00  0.00    +0.173 A 
ATOM     31  C   UNL     1       0.812   2.097   3.966  0.00  0.00    +0.053 A 
ATOM     32  C   UNL     1       2.050   1.444   4.094  0.00  0.00    +0.042 A 
ATOM     33  C   UNL     1       1.978   0.311   3.364  0.00  0.00    +0.196 A 
ATOM     34  O   UNL     1       0.762   0.234   2.803  0.00  0.00    -0.460 OA
ENDBRANCH  29  30
ENDBRANCH  18  19
ENDBRANCH   1  18
TORSDOF 8
