REMARK  Name = ZINC59957579
REMARK  10 active torsions:
REMARK  status: ('A' for Active; 'I' for Inactive)
REMARK    1  A    between atoms: C_1  and  C_2
REMARK    2  A    between atoms: C_2  and  C_20
REMARK    3  A    between atoms: N_3  and  O_4
REMARK    4  A    between atoms: O_4  and  C_5
REMARK    5  A    between atoms: C_5  and  C_6
REMARK    6  A    between atoms: N_8  and  N_9
REMARK    7  A    between atoms: C_12  and  C_18
REMARK    8  A    between atoms: C_12  and  C_19
REMARK    9  A    between atoms: C_14  and  C_16
REMARK   10  A    between atoms: C_14  and  C_17
REMARK                            x       y       z     vdW  Elec       q    Type
REMARK                         _______ _______ _______ _____ _____    ______ ____
ROOT
ATOM      1  C   UNL     1       0.777  -0.486   4.972  0.00  0.00    +0.272 C 
ATOM      2  O   UNL     1       1.072   0.686   4.869  0.00  0.00    -0.270 OA
ATOM      3  N   UNL     1       0.487  -1.005   6.182  0.00  0.00    -0.204 N 
ATOM      4  H   UNL     1       0.251  -1.942   6.264  0.00  0.00    +0.177 HD
ENDROOT
BRANCH   3   5
ATOM      5  N   UNL     1       0.528  -0.190   7.321  0.00  0.00    -0.189 NA
ATOM      6  C   UNL     1       0.354  -0.702   8.478  0.00  0.00    +0.034 C 
ATOM      7  C   UNL     1       0.230  -2.198   8.680  0.00  0.00    +0.039 C 
ATOM      8  C   UNL     1       1.321  -2.616   9.673  0.00  0.00    -0.068 C 
ATOM      9  N   UNL     1       1.279  -1.811  10.884  0.00  0.00    +0.386 N 
ATOM     10  C   UNL     1       1.250  -0.364  10.767  0.00  0.00    -0.068 C 
ATOM     11  C   UNL     1       0.258   0.149   9.724  0.00  0.00    +0.039 C 
ATOM     12  C   UNL     1       2.640   0.214  10.482  0.00  0.00    -0.010 C 
ATOM     13  C   UNL     1       0.803   0.203  12.138  0.00  0.00    -0.010 C 
ATOM     14  C   UNL     1       2.687  -2.569   8.990  0.00  0.00    -0.010 C 
ATOM     15  C   UNL     1       1.048  -4.083  10.068  0.00  0.00    -0.010 C 
ATOM     16  H   UNL     1       0.464  -2.104  11.431  0.00  0.00    -0.084 HD
ATOM     17  H   UNL     1       2.085  -2.067  11.463  0.00  0.00    -0.084 HD
ENDBRANCH   3   5
BRANCH   1  18
ATOM     18  C   UNL     1       0.733  -1.362   3.747  0.00  0.00    +0.359 C 
BRANCH  18  19
ATOM     19  O   UNL     1       1.076  -0.589   2.595  0.00  0.00    -0.384 OA
BRANCH  19  22
ATOM     20  C   UNL     1       1.711   0.730   0.260  0.00  0.00    +0.069 C 
ATOM     21  C   UNL     1       1.358  -0.735   0.270  0.00  0.00    +0.084 C 
ATOM     22  N   UNL     1       1.065  -1.322   1.384  0.00  0.00    -0.089 NA
BRANCH  21  23
ATOM     23  C   UNL     1       1.346  -1.500  -0.993  0.00  0.00    -0.001 A 
ATOM     24  C   UNL     1       1.667  -0.870  -2.197  0.00  0.00    +0.010 A 
ATOM     25  C   UNL     1       1.655  -1.591  -3.373  0.00  0.00    +0.001 A 
ATOM     26  C   UNL     1       1.324  -2.934  -3.362  0.00  0.00    +0.000 A 
ATOM     27  C   UNL     1       1.004  -3.564  -2.172  0.00  0.00    +0.001 A 
ATOM     28  C   UNL     1       1.019  -2.857  -0.988  0.00  0.00    +0.010 A 
ENDBRANCH  21  23
ENDBRANCH  19  22
ENDBRANCH  18  19
ENDBRANCH   1  18
TORSDOF 5
