REMARK  Name = ZINC20617271
REMARK  10 active torsions:
REMARK  status: ('A' for Active; 'I' for Inactive)
REMARK    1  A    between atoms: C_1  and  C_2
REMARK    2  A    between atoms: C_2  and  C_3
REMARK    3  A    between atoms: C_6  and  N_9
REMARK    4  A    between atoms: C_11  and  C_26
REMARK    5  A    between atoms: C_14  and  C_21
REMARK    6  A    between atoms: C_17  and  C_20
REMARK    7  A    between atoms: C_21  and  O_22
REMARK    8  A    between atoms: O_22  and  C_23
REMARK    9  A    between atoms: C_23  and  C_25
REMARK   10  A    between atoms: N_28  and  C_29
REMARK                            x       y       z     vdW  Elec       q    Type
REMARK                         _______ _______ _______ _____ _____    ______ ____
ROOT
ATOM      1  N   UNL     1      -1.332   3.776  -0.232  0.00  0.00    -0.325 N 
ATOM      2  C   UNL     1      -0.225   4.292   0.253  0.00  0.00    +0.212 A 
ATOM      3  C   UNL     1       1.063   3.580   0.126  0.00  0.00    +0.098 A 
ATOM      4  C   UNL     1       2.209   4.345   0.128  0.00  0.00    +0.030 A 
ATOM      5  C   UNL     1       2.049   5.795   0.248  0.00  0.00    +0.028 A 
ATOM      6  C   UNL     1       3.105   6.678  -0.004  0.00  0.00    +0.018 A 
ATOM      7  C   UNL     1       2.877   8.032   0.130  0.00  0.00    +0.118 A 
ATOM      8  N   UNL     1       1.693   8.494   0.489  0.00  0.00    -0.256 NA
ATOM      9  C   UNL     1       0.669   7.704   0.739  0.00  0.00    +0.081 A 
ATOM     10  C   UNL     1       0.802   6.327   0.631  0.00  0.00    +0.159 A 
ATOM     11  O   UNL     1      -0.234   5.494   0.885  0.00  0.00    -0.437 OA
ATOM     12  C   UNL     1      -0.655   8.299   1.144  0.00  0.00    +0.069 C 
ATOM     13  H   UNL     1      -1.324   2.766  -0.668  0.00  0.00    +0.169 HD
ENDROOT
BRANCH   1  17
ATOM     14  C   UNL     1      -4.850   5.950  -0.122  0.00  0.00    -0.047 A 
ATOM     15  C   UNL     1      -3.961   6.132  -1.167  0.00  0.00    +0.005 A 
ATOM     16  C   UNL     1      -2.786   5.411  -1.210  0.00  0.00    +0.026 A 
ATOM     17  C   UNL     1      -2.495   4.495  -0.196  0.00  0.00    +0.042 A 
ATOM     18  C   UNL     1      -3.400   4.313   0.853  0.00  0.00    +0.026 A 
ATOM     19  C   UNL     1      -4.569   5.045   0.885  0.00  0.00    +0.005 A 
BRANCH  14  21
ATOM     20  C   UNL     1      -7.231   5.971  -0.817  0.00  0.00    +0.009 C 
ATOM     21  C   UNL     1      -6.132   6.742  -0.083  0.00  0.00    +0.032 C 
ENDBRANCH  14  21
ENDBRANCH   1  17
BRANCH   3  22
ATOM     22  C   UNL     1       1.120   2.112   0.007  0.00  0.00    +0.253 C 
ATOM     23  O   UNL     1       2.195   1.552  -0.097  0.00  0.00    -0.270 OA
ATOM     24  N   UNL     1      -0.018   1.391   0.013  0.00  0.00    -0.281 N 
ATOM     25  H   UNL     1      -0.993   1.901   0.031  0.00  0.00    +0.155 HD
BRANCH  24  26
ATOM     26  C   UNL     1       0.039  -0.006  -0.003  0.00  0.00    +0.034 A 
ATOM     27  C   UNL     1       1.038  -0.653  -0.718  0.00  0.00    +0.023 A 
ATOM     28  C   UNL     1       1.095  -2.033  -0.729  0.00  0.00    +0.002 A 
ATOM     29  C   UNL     1       0.152  -2.771  -0.036  0.00  0.00    +0.000 A 
ATOM     30  C   UNL     1      -0.847  -2.129   0.673  0.00  0.00    +0.002 A 
ATOM     31  C   UNL     1      -0.906  -0.750   0.692  0.00  0.00    +0.023 A 
ENDBRANCH  24  26
ENDBRANCH   3  22
BRANCH   6  32
ATOM     32  C   UNL     1       4.460   6.162  -0.415  0.00  0.00    +0.269 C 
BRANCH  32  33
ATOM     33  O   UNL     1       5.364   7.281  -0.613  0.00  0.00    -0.460 OA
BRANCH  33  34
ATOM     34  C   UNL     1       6.621   6.990  -0.984  0.00  0.00    +0.304 C 
ATOM     35  O   UNL     1       6.955   5.838  -1.138  0.00  0.00    -0.251 OA
ATOM     36  C   UNL     1       7.617   8.099  -1.207  0.00  0.00    +0.136 C 
ENDBRANCH  33  34
ENDBRANCH  32  33
ENDBRANCH   6  32
TORSDOF 7
