REMARK  Name = ZINC63437205
REMARK  6 active torsions:
REMARK  status: ('A' for Active; 'I' for Inactive)
REMARK    1  A    between atoms: C_1  and  N_2
REMARK    2  A    between atoms: N_12  and  C_27
REMARK    3  A    between atoms: N_18  and  C_21
REMARK    4  A    between atoms: C_27  and  C_28
REMARK    5  A    between atoms: C_28  and  S_29
REMARK    6  A    between atoms: S_29  and  C_30
REMARK                            x       y       z     vdW  Elec       q    Type
REMARK                         _______ _______ _______ _____ _____    ______ ____
ROOT
ATOM      1  C   UNL     1       0.090   1.076  -0.591  0.00  0.00    +0.136 C 
ATOM      2  N   UNL     1      -0.101  -0.368  -0.431  0.00  0.00    -0.264 N 
ATOM      3  C   UNL     1      -1.389  -0.979  -0.182  0.00  0.00    +0.203 C 
ATOM      4  C   UNL     1      -1.205  -1.780   1.150  0.00  0.00    +0.205 C 
ATOM      5  C   UNL     1      -0.198  -2.831   0.841  0.00  0.00    +0.264 C 
ATOM      6  N   UNL     1       0.836  -2.456   0.065  0.00  0.00    -0.126 NA
ATOM      7  C   UNL     1       0.930  -1.286  -0.507  0.00  0.00    +0.330 C 
ATOM      8  O   UNL     1       2.062  -0.958  -1.155  0.00  0.00    -0.250 OA
ATOM      9  O   UNL     1      -0.303  -3.965   1.265  0.00  0.00    -0.271 OA
ATOM     10  N   UNL     1      -2.609  -2.111   1.363  0.00  0.00    -0.289 N 
ATOM     11  C   UNL     1      -3.262  -0.924   1.018  0.00  0.00    +0.161 C 
ATOM     12  N   UNL     1      -2.566  -0.216   0.163  0.00  0.00    -0.340 N 
ATOM     13  N   UNL     1      -4.478  -0.538   1.530  0.00  0.00    -0.302 N 
ATOM     14  C   UNL     1      -4.746   0.873   1.840  0.00  0.00    +0.126 C 
ATOM     15  C   UNL     1      -6.012   1.307   1.091  0.00  0.00    +0.124 C 
ATOM     16  N   UNL     1      -7.068   0.315   1.338  0.00  0.00    -0.327 N 
ATOM     17  C   UNL     1      -6.800  -1.096   1.028  0.00  0.00    +0.124 C 
ATOM     18  C   UNL     1      -5.536  -1.530   1.772  0.00  0.00    +0.126 C 
ATOM     19  H   UNL     1      -2.808   0.659  -0.179  0.00  0.00    +0.164 HD
ENDROOT
BRANCH  16  20
ATOM     20  C   UNL     1      -8.303   0.706   1.859  0.00  0.00    +0.030 A 
ATOM     21  C   UNL     1      -8.591   2.054   2.030  0.00  0.00    +0.023 A 
ATOM     22  C   UNL     1      -9.814   2.438   2.544  0.00  0.00    +0.002 A 
ATOM     23  C   UNL     1     -10.752   1.481   2.889  0.00  0.00    +0.000 A 
ATOM     24  C   UNL     1     -10.468   0.139   2.720  0.00  0.00    +0.002 A 
ATOM     25  C   UNL     1      -9.249  -0.252   2.201  0.00  0.00    +0.023 A 
ENDBRANCH  16  20
BRANCH  10  26
ATOM     26  C   UNL     1      -3.191  -3.374   1.823  0.00  0.00    +0.119 C 
BRANCH  26  27
ATOM     27  C   UNL     1      -3.444  -3.301   3.330  0.00  0.00    +0.092 C 
BRANCH  27  28
ATOM     28  S   UNL     1      -4.301  -4.804   3.874  0.00  0.00    -0.113 S 
BRANCH  28  29
ATOM     29  C   UNL     1      -4.522  -4.562   5.659  0.00  0.00    +0.235 C 
ATOM     30  N   UNL     1      -5.260  -3.318   5.910  0.00  0.00    -0.355 N 
ATOM     31  C   UNL     1      -4.489  -2.543   6.616  0.00  0.00    +0.061 A 
ATOM     32  C   UNL     1      -4.665  -1.192   7.168  0.00  0.00    +0.027 A 
ATOM     33  C   UNL     1      -3.667  -0.628   7.877  0.00  0.00    +0.002 A 
ATOM     34  C   UNL     1      -2.445  -1.281   8.118  0.00  0.00    +0.002 A 
ATOM     35  C   UNL     1      -2.180  -2.520   7.658  0.00  0.00    +0.027 A 
ATOM     36  C   UNL     1      -3.195  -3.233   6.871  0.00  0.00    +0.061 A 
ATOM     37  N   UNL     1      -3.217  -4.409   6.312  0.00  0.00    -0.355 N 
ATOM     38  H   UNL     1      -6.157  -3.111   5.606  0.00  0.00    +0.162 HD
ATOM     39  H   UNL     1      -2.501  -5.064   6.326  0.00  0.00    +0.162 HD
ENDBRANCH  28  29
ENDBRANCH  27  28
ENDBRANCH  26  27
ENDBRANCH  10  26
TORSDOF 5
