REMARK  Name = ZINC39750491
REMARK  10 active torsions:
REMARK  status: ('A' for Active; 'I' for Inactive)
REMARK    1  A    between atoms: C_1  and  C_2
REMARK    2  A    between atoms: C_11  and  O_12
REMARK    3  A    between atoms: O_12  and  C_13
REMARK    4  A    between atoms: C_13  and  C_14
REMARK    5  A    between atoms: C_17  and  S_22
REMARK    6  A    between atoms: N_18  and  C_19
REMARK    7  A    between atoms: C_19  and  C_20
REMARK    8  A    between atoms: S_22  and  C_23
REMARK    9  A    between atoms: C_23  and  C_24
REMARK   10  A    between atoms: C_30  and  N_32
REMARK                            x       y       z     vdW  Elec       q    Type
REMARK                         _______ _______ _______ _____ _____    ______ ____
ROOT
ATOM      1  C   UNL     1       0.045   0.118   4.750  0.00  0.00    +0.172 A 
ATOM      2  N   UNL     1       1.094   0.606   5.349  0.00  0.00    -0.130 NA
ATOM      3  N   UNL     1       0.733   1.351   6.333  0.00  0.00    -0.122 NA
ATOM      4  C   UNL     1      -0.577   1.378   6.415  0.00  0.00    +0.192 A 
ATOM      5  N   UNL     1      -1.057   0.596   5.404  0.00  0.00    -0.299 N 
ENDROOT
BRANCH   1   6
ATOM      6  C   UNL     1       0.046  -0.799   3.554  0.00  0.00    +0.305 C 
BRANCH   6   7
ATOM      7  O   UNL     1       0.025  -0.019   2.356  0.00  0.00    -0.484 OA
BRANCH   7  18
ATOM      8  C   UNL     1      -0.018   1.503   0.010  0.00  0.00    +0.048 C 
ATOM      9  C   UNL     1       0.002  -0.004   0.002  0.00  0.00    -0.001 A 
ATOM     10  C   UNL     1       0.006  -0.704  -1.216  0.00  0.00    -0.012 A 
ATOM     11  C   UNL     1      -0.009  -0.025  -2.447  0.00  0.00    +0.009 A 
ATOM     12  C   UNL     1      -0.004  -0.735  -3.608  0.00  0.00    +0.001 A 
ATOM     13  C   UNL     1       0.015  -2.128  -3.596  0.00  0.00    +0.001 A 
ATOM     14  C   UNL     1       0.029  -2.819  -2.424  0.00  0.00    +0.008 A 
ATOM     15  C   UNL     1       0.026  -2.121  -1.204  0.00  0.00    -0.017 A 
ATOM     16  C   UNL     1       0.041  -2.802   0.025  0.00  0.00    +0.012 A 
ATOM     17  C   UNL     1       0.037  -2.095   1.188  0.00  0.00    +0.046 A 
ATOM     18  C   UNL     1       0.023  -0.697   1.179  0.00  0.00    +0.125 A 
ENDBRANCH   7  18
ENDBRANCH   6   7
ENDBRANCH   1   6
BRANCH   5  19
ATOM     19  C   UNL     1      -2.461   0.323   5.087  0.00  0.00    +0.152 C 
BRANCH  19  20
ATOM     20  C   UNL     1      -2.918  -0.898   5.843  0.00  0.00    -0.013 C 
ATOM     21  C   UNL     1      -3.973  -0.832   6.616  0.00  0.00    +0.005 C 
ENDBRANCH  19  20
ENDBRANCH   5  19
BRANCH   4  22
ATOM     22  S   UNL     1      -1.534   2.261   7.601  0.00  0.00    -0.077 S 
BRANCH  22  23
ATOM     23  C   UNL     1      -0.296   3.090   8.635  0.00  0.00    +0.173 C 
BRANCH  23  24
ATOM     24  C   UNL     1      -0.991   3.892   9.706  0.00  0.00    +0.229 C 
ATOM     25  O   UNL     1      -2.202   3.903   9.764  0.00  0.00    -0.275 OA
ATOM     26  N   UNL     1      -0.266   4.596  10.597  0.00  0.00    -0.264 N 
ATOM     27  C   UNL     1      -0.907   5.336  11.584  0.00  0.00    +0.166 A 
ATOM     28  N   UNL     1      -2.198   5.461  11.803  0.00  0.00    -0.231 NA
ATOM     29  C   UNL     1      -2.653   6.208  12.792  0.00  0.00    +0.153 A 
ATOM     30  C   UNL     1      -1.732   6.836  13.564  0.00  0.00    +0.185 A 
ATOM     31  S   UNL     1      -0.220   6.283  12.794  0.00  0.00    -0.028 S 
ATOM     32  H   UNL     1       0.703   4.587  10.550  0.00  0.00    +0.157 HD
BRANCH  30  33
ATOM     33  N   UNL     1      -1.927   7.728  14.729  0.00  0.00    +0.065 N 
ATOM     34  O   UNL     1      -3.045   7.987  15.113  0.00  0.00    -0.126 OA
ATOM     35  O   UNL     1      -0.970   8.199  15.297  0.00  0.00    -0.126 OA
ENDBRANCH  30  33
ENDBRANCH  23  24
ENDBRANCH  22  23
ENDBRANCH   4  22
TORSDOF 9
