REMARK  Name = ZINC21584633
REMARK  8 active torsions:
REMARK  status: ('A' for Active; 'I' for Inactive)
REMARK    1  A    between atoms: C_1  and  C_2
REMARK    2  A    between atoms: C_2  and  C_3
REMARK    3  A    between atoms: C_2  and  C_4
REMARK    4  A    between atoms: C_4  and  C_6
REMARK    5  A    between atoms: C_4  and  N_16
REMARK    6  A    between atoms: C_17  and  C_19
REMARK    7  A    between atoms: C_19  and  N_20
REMARK    8  A    between atoms: C_23  and  C_26
REMARK                            x       y       z     vdW  Elec       q    Type
REMARK                         _______ _______ _______ _____ _____    ______ ____
ROOT
ATOM      1  N   UNL     1      -6.970   2.567   1.836  0.00  0.00    -0.310 N 
ATOM      2  C   UNL     1      -7.647   1.483   2.263  0.00  0.00    +0.197 C 
ATOM      3  O   UNL     1      -8.854   1.524   2.366  0.00  0.00    -0.278 OA
ATOM      4  H   UNL     1      -5.874   2.530   1.743  0.00  0.00    +0.149 HD
ENDROOT
BRANCH   1   5
ATOM      5  C   UNL     1      -7.693   3.795   1.497  0.00  0.00    +0.106 C 
BRANCH   5   6
ATOM      6  C   UNL     1      -6.882   4.601   0.515  0.00  0.00    -0.023 A 
ATOM      7  C   UNL     1      -5.510   4.692   0.663  0.00  0.00    +0.009 A 
ATOM      8  C   UNL     1      -4.763   5.433  -0.233  0.00  0.00    +0.050 A 
ATOM      9  C   UNL     1      -5.388   6.082  -1.288  0.00  0.00    +0.162 A 
ATOM     10  C   UNL     1      -6.766   5.989  -1.438  0.00  0.00    +0.162 A 
ATOM     11  C   UNL     1      -7.510   5.247  -0.533  0.00  0.00    +0.055 A 
ATOM     12  O   UNL     1      -7.399   6.618  -2.466  0.00  0.00    -0.485 OA
ATOM     13  C   UNL     1      -6.670   7.656  -3.131  0.00  0.00    +0.270 C 
ATOM     14  C   UNL     1      -5.252   7.142  -3.412  0.00  0.00    +0.270 C 
ATOM     15  O   UNL     1      -4.639   6.810  -2.161  0.00  0.00    -0.485 OA
ENDBRANCH   5   6
BRANCH   5  17
ATOM     16  C   UNL     1      -8.677   5.902   2.411  0.00  0.00    +0.009 C 
ATOM     17  C   UNL     1      -7.922   4.619   2.765  0.00  0.00    +0.008 C 
ATOM     18  C   UNL     1      -8.746   3.802   3.763  0.00  0.00    +0.009 C 
ENDBRANCH   5  17
ENDBRANCH   1   5
BRANCH   2  19
ATOM     19  C   UNL     1      -6.903   0.220   2.612  0.00  0.00    +0.019 C 
BRANCH  19  20
ATOM     20  N   UNL     1      -7.842  -0.765   3.165  0.00  0.00    +0.385 N 
ATOM     21  C   UNL     1      -7.208  -2.083   3.295  0.00  0.00    -0.077 C 
ATOM     22  C   UNL     1      -8.252  -3.112   3.735  0.00  0.00    -0.006 C 
ATOM     23  C   UNL     1      -8.854  -2.680   5.075  0.00  0.00    +0.072 C 
ATOM     24  C   UNL     1      -9.466  -1.285   4.924  0.00  0.00    -0.006 C 
ATOM     25  C   UNL     1      -8.387  -0.308   4.450  0.00  0.00    -0.077 C 
ATOM     26  H   UNL     1      -8.682  -0.866   2.462  0.00  0.00    -0.081 HD
BRANCH  23  27
ATOM     27  C   UNL     1      -9.925  -3.658   5.484  0.00  0.00    +0.219 C 
ATOM     28  O   UNL     1     -11.090  -3.414   5.250  0.00  0.00    -0.275 OA
ATOM     29  N   UNL     1      -9.589  -4.804   6.109  0.00  0.00    -0.301 N 
ATOM     30  C   UNL     1     -10.644  -5.660   6.602  0.00  0.00    +0.108 C 
ATOM     31  C   UNL     1     -11.017  -5.257   8.044  0.00  0.00    +0.019 C 
ATOM     32  C   UNL     1      -9.942  -5.635   8.974  0.00  0.00    +0.002 C 
ATOM     33  C   UNL     1      -8.612  -4.934   8.716  0.00  0.00    +0.002 C 
ATOM     34  C   UNL     1      -7.842  -5.694   7.664  0.00  0.00    +0.019 C 
ATOM     35  C   UNL     1      -8.158  -5.130   6.267  0.00  0.00    +0.108 C 
ENDBRANCH  23  27
ENDBRANCH  19  20
ENDBRANCH   2  19
TORSDOF 6
