REMARK  Name = ZINC28120061
REMARK  3 active torsions:
REMARK  status: ('A' for Active; 'I' for Inactive)
REMARK    1  A    between atoms: C_1  and  C_2
REMARK    2  A    between atoms: C_4  and  S_9
REMARK    3  A    between atoms: S_9  and  N_12
REMARK                            x       y       z     vdW  Elec       q    Type
REMARK                         _______ _______ _______ _____ _____    ______ ____
ROOT
ATOM      1  N   UNL     1       1.612  -3.164  -3.171  0.00  0.00    -0.128 NA
ATOM      2  C   UNL     1       1.903  -3.789  -4.277  0.00  0.00    +0.095 C 
ATOM      3  C   UNL     1       0.831  -4.299  -5.153  0.00  0.00    +0.049 C 
ATOM      4  C   UNL     1       1.109  -4.694  -6.409  0.00  0.00    +0.067 C 
ATOM      5  C   UNL     1       2.484  -4.625  -6.927  0.00  0.00    +0.201 C 
ATOM      6  O   UNL     1       2.698  -4.742  -8.119  0.00  0.00    -0.286 OA
ATOM      7  C   UNL     1       3.602  -4.412  -5.986  0.00  0.00    +0.032 A 
ATOM      8  C   UNL     1       3.317  -3.992  -4.675  0.00  0.00    +0.013 A 
ATOM      9  C   UNL     1       4.354  -3.781  -3.778  0.00  0.00    +0.011 A 
ATOM     10  C   UNL     1       5.663  -3.982  -4.184  0.00  0.00    +0.001 A 
ATOM     11  C   UNL     1       5.943  -4.390  -5.475  0.00  0.00    +0.001 A 
ATOM     12  C   UNL     1       4.922  -4.613  -6.376  0.00  0.00    +0.012 A 
ATOM     13 BR   UNL     1      -0.279  -5.345  -7.516  0.00  0.00    -0.046 Br
ENDROOT
BRANCH   1  14
ATOM     14  S   UNL     1       0.029  -2.943  -2.738  0.00  0.00    +0.099 S 
ATOM     15  O   UNL     1      -0.503  -4.233  -2.471  0.00  0.00    -0.146 OA
ATOM     16  O   UNL     1      -0.539  -2.069  -3.704  0.00  0.00    -0.146 OA
BRANCH  14  20
ATOM     17  C   UNL     1      -0.018   1.503   0.010  0.00  0.00    +0.045 C 
ATOM     18  C   UNL     1       0.002  -0.004   0.002  0.00  0.00    -0.030 A 
ATOM     19  C   UNL     1       0.006  -0.689  -1.199  0.00  0.00    +0.033 A 
ATOM     20  C   UNL     1       0.025  -2.071  -1.207  0.00  0.00    +0.113 A 
ATOM     21  C   UNL     1       0.040  -2.769  -0.013  0.00  0.00    +0.030 A 
ATOM     22  C   UNL     1       0.036  -2.086   1.188  0.00  0.00    +0.022 A 
ATOM     23  C   UNL     1       0.023  -0.702   1.196  0.00  0.00    +0.044 A 
ATOM     24 CL   UNL     1       0.025   0.157   2.704  0.00  0.00    -0.083 Cl
ENDBRANCH  14  20
ENDBRANCH   1  14
TORSDOF 2
