REMARK  Name = ZINC14990471
REMARK  10 active torsions:
REMARK  status: ('A' for Active; 'I' for Inactive)
REMARK    1  A    between atoms: C_1  and  O_2
REMARK    2  A    between atoms: O_2  and  C_3
REMARK    3  A    between atoms: C_3  and  C_5
REMARK    4  A    between atoms: C_5  and  C_6
REMARK    5  A    between atoms: C_6  and  C_7
REMARK    6  A    between atoms: N_10  and  C_28
REMARK    7  A    between atoms: C_13  and  N_15
REMARK    8  A    between atoms: N_18  and  C_21
REMARK    9  A    between atoms: C_28  and  C_29
REMARK   10  A    between atoms: C_34  and  C_35
REMARK                            x       y       z     vdW  Elec       q    Type
REMARK                         _______ _______ _______ _____ _____    ______ ____
ROOT
ATOM      1  C   UNL     1      -3.429  -4.307  -0.006  0.00  0.00    -0.010 C 
ATOM      2  C   UNL     1      -2.632  -4.750   1.223  0.00  0.00    +0.086 C 
ATOM      3  N   UNL     1      -3.264  -4.217   2.437  0.00  0.00    -0.298 NA
ATOM      4  C   UNL     1      -4.628  -4.736   2.596  0.00  0.00    +0.083 C 
ATOM      5  C   UNL     1      -5.486  -4.292   1.409  0.00  0.00    +0.000 C 
ATOM      6  C   UNL     1      -4.867  -4.822   0.111  0.00  0.00    -0.063 C 
ENDROOT
BRANCH   6   7
ATOM      7  N   UNL     1      -5.652  -4.351  -1.037  0.00  0.00    +0.384 N 
ATOM      8  C   UNL     1      -5.044  -4.845  -2.279  0.00  0.00    -0.059 C 
ATOM      9  C   UNL     1      -5.794  -4.261  -3.481  0.00  0.00    +0.086 C 
ATOM     10  N   UNL     1      -7.224  -4.576  -3.337  0.00  0.00    -0.331 N 
ATOM     11  C   UNL     1      -7.877  -4.262  -2.057  0.00  0.00    +0.086 C 
ATOM     12  C   UNL     1      -7.029  -4.846  -0.923  0.00  0.00    -0.059 C 
ATOM     13  H   UNL     1      -5.658  -3.342  -1.047  0.00  0.00    -0.081 HD
BRANCH  10  14
ATOM     14  C   UNL     1      -7.941  -5.158  -4.387  0.00  0.00    +0.065 A 
ATOM     15  C   UNL     1      -8.020  -6.540  -4.493  0.00  0.00    +0.026 A 
ATOM     16  C   UNL     1      -8.730  -7.112  -5.531  0.00  0.00    +0.002 A 
ATOM     17  C   UNL     1      -9.361  -6.311  -6.465  0.00  0.00    +0.003 A 
ATOM     18  C   UNL     1      -9.285  -4.934  -6.364  0.00  0.00    +0.040 A 
ATOM     19  C   UNL     1      -8.582  -4.354  -5.324  0.00  0.00    +0.144 A 
ATOM     20  F   UNL     1      -8.512  -3.009  -5.221  0.00  0.00    -0.204 F 
ENDBRANCH  10  14
ENDBRANCH   6   7
BRANCH   1  21
ATOM     21  C   UNL     1      -3.439  -2.779  -0.085  0.00  0.00    +0.014 C 
BRANCH  21  22
ATOM     22  C   UNL     1      -2.016  -2.272  -0.324  0.00  0.00    +0.121 C 
BRANCH  22  23
ATOM     23  C   UNL     1      -2.025  -0.767  -0.402  0.00  0.00    +0.307 C 
ATOM     24  O   UNL     1      -3.064  -0.162  -0.278  0.00  0.00    -0.251 OA
BRANCH  23  26
ATOM     25  C   UNL     1      -0.963   1.327  -0.671  0.00  0.00    +0.280 C 
ATOM     26  O   UNL     1      -0.880  -0.098  -0.608  0.00  0.00    -0.468 OA
ENDBRANCH  23  26
ENDBRANCH  22  23
ENDBRANCH  21  22
ENDBRANCH   1  21
BRANCH   3  27
ATOM     27  C   UNL     1      -2.449  -4.506   3.624  0.00  0.00    +0.120 C 
BRANCH  27  28
ATOM     28  C   UNL     1      -2.968  -3.711   4.795  0.00  0.00    -0.022 A 
ATOM     29  C   UNL     1      -3.788  -4.314   5.731  0.00  0.00    +0.005 A 
ATOM     30  C   UNL     1      -4.264  -3.585   6.804  0.00  0.00    +0.000 A 
ATOM     31  C   UNL     1      -3.919  -2.253   6.942  0.00  0.00    +0.001 A 
ATOM     32  C   UNL     1      -3.099  -1.651   6.008  0.00  0.00    +0.013 A 
ATOM     33  C   UNL     1      -2.619  -2.381   4.936  0.00  0.00    +0.059 A 
BRANCH  33  34
ATOM     34  C   UNL     1      -1.720  -1.726   3.920  0.00  0.00    +0.418 C 
ATOM     35  F   UNL     1      -1.492  -0.396   4.287  0.00  0.00    -0.166 F 
ATOM     36  F   UNL     1      -0.500  -2.410   3.866  0.00  0.00    -0.166 F 
ATOM     37  F   UNL     1      -2.332  -1.764   2.662  0.00  0.00    -0.166 F 
ENDBRANCH  33  34
ENDBRANCH  27  28
ENDBRANCH   3  27
TORSDOF 9
