REMARK  Name = ZINC39939033
REMARK  9 active torsions:
REMARK  status: ('A' for Active; 'I' for Inactive)
REMARK    1  A    between atoms: C_1  and  C_2
REMARK    2  A    between atoms: C_2  and  O_3
REMARK    3  A    between atoms: O_3  and  C_4
REMARK    4  A    between atoms: C_4  and  C_6
REMARK    5  A    between atoms: C_7  and  N_36
REMARK    6  A    between atoms: C_21  and  C_35
REMARK    7  A    between atoms: C_28  and  C_33
REMARK    8  A    between atoms: C_28  and  C_34
REMARK    9  A    between atoms: C_30  and  C_32
REMARK                            x       y       z     vdW  Elec       q    Type
REMARK                         _______ _______ _______ _____ _____    ______ ____
ROOT
ATOM      1  C   UNL     1       1.245  -2.612   2.472  0.00  0.00    +0.114 C 
ATOM      2  C   UNL     1       1.323  -3.958   2.605  0.00  0.00    +0.197 C 
ATOM      3  O   UNL     1       1.954  -4.549   3.642  0.00  0.00    -0.429 OA
ATOM      4  C   UNL     1       2.313  -3.756   4.676  0.00  0.00    +0.203 C 
ATOM      5  N   UNL     1       2.184  -4.158   5.900  0.00  0.00    -0.159 NA
ATOM      6  C   UNL     1       2.506  -3.379   6.944  0.00  0.00    +0.183 C 
ATOM      7  S   UNL     1       2.347  -4.001   8.531  0.00  0.00    -0.015 S 
ATOM      8  N   UNL     1       2.950  -2.124   6.775  0.00  0.00    -0.156 NA
ATOM      9  C   UNL     1       3.134  -1.612   5.596  0.00  0.00    +0.252 C 
ATOM     10  O   UNL     1       3.576  -0.347   5.496  0.00  0.00    -0.273 OA
ATOM     11  C   UNL     1       2.869  -2.391   4.341  0.00  0.00    +0.184 C 
ATOM     12  C   UNL     1       1.838  -1.667   3.477  0.00  0.00    +0.130 C 
ATOM     13  C   UNL     1       0.780  -1.039   4.323  0.00  0.00    -0.005 A 
ATOM     14  C   UNL     1      -0.160  -1.519   5.210  0.00  0.00    +0.010 A 
ATOM     15  C   UNL     1      -0.993  -0.582   5.818  0.00  0.00    -0.050 A 
ATOM     16  C   UNL     1      -0.901   0.777   5.558  0.00  0.00    +0.009 A 
ATOM     17  C   UNL     1       0.034   1.260   4.674  0.00  0.00    -0.022 A 
ATOM     18  C   UNL     1       0.870   0.323   4.068  0.00  0.00    +0.045 A 
ATOM     19  N   UNL     1       1.879   0.621   3.155  0.00  0.00    -0.264 N 
ATOM     20  C   UNL     1       2.499  -0.501   2.759  0.00  0.00    +0.237 C 
ATOM     21  O   UNL     1       3.419  -0.573   1.971  0.00  0.00    -0.274 OA
ATOM     22  C   UNL     1       2.133   2.017   2.760  0.00  0.00    +0.037 C 
ATOM     23  C   UNL     1       1.698   2.932   3.911  0.00  0.00    +0.033 C 
ATOM     24  C   UNL     1       0.235   2.700   4.301  0.00  0.00    +0.020 C 
ATOM     25  C   UNL     1      -0.120   3.588   5.495  0.00  0.00    +0.012 C 
ATOM     26  C   UNL     1       3.626   2.210   2.484  0.00  0.00    +0.032 C 
ATOM     27  C   UNL     1       1.328   2.352   1.503  0.00  0.00    +0.032 C 
ATOM     28  C   UNL     1      -2.034  -1.064   6.796  0.00  0.00    +0.044 C 
ENDROOT
BRANCH   2  29
ATOM     29  N   UNL     1       0.740  -4.749   1.652  0.00  0.00    -0.329 N 
ATOM     30  H   UNL     1       0.349  -4.346   0.860  0.00  0.00    +0.145 HD
ATOM     31  H   UNL     1       0.717  -5.712   1.768  0.00  0.00    +0.145 HD
ENDBRANCH   2  29
BRANCH   1  32
ATOM     32  C   UNL     1       0.590  -2.082   1.350  0.00  0.00    +0.341 C 
ATOM     33  O   UNL     1      -0.547  -1.656   1.453  0.00  0.00    -0.245 OA
BRANCH  32  34
ATOM     34  O   UNL     1       1.220  -2.042   0.156  0.00  0.00    -0.462 OA
BRANCH  34  36
ATOM     35  C   UNL     1       1.350  -1.537  -2.203  0.00  0.00    +0.048 C 
ATOM     36  C   UNL     1       0.540  -1.383  -0.914  0.00  0.00    +0.229 C 
ENDBRANCH  34  36
ENDBRANCH  32  34
ENDBRANCH   1  32
TORSDOF 4
