REMARK  Name = ZINC39550516
REMARK  4 active torsions:
REMARK  status: ('A' for Active; 'I' for Inactive)
REMARK    1  A    between atoms: C_4  and  C_7
REMARK    2  A    between atoms: C_10  and  C_13
REMARK    3  A    between atoms: C_16  and  C_34
REMARK    4  A    between atoms: C_17  and  C_19
REMARK                            x       y       z     vdW  Elec       q    Type
REMARK                         _______ _______ _______ _____ _____    ______ ____
ROOT
ATOM      1  C   UNL     1       7.418  -2.759   0.029  0.00  0.00    +0.139 A 
ATOM      2  N   UNL     1       7.573  -4.115   0.003  0.00  0.00    -0.337 N 
ATOM      3  H   UNL     1       6.869  -4.777   0.092  0.00  0.00    +0.167 HD
ATOM      4  C   UNL     1       8.913  -4.367  -0.174  0.00  0.00    +0.074 A 
ATOM      5  C   UNL     1       9.537  -3.133  -0.251  0.00  0.00    +0.097 A 
ATOM      6  N   UNL     1       8.591  -2.188  -0.128  0.00  0.00    -0.227 NA
ENDROOT
BRANCH   5   7
ATOM      7  C   UNL     1      10.987  -2.897  -0.440  0.00  0.00    +0.003 A 
ATOM      8  C   UNL     1      11.698  -3.668  -1.360  0.00  0.00    +0.012 A 
ATOM      9  C   UNL     1      13.052  -3.438  -1.529  0.00  0.00    +0.028 A 
ATOM     10  C   UNL     1      13.678  -2.463  -0.796  0.00  0.00    +0.101 A 
ATOM     11  C   UNL     1      13.001  -1.673   0.133  0.00  0.00    +0.010 A 
ATOM     12  C   UNL     1      11.624  -1.908   0.295  0.00  0.00    +0.020 A 
ATOM     13  C   UNL     1      13.826  -0.660   0.846  0.00  0.00    +0.009 A 
ATOM     14  C   UNL     1      13.390   0.255   1.824  0.00  0.00    +0.010 A 
ATOM     15  C   UNL     1      14.273   1.138   2.400  0.00  0.00    +0.001 A 
ATOM     16  C   UNL     1      15.607   1.151   2.035  0.00  0.00    +0.002 A 
ATOM     17  C   UNL     1      16.055   0.258   1.074  0.00  0.00    +0.028 A 
ATOM     18  C   UNL     1      15.176  -0.622   0.500  0.00  0.00    +0.101 A 
ATOM     19  S   UNL     1      15.355  -1.887  -0.731  0.00  0.00    +0.026 S 
ATOM     20  O   UNL     1      15.645  -1.251  -1.969  0.00  0.00    -0.164 OA
ATOM     21  O   UNL     1      16.151  -2.925  -0.176  0.00  0.00    -0.164 OA
ENDBRANCH   5   7
BRANCH   1  25
ATOM     22  C   UNL     1       3.727  -0.709   0.519  0.00  0.00    -0.018 A 
ATOM     23  C   UNL     1       4.910   0.013   0.362  0.00  0.00    +0.009 A 
ATOM     24  C   UNL     1       6.106  -0.649   0.203  0.00  0.00    +0.012 A 
ATOM     25  C   UNL     1       6.135  -2.046   0.200  0.00  0.00    +0.017 A 
ATOM     26  C   UNL     1       4.950  -2.769   0.357  0.00  0.00    +0.012 A 
ATOM     27  C   UNL     1       3.755  -2.104   0.521  0.00  0.00    +0.009 A 
BRANCH  22  31
ATOM     28  C   UNL     1       0.035   1.341   1.007  0.00  0.00    +0.000 A 
ATOM     29  C   UNL     1       1.206   2.060   0.847  0.00  0.00    +0.001 A 
ATOM     30  C   UNL     1       2.408   1.400   0.688  0.00  0.00    +0.008 A 
ATOM     31  C   UNL     1       2.439   0.006   0.690  0.00  0.00    -0.018 A 
ATOM     32  C   UNL     1       1.256  -0.713   0.852  0.00  0.00    +0.008 A 
ATOM     33  C   UNL     1       0.060  -0.042   1.009  0.00  0.00    +0.001 A 
ENDBRANCH  22  31
ENDBRANCH   1  25
BRANCH   4  34
ATOM     34  C   UNL     1       9.560  -5.691  -0.264  0.00  0.00    +0.000 A 
ATOM     35  C   UNL     1      10.707  -5.964   0.485  0.00  0.00    +0.010 A 
ATOM     36  C   UNL     1      11.306  -7.204   0.396  0.00  0.00    +0.001 A 
ATOM     37  C   UNL     1      10.772  -8.176  -0.431  0.00  0.00    +0.000 A 
ATOM     38  C   UNL     1       9.636  -7.912  -1.176  0.00  0.00    +0.001 A 
ATOM     39  C   UNL     1       9.024  -6.679  -1.093  0.00  0.00    +0.010 A 
ENDBRANCH   4  34
TORSDOF 4
