REMARK  Name = ZINC59830654
REMARK  13 active torsions:
REMARK  status: ('A' for Active; 'I' for Inactive)
REMARK    1  A    between atoms: C_1  and  C_2
REMARK    2  A    between atoms: C_2  and  O_3
REMARK    3  A    between atoms: O_3  and  C_4
REMARK    4  A    between atoms: C_4  and  C_6
REMARK    5  A    between atoms: C_10  and  N_11
REMARK    6  A    between atoms: C_12  and  C_14
REMARK    7  A    between atoms: C_14  and  C_15
REMARK    8  A    between atoms: C_15  and  S_16
REMARK    9  A    between atoms: S_16  and  C_17
REMARK   10  A    between atoms: N_22  and  N_23
REMARK   11  A    between atoms: C_24  and  C_25
REMARK   12  A    between atoms: C_24  and  C_26
REMARK   13  A    between atoms: C_31  and  O_32
REMARK                            x       y       z     vdW  Elec       q    Type
REMARK                         _______ _______ _______ _____ _____    ______ ____
ROOT
ATOM      1  S   UNL     1      -4.684  -2.820  -7.133  0.00  0.00    -0.084 S 
ENDROOT
BRANCH   1   2
ATOM      2  C   UNL     1      -4.890  -3.368  -8.795  0.00  0.00    +0.210 A 
ATOM      3  N   UNL     1      -6.045  -3.383  -9.470  0.00  0.00    -0.186 NA
ATOM      4  C   UNL     1      -5.842  -3.852 -10.683  0.00  0.00    +0.232 A 
ATOM      5  N   UNL     1      -4.530  -4.147 -10.802  0.00  0.00    -0.245 N 
ATOM      6  N   UNL     1      -3.936  -3.821  -9.572  0.00  0.00    -0.144 NA
ATOM      7  N   UNL     1      -6.803  -4.013 -11.664  0.00  0.00    -0.205 N 
ATOM      8  H   UNL     1      -6.556  -4.368 -12.532  0.00  0.00    +0.177 HD
ATOM      9  H   UNL     1      -4.085  -4.510 -11.584  0.00  0.00    +0.192 HD
BRANCH   7  10
ATOM     10  N   UNL     1      -8.134  -3.663 -11.404  0.00  0.00    -0.184 NA
ATOM     11  C   UNL     1      -9.037  -3.814 -12.324  0.00  0.00    +0.067 C 
ATOM     12  C   UNL     1      -8.653  -4.366 -13.673  0.00  0.00    +0.068 C 
BRANCH  11  13
ATOM     13  C   UNL     1     -10.438  -3.446 -12.050  0.00  0.00    +0.039 A 
ATOM     14  C   UNL     1     -11.413  -3.613 -13.036  0.00  0.00    +0.013 A 
ATOM     15  C   UNL     1     -12.722  -3.266 -12.774  0.00  0.00    +0.001 A 
ATOM     16  C   UNL     1     -13.074  -2.754 -11.537  0.00  0.00    +0.004 A 
ATOM     17  C   UNL     1     -12.118  -2.584 -10.553  0.00  0.00    +0.046 A 
ATOM     18  C   UNL     1     -10.800  -2.933 -10.798  0.00  0.00    +0.126 A 
BRANCH  18  19
ATOM     19  O   UNL     1      -9.860  -2.772  -9.830  0.00  0.00    -0.506 OA
ATOM     20  H   UNL     1      -9.430  -1.906  -9.839  0.00  0.00    +0.292 HD
ENDBRANCH  18  19
ENDBRANCH  11  13
ENDBRANCH   7  10
ENDBRANCH   1   2
BRANCH   1  21
ATOM     21  C   UNL     1      -2.912  -3.041  -6.815  0.00  0.00    +0.086 C 
BRANCH  21  22
ATOM     22  C   UNL     1      -2.590  -2.597  -5.387  0.00  0.00    +0.107 C 
BRANCH  22  24
ATOM     23  N   UNL     1      -0.603  -2.454  -3.921  0.00  0.00    -0.279 N 
ATOM     24  C   UNL     1      -1.118  -2.781  -5.122  0.00  0.00    +0.218 C 
ATOM     25  O   UNL     1      -0.397  -3.224  -5.991  0.00  0.00    -0.275 OA
ATOM     26  H   UNL     1      -1.180  -2.100  -3.226  0.00  0.00    +0.155 HD
BRANCH  23  31
ATOM     27  C   UNL     1       1.449  -2.344  -2.516  0.00  0.00    +0.091 A 
ATOM     28  C   UNL     1       2.885  -2.621  -2.515  0.00  0.00    -0.021 A 
ATOM     29  C   UNL     1       3.349  -3.116  -3.676  0.00  0.00    -0.004 A 
ATOM     30  S   UNL     1       1.922  -3.210  -4.726  0.00  0.00    -0.077 S 
ATOM     31  C   UNL     1       0.751  -2.623  -3.678  0.00  0.00    +0.086 A 
ATOM     32  C   UNL     1       4.830  -3.378  -3.621  0.00  0.00    +0.043 C 
ATOM     33  C   UNL     1       5.324  -2.577  -2.396  0.00  0.00    +0.010 C 
ATOM     34  C   UNL     1       4.048  -2.505  -1.532  0.00  0.00    +0.037 C 
BRANCH  27  35
ATOM     35  C   UNL     1       0.776  -1.800  -1.335  0.00  0.00    +0.342 C 
ATOM     36  O   UNL     1       0.312  -2.552  -0.499  0.00  0.00    -0.245 OA
BRANCH  35  37
ATOM     37  O   UNL     1       0.671  -0.465  -1.174  0.00  0.00    -0.461 OA
BRANCH  37  39
ATOM     38  C   UNL     1      -0.019   1.526   0.010  0.00  0.00    +0.048 C 
ATOM     39  C   UNL     1       0.002  -0.004   0.002  0.00  0.00    +0.229 C 
ENDBRANCH  37  39
ENDBRANCH  35  37
ENDBRANCH  27  35
ENDBRANCH  23  31
ENDBRANCH  22  24
ENDBRANCH  21  22
ENDBRANCH   1  21
TORSDOF 11
