REMARK  Name = ZINC34747619
REMARK  5 active torsions:
REMARK  status: ('A' for Active; 'I' for Inactive)
REMARK    1  A    between atoms: C_4  and  N_7
REMARK    2  A    between atoms: C_8  and  C_10
REMARK    3  A    between atoms: C_10  and  N_11
REMARK    4  A    between atoms: N_30  and  C_31
REMARK    5  A    between atoms: C_31  and  C_32
REMARK                            x       y       z     vdW  Elec       q    Type
REMARK                         _______ _______ _______ _____ _____    ______ ____
ROOT
ATOM      1  N   UNL     1       4.636  -3.545  -3.667  0.00  0.00    +0.387 N 
ATOM      2  C   UNL     1       5.688  -3.363  -2.660  0.00  0.00    -0.059 C 
ATOM      3  C   UNL     1       6.207  -4.733  -2.211  0.00  0.00    +0.089 C 
ATOM      4  N   UNL     1       6.631  -5.484  -3.403  0.00  0.00    -0.304 N 
ATOM      5  C   UNL     1       5.694  -5.578  -4.533  0.00  0.00    +0.089 C 
ATOM      6  C   UNL     1       5.199  -4.168  -4.872  0.00  0.00    -0.059 C 
ATOM      7  C   UNL     1       7.867  -6.080  -3.459  0.00  0.00    +0.202 A 
ATOM      8  N   UNL     1       8.890  -5.408  -3.943  0.00  0.00    -0.208 NA
ATOM      9  C   UNL     1      10.096  -5.960  -4.010  0.00  0.00    +0.117 A 
ATOM     10  C   UNL     1      10.342  -7.273  -3.573  0.00  0.00    +0.076 A 
ATOM     11  C   UNL     1      11.721  -7.744  -3.709  0.00  0.00    -0.023 A 
ATOM     12  C   UNL     1      12.614  -6.881  -4.235  0.00  0.00    -0.004 A 
ATOM     13  S   UNL     1      11.686  -5.410  -4.576  0.00  0.00    -0.073 S 
ATOM     14  C   UNL     1      14.073  -7.120  -4.477  0.00  0.00    +0.043 C 
ATOM     15  C   UNL     1      14.496  -8.372  -3.696  0.00  0.00    +0.005 C 
ATOM     16  C   UNL     1      13.477  -9.484  -3.962  0.00  0.00    +0.005 C 
ATOM     17  C   UNL     1      12.150  -9.146  -3.282  0.00  0.00    +0.037 C 
ATOM     18  C   UNL     1       9.211  -7.978  -3.052  0.00  0.00    +0.264 A 
ATOM     19  O   UNL     1       9.329  -9.122  -2.648  0.00  0.00    -0.267 OA
ATOM     20  N   UNL     1       8.017  -7.358  -3.008  0.00  0.00    -0.271 N 
ATOM     21  H   UNL     1       3.912  -4.138  -3.291  0.00  0.00    -0.081 HD
ENDROOT
BRANCH   1  22
ATOM     22  C   UNL     1       4.063  -2.238  -4.016  0.00  0.00    +0.019 C 
BRANCH  22  24
ATOM     23  N   UNL     1       2.775  -0.449  -2.894  0.00  0.00    -0.314 N 
ATOM     24  C   UNL     1       3.377  -1.652  -2.809  0.00  0.00    +0.197 C 
ATOM     25  O   UNL     1       3.366  -2.263  -1.762  0.00  0.00    -0.278 OA
ATOM     26  H   UNL     1       2.784   0.040  -3.732  0.00  0.00    +0.149 HD
BRANCH  23  30
ATOM     27  C   UNL     1      -0.058   1.696  -0.533  0.00  0.00    +0.000 C 
ATOM     28  C   UNL     1       1.369   2.240  -0.622  0.00  0.00    +0.002 C 
ATOM     29  C   UNL     1       2.066   1.645  -1.848  0.00  0.00    +0.022 C 
ATOM     30  C   UNL     1       2.108   0.120  -1.720  0.00  0.00    +0.073 C 
ATOM     31  C   UNL     1       0.681  -0.423  -1.631  0.00  0.00    +0.022 C 
ATOM     32  C   UNL     1      -0.016   0.171  -0.406  0.00  0.00    +0.002 C 
ENDBRANCH  23  30
ENDBRANCH  22  24
ENDBRANCH   1  22
BRANCH  20  33
ATOM     33  C   UNL     1       6.856  -8.072  -2.471  0.00  0.00    +0.223 C 
BRANCH  33  34
ATOM     34  C   UNL     1       6.212  -8.880  -3.568  0.00  0.00    +0.230 C 
ATOM     35  O   UNL     1       6.677  -8.862  -4.688  0.00  0.00    -0.274 OA
ATOM     36  N   UNL     1       5.120  -9.624  -3.304  0.00  0.00    -0.328 N 
ATOM     37  H   UNL     1       4.748  -9.639  -2.409  0.00  0.00    +0.145 HD
ATOM     38  H   UNL     1       4.705 -10.144  -4.011  0.00  0.00    +0.145 HD
ENDBRANCH  33  34
ENDBRANCH  20  33
TORSDOF 5
