REMARK  Name = ZINC24466748
REMARK  9 active torsions:
REMARK  status: ('A' for Active; 'I' for Inactive)
REMARK    1  A    between atoms: C_1  and  C_2
REMARK    2  A    between atoms: C_5  and  N_8
REMARK    3  A    between atoms: C_9  and  C_11
REMARK    4  A    between atoms: C_11  and  C_13
REMARK    5  A    between atoms: C_11  and  S_19
REMARK    6  A    between atoms: S_19  and  C_20
REMARK    7  A    between atoms: N_30  and  C_31
REMARK    8  A    between atoms: C_31  and  C_32
REMARK    9  A    between atoms: C_31  and  C_33
REMARK                            x       y       z     vdW  Elec       q    Type
REMARK                         _______ _______ _______ _____ _____    ______ ____
ROOT
ATOM      1  C   UNL     1      -0.940  -2.572  -0.009  0.00  0.00    +0.170 C 
ENDROOT
BRANCH   1   2
ATOM      2  C   UNL     1      -0.184  -2.854   1.265  0.00  0.00    -0.025 A 
ATOM      3  C   UNL     1      -0.820  -2.732   2.486  0.00  0.00    +0.005 A 
ATOM      4  C   UNL     1      -0.129  -2.995   3.654  0.00  0.00    +0.000 A 
ATOM      5  C   UNL     1       1.201  -3.371   3.601  0.00  0.00    +0.000 A 
ATOM      6  C   UNL     1       1.837  -3.487   2.379  0.00  0.00    +0.000 A 
ATOM      7  C   UNL     1       1.145  -3.228   1.211  0.00  0.00    +0.005 A 
ENDBRANCH   1   2
BRANCH   1   9
ATOM      8  N   UNL     1      -1.921  -4.777  -0.549  0.00  0.00    -0.284 N 
ATOM      9  C   UNL     1      -2.110  -3.514  -0.118  0.00  0.00    +0.235 C 
ATOM     10  O   UNL     1      -3.223  -3.137   0.183  0.00  0.00    -0.274 OA
ATOM     11  H   UNL     1      -0.927  -5.097  -0.894  0.00  0.00    +0.155 HD
BRANCH   8  16
ATOM     12  C   UNL     1      -6.252  -8.441  -0.591  0.00  0.00    +0.044 C 
ATOM     13  C   UNL     1      -5.101  -7.468  -0.580  0.00  0.00    -0.050 A 
ATOM     14  C   UNL     1      -5.325  -6.132  -0.856  0.00  0.00    +0.005 A 
ATOM     15  C   UNL     1      -4.273  -5.237  -0.847  0.00  0.00    +0.023 A 
ATOM     16  C   UNL     1      -2.989  -5.681  -0.559  0.00  0.00    +0.033 A 
ATOM     17  C   UNL     1      -2.767  -7.024  -0.286  0.00  0.00    +0.023 A 
ATOM     18  C   UNL     1      -3.824  -7.913  -0.292  0.00  0.00    +0.005 A 
ENDBRANCH   8  16
ENDBRANCH   1   9
BRANCH   1  19
ATOM     19  S   UNL     1      -1.540  -0.864   0.011  0.00  0.00    -0.070 S 
BRANCH  19  20
ATOM     20  C   UNL     1      -0.004  -0.000  -0.011  0.00  0.00    +0.173 A 
ATOM     21  N   UNL     1       1.105  -0.698  -0.033  0.00  0.00    -0.223 NA
ATOM     22  C   UNL     1       2.314  -0.102  -0.050  0.00  0.00    +0.079 A 
ATOM     23  C   UNL     1       3.498  -0.846  -0.073  0.00  0.00    +0.028 A 
ATOM     24  C   UNL     1       4.702  -0.201  -0.089  0.00  0.00    +0.002 A 
ATOM     25  C   UNL     1       4.770   1.186  -0.083  0.00  0.00    +0.001 A 
ATOM     26  C   UNL     1       3.630   1.942  -0.061  0.00  0.00    +0.015 A 
ATOM     27  C   UNL     1       2.387   1.310  -0.043  0.00  0.00    +0.065 A 
ATOM     28  C   UNL     1       1.130   2.070  -0.018  0.00  0.00    +0.263 A 
ATOM     29  O   UNL     1       1.128   3.287  -0.011  0.00  0.00    -0.267 OA
ATOM     30  N   UNL     1      -0.025   1.365  -0.003  0.00  0.00    -0.285 N 
BRANCH  30  31
ATOM     31  C   UNL     1      -1.308   2.073   0.017  0.00  0.00    +0.087 C 
ATOM     32  C   UNL     1      -1.392   2.944   1.272  0.00  0.00    +0.031 C 
ATOM     33  C   UNL     1      -1.421   2.958  -1.226  0.00  0.00    +0.031 C 
ENDBRANCH  30  31
ENDBRANCH  19  20
ENDBRANCH   1  19
TORSDOF 6
