REMARK  Name = ZINC15005004
REMARK  8 active torsions:
REMARK  status: ('A' for Active; 'I' for Inactive)
REMARK    1  A    between atoms: C_1  and  C_2
REMARK    2  A    between atoms: C_2  and  O_3
REMARK    3  A    between atoms: O_3  and  C_4
REMARK    4  A    between atoms: C_6  and  N_30
REMARK    5  A    between atoms: C_19  and  C_20
REMARK    6  A    between atoms: C_19  and  N_69
REMARK    7  A    between atoms: N_22  and  C_29
REMARK    8  A    between atoms: C_31  and  C_33
REMARK                            x       y       z     vdW  Elec       q    Type
REMARK                         _______ _______ _______ _____ _____    ______ ____
ROOT
ATOM      1  C   UNL     1       0.872  -0.771   7.529  0.00  0.00    +0.153 C 
ATOM      2  C   UNL     1       1.105  -2.256   7.882  0.00  0.00    +0.133 C 
ATOM      3  C   UNL     1      -0.172  -2.708   8.560  0.00  0.00    -0.021 A 
ATOM      4  C   UNL     1      -0.423  -3.816   9.351  0.00  0.00    +0.006 A 
ATOM      5  C   UNL     1      -1.685  -4.028   9.870  0.00  0.00    +0.000 A 
ATOM      6  C   UNL     1      -2.702  -3.132   9.598  0.00  0.00    +0.000 A 
ATOM      7  C   UNL     1      -2.454  -2.026   8.810  0.00  0.00    +0.004 A 
ATOM      8  C   UNL     1      -1.188  -1.810   8.289  0.00  0.00    -0.034 A 
ATOM      9  C   UNL     1      -0.662  -0.698   7.414  0.00  0.00    +0.021 C 
ATOM     10  C   UNL     1      -1.159   0.655   7.916  0.00  0.00    -0.005 C 
ATOM     11  C   UNL     1      -0.637   1.761   6.994  0.00  0.00    -0.077 C 
ATOM     12  C   UNL     1      -0.567   0.242   5.105  0.00  0.00    -0.077 C 
ATOM     13  C   UNL     1      -1.087  -0.914   5.964  0.00  0.00    -0.005 C 
ATOM     14  N   UNL     1      -1.127   1.510   5.621  0.00  0.00    +0.382 N 
ATOM     15  H   UNL     1      -2.151   1.438   5.641  0.00  0.00    -0.081 HD
ENDROOT
BRANCH   2  16
ATOM     16  N   UNL     1       1.337  -3.037   6.665  0.00  0.00    -0.299 N 
ATOM     17  C   UNL     1       2.037  -4.188   6.726  0.00  0.00    +0.280 C 
ATOM     18  O   UNL     1       2.475  -4.577   7.792  0.00  0.00    -0.267 OA
ATOM     19  H   UNL     1       0.988  -2.727   5.815  0.00  0.00    +0.150 HD
BRANCH  17  20
ATOM     20  C   UNL     1       2.270  -4.970   5.507  0.00  0.00    +0.189 A 
ATOM     21  C   UNL     1       2.958  -6.146   5.428  0.00  0.00    +0.054 A 
ATOM     22  C   UNL     1       2.933  -6.539   4.081  0.00  0.00    +0.042 A 
ATOM     23  C   UNL     1       2.239  -5.597   3.405  0.00  0.00    +0.196 A 
ATOM     24  O   UNL     1       1.837  -4.656   4.269  0.00  0.00    -0.458 OA
ENDBRANCH  17  20
ENDBRANCH   2  16
BRANCH   1  25
ATOM     25  O   UNL     1       1.344   0.081   8.575  0.00  0.00    -0.374 OA
BRANCH  25  27
ATOM     26  C   UNL     1       3.055   1.498   9.527  0.00  0.00    +0.034 C 
ATOM     27  C   UNL     1       2.654   0.606   8.350  0.00  0.00    +0.157 C 
ENDBRANCH  25  27
ENDBRANCH   1  25
BRANCH  14  28
ATOM     28  C   UNL     1      -0.741   2.628   4.736  0.00  0.00    -0.041 C 
BRANCH  28  29
ATOM     29  C   UNL     1      -1.002   2.238   3.304  0.00  0.00    -0.039 A 
ATOM     30  C   UNL     1      -0.091   1.822   2.411  0.00  0.00    +0.088 A 
ATOM     31  N   UNL     1      -0.698   1.558   1.213  0.00  0.00    -0.349 N 
ATOM     32  C   UNL     1      -2.049   1.808   1.308  0.00  0.00    +0.049 A 
ATOM     33  C   UNL     1      -2.300   2.240   2.624  0.00  0.00    +0.001 A 
ATOM     34  C   UNL     1      -3.600   2.566   3.014  0.00  0.00    +0.010 A 
ATOM     35  C   UNL     1      -4.625   2.459   2.116  0.00  0.00    +0.001 A 
ATOM     36  C   UNL     1      -4.383   2.029   0.819  0.00  0.00    +0.002 A 
ATOM     37  C   UNL     1      -3.108   1.702   0.413  0.00  0.00    +0.026 A 
ATOM     38  C   UNL     1      -0.013   1.086   0.008  0.00  0.00    +0.149 C 
ENDBRANCH  28  29
ENDBRANCH  14  28
TORSDOF 6
