REMARK  Name = ZINC66434388
REMARK  11 active torsions:
REMARK  status: ('A' for Active; 'I' for Inactive)
REMARK    1  A    between atoms: C_1  and  C_2
REMARK    2  A    between atoms: C_2  and  N_3
REMARK    3  A    between atoms: N_3  and  C_4
REMARK    4  A    between atoms: N_3  and  C_19
REMARK    5  A    between atoms: C_4  and  C_5
REMARK    6  A    between atoms: N_7  and  C_8
REMARK    7  A    between atoms: C_8  and  C_9
REMARK    8  A    between atoms: C_13  and  N_15
REMARK    9  A    between atoms: C_16  and  C_18
REMARK   10  A    between atoms: C_19  and  C_21
REMARK   11  A    between atoms: C_19  and  C_22
REMARK                            x       y       z     vdW  Elec       q    Type
REMARK                         _______ _______ _______ _____ _____    ______ ____
ROOT
ATOM      1  C   UNL     1      -1.974   0.003  -1.314  0.00  0.00    +0.019 C 
ENDROOT
BRANCH   1   2
ATOM      2  C   UNL     1      -1.878   1.496  -1.502  0.00  0.00    +0.197 C 
ATOM      3  O   UNL     1      -1.467   2.196  -0.602  0.00  0.00    -0.278 OA
ATOM      4  N   UNL     1      -2.250   2.052  -2.672  0.00  0.00    -0.313 N 
ATOM      5  H   UNL     1      -2.579   1.492  -3.393  0.00  0.00    +0.149 HD
BRANCH   4   6
ATOM      6  C   UNL     1      -2.158   3.502  -2.856  0.00  0.00    +0.139 C 
BRANCH   6   7
ATOM      7  C   UNL     1      -2.631   3.865  -4.240  0.00  0.00    -0.029 A 
ATOM      8  C   UNL     1      -1.731   3.901  -5.290  0.00  0.00    +0.005 A 
ATOM      9  C   UNL     1      -2.161   4.233  -6.561  0.00  0.00    +0.002 A 
ATOM     10  C   UNL     1      -3.491   4.529  -6.787  0.00  0.00    +0.023 A 
ATOM     11  C   UNL     1      -4.397   4.493  -5.735  0.00  0.00    +0.034 A 
ATOM     12  C   UNL     1      -3.963   4.154  -4.460  0.00  0.00    +0.028 A 
BRANCH  11  13
ATOM     13  N   UNL     1      -5.745   4.792  -5.960  0.00  0.00    -0.286 N 
ATOM     14  C   UNL     1      -6.326   4.449  -7.127  0.00  0.00    +0.214 C 
ATOM     15  O   UNL     1      -5.708   3.801  -7.945  0.00  0.00    -0.276 OA
ATOM     16  C   UNL     1      -7.744   4.870  -7.415  0.00  0.00    +0.109 C 
ATOM     17  H   UNL     1      -6.262   5.247  -5.277  0.00  0.00    +0.155 HD
ENDBRANCH  11  13
ENDBRANCH   6   7
ENDBRANCH   4   6
ENDBRANCH   1   2
BRANCH   1  18
ATOM     18  N   UNL     1      -1.372  -0.366  -0.026  0.00  0.00    +0.392 N 
ATOM     19  H   UNL     1      -1.802   0.169   0.713  0.00  0.00    -0.080 HD
BRANCH  18  21
ATOM     20  C   UNL     1       0.704  -0.809  -1.248  0.00  0.00    -0.017 C 
ATOM     21  C   UNL     1       0.069  -0.084  -0.059  0.00  0.00    -0.081 C 
ENDBRANCH  18  21
BRANCH  18  22
ATOM     22  C   UNL     1      -1.584  -1.799   0.221  0.00  0.00    -0.003 C 
ATOM     23  C   UNL     1      -3.085  -2.094   0.256  0.00  0.00    -0.005 C 
BRANCH  22  24
ATOM     24  C   UNL     1      -0.967  -2.179   1.542  0.00  0.00    +0.093 A 
ATOM     25  C   UNL     1      -0.290  -3.311   1.775  0.00  0.00    +0.051 A 
ATOM     26  C   UNL     1       0.124  -3.258   3.183  0.00  0.00    +0.020 A 
ATOM     27  C   UNL     1       0.842  -4.110   4.021  0.00  0.00    +0.011 A 
ATOM     28  C   UNL     1       1.061  -3.754   5.322  0.00  0.00    +0.001 A 
ATOM     29  C   UNL     1       0.574  -2.551   5.813  0.00  0.00    +0.004 A 
ATOM     30  C   UNL     1      -0.137  -1.696   5.000  0.00  0.00    +0.047 A 
ATOM     31  C   UNL     1      -0.371  -2.038   3.673  0.00  0.00    +0.135 A 
ATOM     32  O   UNL     1      -1.010  -1.427   2.656  0.00  0.00    -0.461 OA
ENDBRANCH  22  24
ENDBRANCH  18  22
ENDBRANCH   1  18
TORSDOF 8
