REMARK  Name = ZINC39760169
REMARK  9 active torsions:
REMARK  status: ('A' for Active; 'I' for Inactive)
REMARK    1  A    between atoms: C_1  and  C_2
REMARK    2  A    between atoms: C_10  and  C_11
REMARK    3  A    between atoms: C_15  and  S_22
REMARK    4  A    between atoms: N_17  and  C_18
REMARK    5  A    between atoms: C_18  and  C_19
REMARK    6  A    between atoms: C_19  and  C_20
REMARK    7  A    between atoms: C_19  and  C_21
REMARK    8  A    between atoms: S_22  and  C_23
REMARK    9  A    between atoms: C_23  and  C_24
REMARK                            x       y       z     vdW  Elec       q    Type
REMARK                         _______ _______ _______ _____ _____    ______ ____
ROOT
ATOM      1  C   UNL     1       0.030  -0.352   2.503  0.00  0.00    +0.147 C 
ATOM      2  N   UNL     1       0.764   0.914   2.629  0.00  0.00    -0.201 NA
ATOM      3  N   UNL     1       1.530   0.892   3.597  0.00  0.00    -0.198 NA
ATOM      4  C   UNL     1       1.457  -0.393   4.304  0.00  0.00    +0.138 C 
ATOM      5  N   UNL     1       0.780  -1.312   3.352  0.00  0.00    +0.423 N 
ATOM      6  H   UNL     1       1.454  -1.828   2.807  0.00  0.00    -0.073 HD
ENDROOT
BRANCH   1  16
ATOM      7  C   UNL     1      -0.018   1.503   0.010  0.00  0.00    +0.048 C 
ATOM      8  C   UNL     1       0.002  -0.004   0.002  0.00  0.00    -0.002 A 
ATOM      9  C   UNL     1       0.009  -0.879  -1.177  0.00  0.00    +0.023 A 
ATOM     10  C   UNL     1       0.000  -0.660  -2.553  0.00  0.00    +0.012 A 
ATOM     11  C   UNL     1       0.011  -1.726  -3.409  0.00  0.00    +0.001 A 
ATOM     12  C   UNL     1       0.031  -3.023  -2.916  0.00  0.00    +0.004 A 
ATOM     13  C   UNL     1       0.040  -3.259  -1.558  0.00  0.00    +0.047 A 
ATOM     14  C   UNL     1       0.029  -2.190  -0.671  0.00  0.00    +0.135 A 
ATOM     15  O   UNL     1       0.033  -2.100   0.674  0.00  0.00    -0.459 OA
ATOM     16  C   UNL     1       0.023  -0.814   1.069  0.00  0.00    +0.119 A 
ENDBRANCH   1  16
BRANCH   5  17
ATOM     17  C   UNL     1      -0.135  -2.222   4.054  0.00  0.00    -0.068 C 
BRANCH  17  18
ATOM     18  C   UNL     1       0.675  -3.272   4.818  0.00  0.00    -0.034 C 
ATOM     19  C   UNL     1      -0.271  -4.141   5.648  0.00  0.00    +0.005 C 
ATOM     20  C   UNL     1       1.436  -4.151   3.823  0.00  0.00    +0.005 C 
ENDBRANCH  17  18
ENDBRANCH   5  17
BRANCH   4  21
ATOM     21  S   UNL     1       3.123  -0.995   4.695  0.00  0.00    -0.144 S 
BRANCH  21  22
ATOM     22  C   UNL     1       3.934  -1.122   3.078  0.00  0.00    +0.143 C 
BRANCH  22  23
ATOM     23  C   UNL     1       5.345  -1.619   3.261  0.00  0.00    +0.120 A 
ATOM     24  N   UNL     1       6.122  -1.776   2.158  0.00  0.00    -0.310 N 
ATOM     25  H   UNL     1       5.760  -1.568   1.282  0.00  0.00    +0.170 HD
ATOM     26  C   UNL     1       7.396  -2.218   2.269  0.00  0.00    +0.259 A 
ATOM     27  O   UNL     1       8.103  -2.363   1.289  0.00  0.00    -0.267 OA
ATOM     28  C   UNL     1       7.893  -2.517   3.621  0.00  0.00    +0.065 A 
ATOM     29  C   UNL     1       9.188  -2.979   3.844  0.00  0.00    +0.015 A 
ATOM     30  C   UNL     1       9.602  -3.244   5.131  0.00  0.00    +0.001 A 
ATOM     31  C   UNL     1       8.739  -3.055   6.203  0.00  0.00    +0.002 A 
ATOM     32  C   UNL     1       7.455  -2.601   6.004  0.00  0.00    +0.028 A 
ATOM     33  C   UNL     1       7.013  -2.324   4.708  0.00  0.00    +0.078 A 
ATOM     34  N   UNL     1       5.758  -1.869   4.467  0.00  0.00    -0.233 NA
ENDBRANCH  22  23
ENDBRANCH  21  22
ENDBRANCH   4  21
TORSDOF 6
