REMARK  Name = ZINC63351583
REMARK  8 active torsions:
REMARK  status: ('A' for Active; 'I' for Inactive)
REMARK    1  A    between atoms: C_1  and  C_2
REMARK    2  A    between atoms: C_2  and  C_3
REMARK    3  A    between atoms: C_2  and  C_4
REMARK    4  A    between atoms: C_7  and  C_10
REMARK    5  A    between atoms: N_28  and  C_31
REMARK    6  A    between atoms: C_36  and  C_37
REMARK    7  A    between atoms: C_37  and  O_39
REMARK    8  A    between atoms: O_39  and  C_40
REMARK                            x       y       z     vdW  Elec       q    Type
REMARK                         _______ _______ _______ _____ _____    ______ ____
ROOT
ATOM      1  C   UNL     1       2.707  -1.868  -4.752  0.00  0.00    +0.135 C 
ATOM      2  C   UNL     1       3.943  -1.001  -5.024  0.00  0.00    +0.131 C 
ATOM      3  C   UNL     1       5.014  -1.420  -4.026  0.00  0.00    -0.034 C 
ATOM      4  C   UNL     1       5.350  -0.324  -3.353  0.00  0.00    -0.001 A 
ATOM      5  C   UNL     1       6.361  -0.087  -2.311  0.00  0.00    +0.010 A 
ATOM      6  C   UNL     1       6.431   1.178  -1.820  0.00  0.00    +0.001 A 
ATOM      7  C   UNL     1       5.606   2.219  -2.257  0.00  0.00    +0.002 A 
ATOM      8  C   UNL     1       4.653   2.093  -3.215  0.00  0.00    +0.026 A 
ATOM      9  C   UNL     1       4.488   0.808  -3.810  0.00  0.00    +0.043 A 
ATOM     10  N   UNL     1       3.669   0.413  -4.754  0.00  0.00    -0.375 N 
ATOM     11  C   UNL     1       5.481  -2.848  -3.866  0.00  0.00    +0.065 C 
ATOM     12  C   UNL     1       4.562  -3.709  -4.749  0.00  0.00    +0.169 C 
ATOM     13  N   UNL     1       3.171  -3.247  -4.554  0.00  0.00    -0.264 N 
ATOM     14  C   UNL     1       2.461  -4.308  -4.149  0.00  0.00    +0.317 C 
ATOM     15  O   UNL     1       1.255  -4.300  -4.003  0.00  0.00    -0.252 OA
ATOM     16  N   UNL     1       3.235  -5.379  -3.925  0.00  0.00    -0.192 N 
ATOM     17  C   UNL     1       4.550  -5.135  -4.241  0.00  0.00    +0.248 C 
ATOM     18  O   UNL     1       5.497  -5.884  -4.138  0.00  0.00    -0.273 OA
ATOM     19  H   UNL     1       2.998   0.955  -5.197  0.00  0.00    +0.160 HD
ENDROOT
BRANCH   1  23
ATOM     20  C   UNL     1       0.707  -0.490  -1.238  0.00  0.00    -0.045 A 
ATOM     21  C   UNL     1       0.222  -0.151  -2.487  0.00  0.00    +0.004 A 
ATOM     22  C   UNL     1       0.869  -0.597  -3.624  0.00  0.00    +0.006 A 
ATOM     23  C   UNL     1       2.002  -1.381  -3.513  0.00  0.00    -0.025 A 
ATOM     24  C   UNL     1       2.488  -1.720  -2.263  0.00  0.00    +0.006 A 
ATOM     25  C   UNL     1       1.843  -1.270  -1.126  0.00  0.00    +0.004 A 
BRANCH  20  27
ATOM     26  C   UNL     1      -0.019   1.526   0.010  0.00  0.00    +0.012 C 
ATOM     27  C   UNL     1       0.002  -0.004   0.002  0.00  0.00    +0.013 C 
ATOM     28  C   UNL     1      -1.433  -0.534   0.013  0.00  0.00    +0.012 C 
ENDBRANCH  20  27
ENDBRANCH   1  23
BRANCH  16  29
ATOM     29  C   UNL     1       2.763  -6.599  -3.437  0.00  0.00    +0.059 A 
ATOM     30  C   UNL     1       2.341  -7.585  -4.317  0.00  0.00    +0.025 A 
ATOM     31  C   UNL     1       1.875  -8.791  -3.833  0.00  0.00    +0.002 A 
ATOM     32  C   UNL     1       1.825  -9.027  -2.469  0.00  0.00    +0.001 A 
ATOM     33  C   UNL     1       2.241  -8.059  -1.580  0.00  0.00    +0.017 A 
ATOM     34  C   UNL     1       2.719  -6.836  -2.055  0.00  0.00    +0.081 A 
BRANCH  34  35
ATOM     35  C   UNL     1       3.171  -5.798  -1.110  0.00  0.00    +0.341 C 
ATOM     36  O   UNL     1       3.582  -4.734  -1.528  0.00  0.00    -0.245 OA
BRANCH  35  37
ATOM     37  O   UNL     1       3.127  -6.030   0.216  0.00  0.00    -0.464 OA
ATOM     38  C   UNL     1       3.579  -4.980   1.074  0.00  0.00    +0.280 C 
ENDBRANCH  35  37
ENDBRANCH  34  35
ENDBRANCH  16  29
TORSDOF 5
