REMARK  Name = ZINC03522751
REMARK  10 active torsions:
REMARK  status: ('A' for Active; 'I' for Inactive)
REMARK    1  A    between atoms: C_1  and  C_2
REMARK    2  A    between atoms: C_2  and  N_3
REMARK    3  A    between atoms: C_4  and  C_25
REMARK    4  A    between atoms: C_7  and  S_8
REMARK    5  A    between atoms: S_8  and  C_9
REMARK    6  A    between atoms: C_9  and  C_11
REMARK    7  A    between atoms: C_9  and  C_12
REMARK    8  A    between atoms: N_14  and  C_15
REMARK    9  A    between atoms: C_18  and  S_21
REMARK   10  A    between atoms: S_21  and  N_24
REMARK                            x       y       z     vdW  Elec       q    Type
REMARK                         _______ _______ _______ _____ _____    ______ ____
ROOT
ATOM      1  C   UNL     1      -3.497   4.580   6.712  0.00  0.00    +0.137 C 
ATOM      2  C   UNL     1      -4.899   5.105   6.399  0.00  0.00    +0.029 C 
ENDROOT
BRANCH   1   3
ATOM      3  C   UNL     1      -2.797   4.220   5.427  0.00  0.00    +0.230 C 
ATOM      4  O   UNL     1      -1.993   4.985   4.940  0.00  0.00    -0.274 OA
ATOM      5  N   UNL     1      -3.064   3.046   4.821  0.00  0.00    -0.285 N 
ATOM      6  H   UNL     1      -3.767   2.472   5.163  0.00  0.00    +0.155 HD
BRANCH   5   7
ATOM      7  C   UNL     1      -2.328   2.656   3.696  0.00  0.00    +0.034 A 
ATOM      8  C   UNL     1      -1.037   3.134   3.510  0.00  0.00    +0.025 A 
ATOM      9  C   UNL     1      -0.313   2.747   2.400  0.00  0.00    +0.030 A 
ATOM     10  C   UNL     1      -0.871   1.885   1.474  0.00  0.00    +0.105 A 
ATOM     11  C   UNL     1      -2.158   1.411   1.654  0.00  0.00    +0.030 A 
ATOM     12  C   UNL     1      -2.886   1.791   2.765  0.00  0.00    +0.025 A 
BRANCH  10  13
ATOM     13  S   UNL     1       0.056   1.393   0.059  0.00  0.00    +0.056 S 
ATOM     14  O   UNL     1       1.028   2.406  -0.162  0.00  0.00    -0.153 OA
ATOM     15  O   UNL     1      -0.887   1.014  -0.934  0.00  0.00    -0.153 OA
BRANCH  13  16
ATOM     16  N   UNL     1       0.888   0.021   0.470  0.00  0.00    -0.204 NA
ATOM     17  H   UNL     1       0.799  -0.350   1.361  0.00  0.00    +0.144 HD
ATOM     18  H   UNL     1       1.464  -0.410  -0.180  0.00  0.00    +0.144 HD
ENDBRANCH  13  16
ENDBRANCH  10  13
ENDBRANCH   5   7
ENDBRANCH   1   3
BRANCH   1  19
ATOM     19  S   UNL     1      -2.553   5.860   7.576  0.00  0.00    -0.074 S 
BRANCH  19  24
ATOM     20  N   UNL     1      -3.226   6.802  10.122  0.00  0.00    -0.302 N 
ATOM     21  C   UNL     1      -4.214   6.546  11.045  0.00  0.00    +0.165 A 
ATOM     22  N   UNL     1      -4.986   5.615  10.535  0.00  0.00    -0.128 NA
ATOM     23  N   UNL     1      -4.558   5.279   9.371  0.00  0.00    -0.122 NA
ATOM     24  C   UNL     1      -3.486   5.976   9.066  0.00  0.00    +0.193 A 
BRANCH  21  25
ATOM     25  C   UNL     1      -4.372   7.193  12.365  0.00  0.00    +0.019 A 
ATOM     26  C   UNL     1      -5.137   6.580  13.358  0.00  0.00    +0.013 A 
ATOM     27  C   UNL     1      -5.278   7.187  14.589  0.00  0.00    +0.021 A 
ATOM     28  C   UNL     1      -4.671   8.407  14.836  0.00  0.00    +0.041 A 
ATOM     29  C   UNL     1      -3.915   9.022  13.853  0.00  0.00    +0.021 A 
ATOM     30  C   UNL     1      -3.763   8.423  12.620  0.00  0.00    +0.013 A 
ATOM     31 CL   UNL     1      -4.858   9.168  16.385  0.00  0.00    -0.084 Cl
ENDBRANCH  21  25
BRANCH  20  33
ATOM     32  C   UNL     1      -2.526   9.082   9.582  0.00  0.00    +0.027 C 
ATOM     33  C   UNL     1      -2.127   7.763  10.245  0.00  0.00    +0.122 C 
ENDBRANCH  20  33
ENDBRANCH  19  24
ENDBRANCH   1  19
TORSDOF 8
