REMARK  Name = ZINC02450456
REMARK  9 active torsions:
REMARK  status: ('A' for Active; 'I' for Inactive)
REMARK    1  A    between atoms: C_1  and  O_2
REMARK    2  A    between atoms: O_2  and  C_3
REMARK    3  A    between atoms: C_5  and  C_13
REMARK    4  A    between atoms: C_7  and  O_11
REMARK    5  A    between atoms: C_8  and  O_9
REMARK    6  A    between atoms: O_9  and  C_10
REMARK    7  A    between atoms: O_11  and  C_12
REMARK    8  A    between atoms: N_19  and  C_20
REMARK    9  A    between atoms: C_24  and  C_26
REMARK                            x       y       z     vdW  Elec       q    Type
REMARK                         _______ _______ _______ _____ _____    ______ ____
ROOT
ATOM      1  C   UNL     1       2.496  -1.379  -0.029  0.00  0.00    +0.028 C 
ATOM      2  C   UNL     1       1.798  -0.228   0.143  0.00  0.00    +0.078 C 
ATOM      3  C   UNL     1       2.288   1.161   0.229  0.00  0.00    +0.256 C 
ATOM      4  O   UNL     1       3.474   1.423   0.146  0.00  0.00    -0.269 OA
ATOM      5  N   UNL     1       1.381   2.107   0.401  0.00  0.00    -0.260 N 
ATOM      6  C   UNL     1       0.043   1.790   0.493  0.00  0.00    +0.166 C 
ATOM      7  N   UNL     1      -0.979   2.599   0.657  0.00  0.00    -0.226 NA
ATOM      8  S   UNL     1       0.036   0.012   0.326  0.00  0.00    -0.049 S 
ATOM      9  H   UNL     1       1.660   3.034   0.462  0.00  0.00    +0.157 HD
ENDROOT
BRANCH   7  10
ATOM     10  C   UNL     1      -2.249   2.093   0.720  0.00  0.00    +0.067 A 
ATOM     11  C   UNL     1      -2.666   1.128  -0.200  0.00  0.00    +0.029 A 
ATOM     12  C   UNL     1      -3.946   0.619  -0.129  0.00  0.00    +0.022 A 
ATOM     13  C   UNL     1      -4.820   1.070   0.846  0.00  0.00    +0.053 A 
ATOM     14  C   UNL     1      -4.415   2.030   1.758  0.00  0.00    +0.075 A 
ATOM     15  C   UNL     1      -3.136   2.544   1.700  0.00  0.00    +0.041 A 
ATOM     16 CL   UNL     1      -6.431   0.429   0.925  0.00  0.00    -0.083 Cl
BRANCH  14  17
ATOM     17  C   UNL     1      -5.373   2.515   2.815  0.00  0.00    +0.419 C 
ATOM     18  F   UNL     1      -4.742   3.477   3.611  0.00  0.00    -0.166 F 
ATOM     19  F   UNL     1      -6.496   3.082   2.202  0.00  0.00    -0.166 F 
ATOM     20  F   UNL     1      -5.772   1.438   3.613  0.00  0.00    -0.166 F 
ENDBRANCH  14  17
ENDBRANCH   7  10
BRANCH   1  23
ATOM     21  C   UNL     1       1.770  -5.048  -0.328  0.00  0.00    +0.166 A 
ATOM     22  C   UNL     1       2.415  -3.830  -0.434  0.00  0.00    +0.057 A 
ATOM     23  C   UNL     1       1.815  -2.675   0.082  0.00  0.00    -0.017 A 
ATOM     24  C   UNL     1       0.566  -2.760   0.709  0.00  0.00    +0.057 A 
ATOM     25  C   UNL     1      -0.075  -3.981   0.806  0.00  0.00    +0.166 A 
ATOM     26  C   UNL     1       0.526  -5.127   0.291  0.00  0.00    +0.204 A 
BRANCH  21  28
ATOM     27  C   UNL     1       3.630  -6.017  -1.451  0.00  0.00    +0.277 C 
ATOM     28  O   UNL     1       2.352  -6.170  -0.829  0.00  0.00    -0.491 OA
ENDBRANCH  21  28
BRANCH  26  29
ATOM     29  O   UNL     1      -0.105  -6.327   0.394  0.00  0.00    -0.488 OA
ATOM     30  C   UNL     1       0.164  -7.104   1.563  0.00  0.00    +0.277 C 
ENDBRANCH  26  29
BRANCH  25  31
ATOM     31  O   UNL     1      -1.290  -4.064   1.410  0.00  0.00    -0.491 OA
ATOM     32  C   UNL     1      -1.848  -2.849   1.916  0.00  0.00    +0.277 C 
ENDBRANCH  25  31
ENDBRANCH   1  23
TORSDOF 6
