REMARK  Name = ZINC06198182
REMARK  10 active torsions:
REMARK  status: ('A' for Active; 'I' for Inactive)
REMARK    1  A    between atoms: C_1  and  C_2
REMARK    2  A    between atoms: C_2  and  C_3
REMARK    3  A    between atoms: C_10  and  C_15
REMARK    4  A    between atoms: C_15  and  C_17
REMARK    5  A    between atoms: C_15  and  N_66
REMARK    6  A    between atoms: N_21  and  C_22
REMARK    7  A    between atoms: C_22  and  C_23
REMARK    8  A    between atoms: C_22  and  C_24
REMARK    9  A    between atoms: C_22  and  C_25
REMARK   10  A    between atoms: C_25  and  C_26
REMARK                            x       y       z     vdW  Elec       q    Type
REMARK                         _______ _______ _______ _____ _____    ______ ____
ROOT
ATOM      1  C   UNL     1      -2.550   0.938   0.063  0.00  0.00    +0.039 C 
ENDROOT
BRANCH   1   9
ATOM      2  C   UNL     1       3.346   2.742   0.573  0.00  0.00    -0.047 A 
ATOM      3  C   UNL     1       3.082   4.097   0.721  0.00  0.00    +0.005 A 
ATOM      4  C   UNL     1       1.787   4.566   0.715  0.00  0.00    +0.026 A 
ATOM      5  C   UNL     1       0.731   3.674   0.558  0.00  0.00    +0.049 A 
ATOM      6  C   UNL     1       1.002   2.301   0.408  0.00  0.00    -0.001 A 
ATOM      7  C   UNL     1       2.325   1.848   0.418  0.00  0.00    +0.013 A 
ATOM      8  C   UNL     1      -0.116   1.370   0.243  0.00  0.00    +0.017 A 
ATOM      9  C   UNL     1      -1.377   1.868   0.236  0.00  0.00    +0.011 A 
ATOM     10  C   UNL     1      -1.596   3.253   0.395  0.00  0.00    +0.251 A 
ATOM     11  O   UNL     1      -2.738   3.679   0.390  0.00  0.00    -0.268 OA
ATOM     12  N   UNL     1      -0.576   4.116   0.547  0.00  0.00    -0.322 N 
ATOM     13  H   UNL     1      -0.767   5.091   0.654  0.00  0.00    +0.169 HD
BRANCH   2  15
ATOM     14  C   UNL     1       5.324   2.257  -0.843  0.00  0.00    +0.009 C 
ATOM     15  C   UNL     1       4.772   2.253   0.584  0.00  0.00    +0.032 C 
ENDBRANCH   2  15
ENDBRANCH   1   9
BRANCH   1  25
ATOM     16  C   UNL     1      -2.876   0.712   2.454  0.00  0.00    -0.072 C 
ATOM     17  C   UNL     1      -3.732   1.254   3.599  0.00  0.00    +0.017 C 
ATOM     18  C   UNL     1      -5.178   0.893   3.376  0.00  0.00    -0.048 A 
ATOM     19  C   UNL     1      -6.053   0.977   4.449  0.00  0.00    +0.004 A 
ATOM     20  C   UNL     1      -7.387   0.659   4.287  0.00  0.00    +0.000 A 
ATOM     21  C   UNL     1      -7.852   0.254   3.050  0.00  0.00    +0.000 A 
ATOM     22  C   UNL     1      -6.981   0.167   1.982  0.00  0.00    +0.002 A 
ATOM     23  C   UNL     1      -5.641   0.486   2.143  0.00  0.00    -0.061 A 
ATOM     24  C   UNL     1      -4.729   0.371   0.950  0.00  0.00    -0.041 C 
ATOM     25  N   UNL     1      -3.495   1.142   1.184  0.00  0.00    +0.392 N 
ATOM     26  H   UNL     1      -3.730   2.139   1.246  0.00  0.00    -0.080 HD
ENDBRANCH   1  25
BRANCH   1  27
ATOM     27  C   UNL     1      -3.249   1.248  -1.236  0.00  0.00    +0.143 A 
ATOM     28  N   UNL     1      -3.954   2.319  -1.510  0.00  0.00    -0.115 NA
ATOM     29  N   UNL     1      -4.384   2.213  -2.719  0.00  0.00    -0.023 NA
ATOM     30  N   UNL     1      -3.979   1.099  -3.222  0.00  0.00    -0.043 NA
ATOM     31  N   UNL     1      -3.277   0.475  -2.338  0.00  0.00    -0.225 N 
BRANCH  31  32
ATOM     32  C   UNL     1      -2.631  -0.829  -2.502  0.00  0.00    +0.061 C 
ATOM     33  C   UNL     1      -1.129  -0.691  -2.243  0.00  0.00    +0.036 C 
ATOM     34  C   UNL     1      -3.231  -1.825  -1.507  0.00  0.00    +0.036 C 
BRANCH  32  35
ATOM     35  C   UNL     1      -2.857  -1.334  -3.929  0.00  0.00    +0.026 C 
ATOM     36  C   UNL     1      -2.182  -2.697  -4.100  0.00  0.00    +0.006 C 
ENDBRANCH  32  35
ENDBRANCH  31  32
ENDBRANCH   1  27
TORSDOF 6
