REMARK  Name = ZINC16490959
REMARK  6 active torsions:
REMARK  status: ('A' for Active; 'I' for Inactive)
REMARK    1  A    between atoms: C_4  and  P_7
REMARK    2  A    between atoms: P_7  and  C_9
REMARK    3  A    between atoms: P_7  and  N_24
REMARK    4  A    between atoms: C_9  and  C_11
REMARK    5  A    between atoms: C_9  and  N_59
REMARK    6  A    between atoms: C_16  and  O_17
REMARK                            x       y       z     vdW  Elec       q    Type
REMARK                         _______ _______ _______ _____ _____    ______ ____
ROOT
ATOM      1  C   UNL     1      -1.643  -0.766   0.226  0.00  0.00    +0.048 C 
ENDROOT
BRANCH   1   2
ATOM      2  C   UNL     1      -2.159  -0.238   1.540  0.00  0.00    -0.010 A 
ATOM      3  C   UNL     1      -1.776  -0.837   2.724  0.00  0.00    +0.021 A 
ATOM      4  C   UNL     1      -2.245  -0.349   3.931  0.00  0.00    +0.018 A 
ATOM      5  C   UNL     1      -3.108   0.733   3.953  0.00  0.00    +0.019 A 
ATOM      6  C   UNL     1      -3.498   1.331   2.771  0.00  0.00    +0.047 A 
ATOM      7  C   UNL     1      -3.023   0.847   1.560  0.00  0.00    +0.119 A 
ATOM      8 BR   UNL     1      -1.713  -1.166   5.551  0.00  0.00    -0.050 Br
BRANCH   7   9
ATOM      9  O   UNL     1      -3.406   1.434   0.396  0.00  0.00    -0.507 OA
ATOM     10  H   UNL     1      -4.207   1.055   0.009  0.00  0.00    +0.292 HD
ENDBRANCH   7   9
ENDBRANCH   1   2
BRANCH   1  16
ATOM     11  C   UNL     1      -0.811  -2.755  -0.875  0.00  0.00    -0.077 C 
ATOM     12  C   UNL     1      -0.555  -4.252  -0.691  0.00  0.00    -0.019 C 
ATOM     13  C   UNL     1      -1.892  -4.973  -0.496  0.00  0.00    -0.004 C 
ATOM     14  C   UNL     1      -2.615  -4.371   0.712  0.00  0.00    -0.019 C 
ATOM     15  C   UNL     1      -2.811  -2.870   0.487  0.00  0.00    -0.077 C 
ATOM     16  N   UNL     1      -1.487  -2.232   0.331  0.00  0.00    +0.390 N 
ATOM     17  H   UNL     1      -0.914  -2.448   1.154  0.00  0.00    -0.080 HD
ENDBRANCH   1  16
BRANCH   1  18
ATOM     18  P   UNL     1      -0.019  -0.020  -0.133  0.00  0.00    +0.171 P 
ATOM     19  O   UNL     1       0.414  -0.413  -1.492  0.00  0.00    -0.301 OA
BRANCH  18  23
ATOM     20  C   UNL     1       3.048  -1.491   2.932  0.00  0.00    +0.000 A 
ATOM     21  C   UNL     1       2.209  -0.437   3.244  0.00  0.00    +0.001 A 
ATOM     22  C   UNL     1       1.283   0.007   2.319  0.00  0.00    +0.012 A 
ATOM     23  C   UNL     1       1.196  -0.602   1.081  0.00  0.00    +0.025 A 
ATOM     24  C   UNL     1       2.031  -1.659   0.771  0.00  0.00    +0.012 A 
ATOM     25  C   UNL     1       2.961  -2.100   1.694  0.00  0.00    +0.001 A 
ENDBRANCH  18  23
BRANCH  18  26
ATOM     26  N   UNL     1      -0.140   1.657  -0.046  0.00  0.00    -0.250 NA
ATOM     27  C   UNL     1      -0.965   2.183  -1.141  0.00  0.00    +0.092 C 
ATOM     28  C   UNL     1      -1.173   3.686  -0.948  0.00  0.00    +0.016 C 
ATOM     29  C   UNL     1       0.188   4.387  -0.927  0.00  0.00    +0.002 C 
ATOM     30  C   UNL     1       1.045   3.787   0.192  0.00  0.00    +0.016 C 
ATOM     31  C   UNL     1       1.189   2.280  -0.035  0.00  0.00    +0.092 C 
ENDBRANCH  18  26
ENDBRANCH   1  18
TORSDOF 6
