REMARK  Name = ZINC08789872
REMARK  4 active torsions:
REMARK  status: ('A' for Active; 'I' for Inactive)
REMARK    1  A    between atoms: C_12  and  C_14
REMARK    2  A    between atoms: C_14  and  C_15
REMARK    3  A    between atoms: C_15  and  C_16
REMARK    4  A    between atoms: N_20  and  C_23
REMARK                            x       y       z     vdW  Elec       q    Type
REMARK                         _______ _______ _______ _____ _____    ______ ____
ROOT
ATOM      1  C   UNL     1      -4.574   2.857   3.532  0.00  0.00    +0.000 A 
ATOM      2  C   UNL     1      -4.781   4.091   4.120  0.00  0.00    +0.002 A 
ATOM      3  C   UNL     1      -3.733   4.973   4.277  0.00  0.00    +0.023 A 
ATOM      4  C   UNL     1      -2.455   4.627   3.844  0.00  0.00    +0.036 A 
ATOM      5  C   UNL     1      -2.258   3.383   3.253  0.00  0.00    -0.028 A 
ATOM      6  C   UNL     1      -3.308   2.505   3.099  0.00  0.00    +0.004 A 
ATOM      7  C   UNL     1      -0.798   3.321   2.903  0.00  0.00    +0.050 C 
ATOM      8  C   UNL     1      -0.104   2.139   3.593  0.00  0.00    +0.088 C 
ATOM      9  C   UNL     1      -0.052   1.029   2.507  0.00  0.00    +0.073 C 
ATOM     10  C   UNL     1      -0.733   1.651   1.270  0.00  0.00    -0.057 C 
ATOM     11  C   UNL     1       1.428   0.874   2.238  0.00  0.00    +0.228 C 
ATOM     12  O   UNL     1       1.917   0.106   1.437  0.00  0.00    -0.275 OA
ATOM     13  N   UNL     1       2.113   1.715   3.021  0.00  0.00    -0.210 N 
ATOM     14  C   UNL     1       1.353   2.470   3.823  0.00  0.00    +0.229 C 
ATOM     15  O   UNL     1       1.769   3.292   4.612  0.00  0.00    -0.275 OA
ATOM     16  C   UNL     1      -0.230   4.636   3.360  0.00  0.00    +0.211 C 
ATOM     17  O   UNL     1       0.924   4.998   3.268  0.00  0.00    -0.277 OA
ATOM     18  N   UNL     1      -1.252   5.335   3.891  0.00  0.00    -0.286 N 
ATOM     19  H   UNL     1      -1.163   6.226   4.263  0.00  0.00    +0.155 HD
ATOM     20  N   UNL     1      -0.605   3.095   1.480  0.00  0.00    +0.394 N 
ATOM     21  H   UNL     1       0.328   3.414   1.194  0.00  0.00    -0.083 HD
ATOM     22  H   UNL     1      -1.320   3.597   0.941  0.00  0.00    -0.083 HD
ENDROOT
BRANCH  13  23
ATOM     23  C   UNL     1       3.512   1.797   3.004  0.00  0.00    +0.044 A 
ATOM     24  C   UNL     1       4.277   0.733   3.461  0.00  0.00    +0.025 A 
ATOM     25  C   UNL     1       5.656   0.815   3.438  0.00  0.00    +0.017 A 
ATOM     26  C   UNL     1       6.274   1.960   2.970  0.00  0.00    +0.018 A 
ATOM     27  C   UNL     1       5.514   3.025   2.518  0.00  0.00    +0.017 A 
ATOM     28  C   UNL     1       4.135   2.946   2.534  0.00  0.00    +0.025 A 
ATOM     29 BR   UNL     1       8.162   2.072   2.947  0.00  0.00    -0.050 Br
ENDBRANCH  13  23
BRANCH  10  30
ATOM     30  C   UNL     1      -0.020   1.208  -0.010  0.00  0.00    -0.004 C 
BRANCH  30  31
ATOM     31  C   UNL     1      -0.763   1.765  -1.226  0.00  0.00    +0.123 C 
BRANCH  31  32
ATOM     32  C   UNL     1      -0.061   1.329  -2.486  0.00  0.00    +0.356 C 
ATOM     33  O   UNL     1       0.932   0.643  -2.418  0.00  0.00    -0.246 OA
ATOM     34  O   UNL     1      -0.538   1.702  -3.684  0.00  0.00    -0.246 OA
ENDBRANCH  31  32
ENDBRANCH  30  31
ENDBRANCH  10  30
TORSDOF 4
