REMARK  Name = ZINC65912749
REMARK  4 active torsions:
REMARK  status: ('A' for Active; 'I' for Inactive)
REMARK    1  A    between atoms: C_9  and  C_11
REMARK    2  A    between atoms: N_13  and  C_14
REMARK    3  A    between atoms: C_14  and  C_15
REMARK    4  A    between atoms: C_17  and  C_20
REMARK                            x       y       z     vdW  Elec       q    Type
REMARK                         _______ _______ _______ _____ _____    ______ ____
ROOT
ATOM      1  C   UNL     1       1.225  -2.169  -0.021  0.00  0.00    +0.246 C 
ATOM      2  O   UNL     1       2.283  -2.768  -0.035  0.00  0.00    -0.270 OA
ATOM      3  N   UNL     1       0.064  -2.853  -0.013  0.00  0.00    -0.302 N 
ATOM      4  H   UNL     1      -0.780  -2.375  -0.002  0.00  0.00    +0.150 HD
ENDROOT
BRANCH   1  13
ATOM      5  C   UNL     1      -0.017   1.379   0.010  0.00  0.00    +0.001 A 
ATOM      6  C   UNL     1       1.160   2.097   0.002  0.00  0.00    +0.010 A 
ATOM      7  C   UNL     1       2.386   1.430  -0.013  0.00  0.00    +0.004 A 
ATOM      8  C   UNL     1       3.781   1.861  -0.023  0.00  0.00    -0.019 A 
ATOM      9  C   UNL     1       4.543   0.751  -0.038  0.00  0.00    +0.020 A 
ATOM     10  N   UNL     1       3.740  -0.355  -0.038  0.00  0.00    -0.357 N 
ATOM     11  H   UNL     1       4.056  -1.272  -0.048  0.00  0.00    +0.166 HD
ATOM     12  C   UNL     1       2.420   0.022  -0.022  0.00  0.00    +0.059 A 
ATOM     13  C   UNL     1       1.212  -0.694  -0.013  0.00  0.00    +0.061 A 
ATOM     14  C   UNL     1       0.002  -0.004   0.002  0.00  0.00    +0.015 A 
ATOM     15  C   UNL     1       6.054   0.772  -0.054  0.00  0.00    +0.053 C 
ATOM     16  C   UNL     1       6.517   2.173  -0.469  0.00  0.00    +0.006 C 
ATOM     17  C   UNL     1       5.797   3.223   0.382  0.00  0.00    +0.005 C 
ATOM     18  C   UNL     1       4.317   3.269  -0.015  0.00  0.00    +0.037 C 
ENDBRANCH   1  13
BRANCH   3  19
ATOM     19  C   UNL     1       0.076  -4.318  -0.020  0.00  0.00    +0.203 C 
BRANCH  19  20
ATOM     20  C   UNL     1      -1.340  -4.832  -0.008  0.00  0.00    +0.245 A 
ATOM     21  N   UNL     1      -2.063  -5.092  -1.059  0.00  0.00    -0.190 NA
ATOM     22  C   UNL     1      -3.279  -5.535  -0.685  0.00  0.00    +0.209 A 
ATOM     23  N   UNL     1      -3.329  -5.558   0.627  0.00  0.00    -0.055 NA
ATOM     24  O   UNL     1      -2.064  -5.106   1.085  0.00  0.00    -0.336 OA
BRANCH  22  25
ATOM     25  C   UNL     1      -4.372  -5.928  -1.597  0.00  0.00    +0.060 A 
ATOM     26  C   UNL     1      -5.629  -6.380  -1.293  0.00  0.00    +0.019 A 
ATOM     27  C   UNL     1      -6.489  -6.689  -2.323  0.00  0.00    +0.008 A 
ATOM     28  C   UNL     1      -6.066  -6.538  -3.605  0.00  0.00    +0.046 A 
ATOM     29  S   UNL     1      -4.402  -5.932  -3.382  0.00  0.00    -0.093 S 
ENDBRANCH  22  25
ENDBRANCH  19  20
ENDBRANCH   3  19
TORSDOF 4
