REMARK  Name = ZINC20405141
REMARK  3 active torsions:
REMARK  status: ('A' for Active; 'I' for Inactive)
REMARK    1  A    between atoms: C_10  and  C_12
REMARK    2  A    between atoms: C_15  and  C_26
REMARK    3  A    between atoms: C_17  and  N_21
REMARK                            x       y       z     vdW  Elec       q    Type
REMARK                         _______ _______ _______ _____ _____    ______ ____
ROOT
ATOM      1  C   UNL     1       4.656   0.025  -0.981  0.00  0.00    +0.061 C 
ATOM      2  C   UNL     1       4.350   0.035  -2.349  0.00  0.00    +0.165 C 
ATOM      3  C   UNL     1       5.256   0.730  -3.332  0.00  0.00    +0.090 C 
ATOM      4  C   UNL     1       6.690   0.708  -2.793  0.00  0.00    +0.059 C 
ATOM      5  C   UNL     1       6.708   1.360  -1.407  0.00  0.00    +0.187 C 
ATOM      6  C   UNL     1       5.752   0.637  -0.497  0.00  0.00    +0.189 C 
ATOM      7  O   UNL     1       6.000   0.599   0.826  0.00  0.00    -0.290 OA
ATOM      8  O   UNL     1       3.346  -0.523  -2.746  0.00  0.00    -0.292 OA
ENDROOT
BRANCH   1  18
ATOM      9  C   UNL     1      -0.017   1.376   0.010  0.00  0.00    +0.000 A 
ATOM     10  C   UNL     1       1.173   2.080   0.002  0.00  0.00    +0.000 A 
ATOM     11  C   UNL     1       2.374   1.400  -0.011  0.00  0.00    +0.006 A 
ATOM     12  C   UNL     1       2.395   0.013  -0.018  0.00  0.00    -0.023 A 
ATOM     13  C   UNL     1       1.208  -0.688  -0.014  0.00  0.00    -0.041 A 
ATOM     14  C   UNL     1       0.002  -0.004   0.002  0.00  0.00    +0.004 A 
ATOM     15  C   UNL     1       1.180  -2.195  -0.033  0.00  0.00    +0.050 C 
ATOM     16  C   UNL     1       2.548  -2.748   0.366  0.00  0.00    +0.086 C 
ATOM     17  N   UNL     1       3.577  -2.081  -0.447  0.00  0.00    -0.305 NA
ATOM     18  C   UNL     1       3.730  -0.684  -0.026  0.00  0.00    +0.122 C 
ATOM     19  H   UNL     1       4.456  -2.573  -0.393  0.00  0.00    +0.123 HD
ENDBRANCH   1  18
BRANCH   4  20
ATOM     20  C   UNL     1       7.593   1.473  -3.726  0.00  0.00    -0.041 A 
ATOM     21  C   UNL     1       7.356   2.812  -3.972  0.00  0.00    +0.007 A 
ATOM     22  C   UNL     1       8.183   3.515  -4.827  0.00  0.00    +0.038 A 
ATOM     23  C   UNL     1       9.250   2.877  -5.437  0.00  0.00    +0.123 A 
ATOM     24  C   UNL     1       9.486   1.536  -5.190  0.00  0.00    +0.038 A 
ATOM     25  C   UNL     1       8.660   0.836  -4.331  0.00  0.00    +0.007 A 
ATOM     26  F   UNL     1      10.059   3.563  -6.274  0.00  0.00    -0.205 F 
ENDBRANCH   4  20
BRANCH   5  27
ATOM     27  N   UNL     1       8.062   1.290  -0.852  0.00  0.00    -0.241 N 
ATOM     28  C   UNL     1       8.605   0.260  -0.181  0.00  0.00    +0.219 A 
ATOM     29  N   UNL     1       9.829   0.588   0.145  0.00  0.00    -0.223 NA
ATOM     30  C   UNL     1      10.102   1.815  -0.299  0.00  0.00    +0.245 A 
ATOM     31  N   UNL     1       9.052   2.284  -0.921  0.00  0.00    -0.158 NA
ENDBRANCH   5  27
TORSDOF 3
