REMARK  Name = ZINC05478319
REMARK  5 active torsions:
REMARK  status: ('A' for Active; 'I' for Inactive)
REMARK    1  A    between atoms: C_1  and  S_2
REMARK    2  A    between atoms: S_2  and  C_3
REMARK    3  A    between atoms: C_5  and  N_21
REMARK    4  A    between atoms: C_6  and  C_13
REMARK    5  A    between atoms: C_13  and  C_15
REMARK                            x       y       z     vdW  Elec       q    Type
REMARK                         _______ _______ _______ _____ _____    ______ ____
ROOT
ATOM      1  C   UNL     1      -1.162  -2.032  -0.525  0.00  0.00    +0.112 A 
ATOM      2  C   UNL     1       0.042  -2.751  -0.266  0.00  0.00    +0.061 A 
ATOM      3  C   UNL     1       0.232  -4.167  -0.022  0.00  0.00    +0.055 A 
ATOM      4  C   UNL     1       1.516  -4.627   0.204  0.00  0.00    +0.083 A 
ATOM      5  S   UNL     1       2.506  -3.149   0.093  0.00  0.00    -0.063 S 
ATOM      6  C   UNL     1       1.223  -1.973  -0.245  0.00  0.00    +0.117 A 
ATOM      7  N   UNL     1       1.192  -0.671  -0.452  0.00  0.00    -0.207 NA
ATOM      8  C   UNL     1       0.040  -0.056  -0.687  0.00  0.00    +0.215 A 
ATOM      9  N   UNL     1      -1.106  -0.724  -0.716  0.00  0.00    -0.208 NA
ATOM     10  N   UNL     1       0.033   1.310  -0.901  0.00  0.00    -0.327 N 
ATOM     11  H   UNL     1       0.865   1.809  -0.878  0.00  0.00    +0.145 HD
ATOM     12  H   UNL     1      -0.802   1.769  -1.078  0.00  0.00    +0.145 HD
ENDROOT
BRANCH   3  13
ATOM     13  N   UNL     1      -0.848  -5.039  -0.017  0.00  0.00    -0.356 N 
ATOM     14  H   UNL     1      -0.700  -5.994  -0.097  0.00  0.00    +0.142 HD
ATOM     15  H   UNL     1      -1.750  -4.693   0.067  0.00  0.00    +0.142 HD
ENDBRANCH   3  13
BRANCH   1  17
ATOM     16  C   UNL     1      -3.812  -1.484  -0.931  0.00  0.00    +0.091 C 
ATOM     17  S   UNL     1      -2.708  -2.874  -0.579  0.00  0.00    -0.108 S 
ENDBRANCH   1  17
BRANCH   4  18
ATOM     18  C   UNL     1       1.941  -5.951   0.463  0.00  0.00    +0.208 C 
ATOM     19  O   UNL     1       1.124  -6.857   0.506  0.00  0.00    -0.285 OA
BRANCH  18  20
ATOM     20  C   UNL     1       3.364  -6.236   0.680  0.00  0.00    +0.061 A 
ATOM     21  C   UNL     1       3.982  -7.448   0.944  0.00  0.00    +0.021 A 
ATOM     22  C   UNL     1       5.346  -7.433   1.107  0.00  0.00    +0.028 A 
ATOM     23  C   UNL     1       6.013  -6.252   1.003  0.00  0.00    +0.079 A 
ATOM     24  S   UNL     1       4.750  -5.113   0.664  0.00  0.00    -0.074 S 
ATOM     25 CL   UNL     1       7.716  -5.958   1.162  0.00  0.00    -0.076 Cl
ENDBRANCH  18  20
ENDBRANCH   4  18
TORSDOF 4
