REMARK  Name = ZINC09623548
REMARK  13 active torsions:
REMARK  status: ('A' for Active; 'I' for Inactive)
REMARK    1  A    between atoms: C_1  and  C_2
REMARK    2  A    between atoms: C_2  and  C_3
REMARK    3  A    between atoms: C_3  and  N_4
REMARK    4  A    between atoms: C_6  and  O_37
REMARK    5  A    between atoms: C_9  and  O_35
REMARK    6  A    between atoms: N_13  and  C_14
REMARK    7  A    between atoms: C_14  and  C_16
REMARK    8  A    between atoms: C_19  and  S_22
REMARK    9  A    between atoms: S_22  and  N_25
REMARK   10  A    between atoms: C_27  and  C_34
REMARK   11  A    between atoms: C_30  and  C_33
REMARK   12  A    between atoms: O_35  and  C_36
REMARK   13  A    between atoms: O_37  and  C_38
REMARK                            x       y       z     vdW  Elec       q    Type
REMARK                         _______ _______ _______ _____ _____    ______ ____
ROOT
ATOM      1  C   UNL     1      -6.759  -1.312  -0.896  0.00  0.00    +0.269 C 
ATOM      2  O   UNL     1      -7.731  -0.692  -1.292  0.00  0.00    -0.268 OA
ENDROOT
BRANCH   1  12
ATOM      3  N   UNL     1      -8.509  -3.876   0.942  0.00  0.00    -0.318 N 
ATOM      4  C   UNL     1      -9.848  -4.142   1.172  0.00  0.00    +0.103 A 
ATOM      5  C   UNL     1     -10.413  -5.193   1.921  0.00  0.00    +0.145 A 
ATOM      6  C   UNL     1     -11.780  -5.311   2.049  0.00  0.00    +0.051 A 
ATOM      7  C   UNL     1     -12.638  -4.404   1.449  0.00  0.00    +0.050 A 
ATOM      8  C   UNL     1     -12.107  -3.359   0.706  0.00  0.00    +0.136 A 
ATOM      9  C   UNL     1     -10.739  -3.241   0.578  0.00  0.00    +0.084 A 
ATOM     10  S   UNL     1      -9.667  -2.091  -0.247  0.00  0.00    -0.048 S 
ATOM     11  C   UNL     1      -8.147  -2.805   0.186  0.00  0.00    +0.167 A 
ATOM     12  N   UNL     1      -6.924  -2.399  -0.137  0.00  0.00    -0.152 NA
BRANCH   8  13
ATOM     13  O   UNL     1     -12.931  -2.457   0.108  0.00  0.00    -0.494 OA
ATOM     14  C   UNL     1     -14.337  -2.644   0.286  0.00  0.00    +0.277 C 
ENDBRANCH   8  13
BRANCH   5  15
ATOM     15  O   UNL     1      -9.600  -6.103   2.523  0.00  0.00    -0.493 OA
ATOM     16  C   UNL     1     -10.233  -7.145   3.268  0.00  0.00    +0.277 C 
ENDBRANCH   5  15
BRANCH   3  17
ATOM     17  C   UNL     1      -7.481  -4.750   1.513  0.00  0.00    +0.124 C 
BRANCH  17  19
ATOM     18  C   UNL     1      -6.008  -5.144   3.492  0.00  0.00    +0.005 C 
ATOM     19  C   UNL     1      -7.082  -4.232   2.896  0.00  0.00    +0.018 C 
ENDBRANCH  17  19
ENDBRANCH   3  17
ENDBRANCH   1  12
BRANCH   1  20
ATOM     20  C   UNL     1      -5.395  -0.860  -1.257  0.00  0.00    +0.039 A 
ATOM     21  C   UNL     1      -5.220   0.275  -2.049  0.00  0.00    +0.015 A 
ATOM     22  C   UNL     1      -3.947   0.691  -2.381  0.00  0.00    +0.029 A 
ATOM     23  C   UNL     1      -2.846  -0.014  -1.929  0.00  0.00    +0.106 A 
ATOM     24  C   UNL     1      -3.013  -1.143  -1.147  0.00  0.00    +0.029 A 
ATOM     25  C   UNL     1      -4.281  -1.566  -0.804  0.00  0.00    +0.015 A 
BRANCH  23  26
ATOM     26  S   UNL     1      -1.224   0.524  -2.358  0.00  0.00    +0.061 S 
ATOM     27  O   UNL     1      -1.350   1.284  -3.552  0.00  0.00    -0.153 OA
ATOM     28  O   UNL     1      -0.381  -0.616  -2.266  0.00  0.00    -0.153 OA
BRANCH  26  29
ATOM     29  N   UNL     1      -0.729   1.575  -1.178  0.00  0.00    -0.176 NA
ATOM     30  C   UNL     1      -0.013   1.086   0.008  0.00  0.00    +0.112 C 
ATOM     31  C   UNL     1      -0.736   1.583   1.264  0.00  0.00    +0.002 C 
ATOM     32  C   UNL     1      -0.878   3.105   1.196  0.00  0.00    +0.009 C 
ATOM     33  C   UNL     1      -1.712   3.490  -0.028  0.00  0.00    +0.002 C 
ATOM     34  C   UNL     1      -0.997   3.015  -1.297  0.00  0.00    +0.112 C 
ATOM     35  C   UNL     1      -3.088   2.827   0.061  0.00  0.00    +0.009 C 
ATOM     36  C   UNL     1       0.073   1.197   2.505  0.00  0.00    +0.009 C 
ENDBRANCH  26  29
ENDBRANCH  23  26
ENDBRANCH   1  20
TORSDOF 8
