REMARK  Name = ZINC22426646
REMARK  12 active torsions:
REMARK  status: ('A' for Active; 'I' for Inactive)
REMARK    1  A    between atoms: C_1  and  C_2
REMARK    2  A    between atoms: C_9  and  C_31
REMARK    3  A    between atoms: C_9  and  C_32
REMARK    4  A    between atoms: C_11  and  N_13
REMARK    5  A    between atoms: C_14  and  C_16
REMARK    6  A    between atoms: C_16  and  N_17
REMARK    7  A    between atoms: N_17  and  C_18
REMARK    8  A    between atoms: N_17  and  S_27
REMARK    9  A    between atoms: C_23  and  C_24
REMARK   10  A    between atoms: C_24  and  C_25
REMARK   11  A    between atoms: C_24  and  C_26
REMARK   12  A    between atoms: S_27  and  C_30
REMARK                            x       y       z     vdW  Elec       q    Type
REMARK                         _______ _______ _______ _____ _____    ______ ____
ROOT
ATOM      1  N   UNL     1      -0.982  -0.532  -0.836  0.00  0.00    -0.307 N 
ATOM      2  C   UNL     1      -2.236  -0.782  -0.411  0.00  0.00    +0.233 C 
ATOM      3  O   UNL     1      -2.551  -0.527   0.732  0.00  0.00    -0.274 OA
ATOM      4  H   UNL     1      -0.717  -0.691  -1.892  0.00  0.00    +0.149 HD
ENDROOT
BRANCH   1  15
ATOM      5  C   UNL     1       0.119   5.734  -0.080  0.00  0.00    +0.044 C 
ATOM      6  C   UNL     1       0.106   4.228  -0.032  0.00  0.00    -0.047 A 
ATOM      7  C   UNL     1      -1.097   3.546  -0.049  0.00  0.00    +0.004 A 
ATOM      8  C   UNL     1      -1.108   2.166   0.001  0.00  0.00    +0.009 A 
ATOM      9  C   UNL     1       0.081   1.458   0.057  0.00  0.00    +0.015 A 
ATOM     10  C   UNL     1       1.286   2.138   0.071  0.00  0.00    +0.126 A 
ATOM     11  C   UNL     1       1.294   3.529   0.027  0.00  0.00    +0.049 A 
ATOM     12  O   UNL     1       2.476   1.485   0.124  0.00  0.00    -0.486 OA
ATOM     13  C   UNL     1       2.470   0.118   0.536  0.00  0.00    +0.107 C 
ATOM     14  C   UNL     1       1.395  -0.625  -0.269  0.00  0.00    +0.074 C 
ATOM     15  C   UNL     1       0.028  -0.047   0.108  0.00  0.00    +0.110 C 
ATOM     16  C   UNL     1       2.147   0.031   2.029  0.00  0.00    +0.055 C 
ATOM     17  C   UNL     1       3.839  -0.509   0.268  0.00  0.00    +0.055 C 
ENDBRANCH   1  15
BRANCH   2  18
ATOM     18  C   UNL     1      -3.247  -1.379  -1.356  0.00  0.00    +0.226 C 
BRANCH  18  19
ATOM     19  N   UNL     1      -4.558  -1.425  -0.703  0.00  0.00    -0.199 N 
BRANCH  19  20
ATOM     20  C   UNL     1      -5.400  -0.312  -0.749  0.00  0.00    +0.055 A 
ATOM     21  C   UNL     1      -5.258   0.708   0.184  0.00  0.00    +0.025 A 
ATOM     22  C   UNL     1      -6.092   1.807   0.136  0.00  0.00    +0.002 A 
ATOM     23  C   UNL     1      -7.068   1.895  -0.840  0.00  0.00    +0.000 A 
ATOM     24  C   UNL     1      -7.212   0.882  -1.771  0.00  0.00    +0.006 A 
ATOM     25  C   UNL     1      -6.378  -0.218  -1.731  0.00  0.00    -0.022 A 
BRANCH  25  26
ATOM     26  C   UNL     1      -6.532  -1.319  -2.749  0.00  0.00    +0.015 C 
ATOM     27  C   UNL     1      -7.975  -1.827  -2.736  0.00  0.00    +0.012 C 
ATOM     28  C   UNL     1      -6.194  -0.778  -4.140  0.00  0.00    +0.012 C 
ENDBRANCH  25  26
ENDBRANCH  19  20
BRANCH  19  29
ATOM     29  S   UNL     1      -5.041  -2.797   0.089  0.00  0.00    +0.043 S 
ATOM     30  O   UNL     1      -6.459  -2.793  -0.011  0.00  0.00    -0.155 OA
ATOM     31  O   UNL     1      -4.277  -3.842  -0.497  0.00  0.00    -0.155 OA
ATOM     32  C   UNL     1      -4.535  -2.543   1.812  0.00  0.00    +0.218 C 
ENDBRANCH  19  29
ENDBRANCH  18  19
ENDBRANCH   2  18
TORSDOF 6
