REMARK  Name = ZINC06819122
REMARK  7 active torsions:
REMARK  status: ('A' for Active; 'I' for Inactive)
REMARK    1  A    between atoms: C_1  and  C_2
REMARK    2  A    between atoms: C_5  and  O_26
REMARK    3  A    between atoms: C_6  and  N_8
REMARK    4  A    between atoms: C_15  and  C_25
REMARK    5  A    between atoms: C_22  and  O_23
REMARK    6  A    between atoms: O_23  and  C_24
REMARK    7  A    between atoms: O_26  and  C_27
REMARK                            x       y       z     vdW  Elec       q    Type
REMARK                         _______ _______ _______ _____ _____    ______ ____
ROOT
ATOM      1  N   UNL     1      -0.782   3.038   1.254  0.00  0.00    -0.213 N 
ATOM      2  C   UNL     1      -1.835   3.722   1.710  0.00  0.00    +0.310 C 
ATOM      3  O   UNL     1      -1.843   4.933   1.601  0.00  0.00    -0.252 OA
ATOM      4  N   UNL     1      -2.887   3.116   2.287  0.00  0.00    -0.292 N 
ATOM      5  C   UNL     1      -2.865   1.660   2.499  0.00  0.00    +0.114 C 
ATOM      6  C   UNL     1      -2.161   1.025   1.289  0.00  0.00    +0.096 C 
ATOM      7  C   UNL     1      -0.729   1.579   1.267  0.00  0.00    +0.185 C 
ATOM      8  O   UNL     1      -0.038   1.106   2.420  0.00  0.00    -0.464 OA
ATOM      9  C   UNL     1      -0.670   1.146   3.622  0.00  0.00    +0.170 A 
ATOM     10  C   UNL     1      -2.026   1.395   3.729  0.00  0.00    +0.018 A 
ATOM     11  C   UNL     1      -2.634   1.415   4.972  0.00  0.00    +0.009 A 
ATOM     12  C   UNL     1      -1.889   1.193   6.115  0.00  0.00    +0.004 A 
ATOM     13  C   UNL     1      -0.532   0.949   6.019  0.00  0.00    +0.049 A 
ATOM     14  C   UNL     1       0.080   0.924   4.778  0.00  0.00    +0.162 A 
ATOM     15  C   UNL     1      -0.013   1.086   0.008  0.00  0.00    +0.079 C 
ATOM     16  H   UNL     1      -3.658   3.637   2.562  0.00  0.00    +0.151 HD
ENDROOT
BRANCH   1  22
ATOM     17  C   UNL     1       1.474   5.140  -2.577  0.00  0.00    +0.044 C 
ATOM     18  C   UNL     1       1.428   4.786  -1.113  0.00  0.00    -0.048 A 
ATOM     19  C   UNL     1       2.462   5.167  -0.278  0.00  0.00    +0.007 A 
ATOM     20  C   UNL     1       2.425   4.845   1.066  0.00  0.00    +0.048 A 
ATOM     21  C   UNL     1       1.348   4.143   1.581  0.00  0.00    +0.142 A 
ATOM     22  C   UNL     1       0.308   3.753   0.739  0.00  0.00    +0.083 A 
ATOM     23  C   UNL     1       0.352   4.080  -0.608  0.00  0.00    +0.030 A 
BRANCH  21  24
ATOM     24  O   UNL     1       1.308   3.829   2.904  0.00  0.00    -0.493 OA
ATOM     25  C   UNL     1       2.408   4.261   3.706  0.00  0.00    +0.277 C 
ENDBRANCH  21  24
ENDBRANCH   1  22
BRANCH  14  26
ATOM     26  O   UNL     1       1.416   0.683   4.684  0.00  0.00    -0.491 OA
ATOM     27  C   UNL     1       2.123   0.465   5.907  0.00  0.00    +0.277 C 
ENDBRANCH  14  26
TORSDOF 3
