REMARK  Name = ZINC09261900
REMARK  7 active torsions:
REMARK  status: ('A' for Active; 'I' for Inactive)
REMARK    1  A    between atoms: C_10  and  O_11
REMARK    2  A    between atoms: O_11  and  C_12
REMARK    3  A    between atoms: C_12  and  C_13
REMARK    4  A    between atoms: N_15  and  N_16
REMARK    5  A    between atoms: C_17  and  C_18
REMARK    6  A    between atoms: C_21  and  O_23
REMARK    7  A    between atoms: O_23  and  C_24
REMARK                            x       y       z     vdW  Elec       q    Type
REMARK                         _______ _______ _______ _____ _____    ______ ____
ROOT
ATOM      1  C   UNL     1      -4.891   3.791   0.276  0.00  0.00    +0.270 C 
ATOM      2  O   UNL     1      -4.771   4.998   0.260  0.00  0.00    -0.270 OA
ATOM      3  N   UNL     1      -6.118   3.235   0.270  0.00  0.00    -0.204 N 
ATOM      4  H   UNL     1      -6.214   2.269   0.282  0.00  0.00    +0.177 HD
ENDROOT
BRANCH   3   5
ATOM      5  N   UNL     1      -7.257   4.051   0.244  0.00  0.00    -0.185 NA
ATOM      6  C   UNL     1      -8.443   3.514   0.238  0.00  0.00    +0.176 C 
BRANCH   6   7
ATOM      7  C   UNL     1      -9.632   4.367   0.212  0.00  0.00    +0.153 A 
ATOM      8  C   UNL     1     -10.928   3.935   0.197  0.00  0.00    +0.070 A 
ATOM      9  C   UNL     1     -11.738   5.082   0.177  0.00  0.00    +0.102 A 
ATOM     10  C   UNL     1     -10.908   6.156   0.170  0.00  0.00    +0.307 A 
ATOM     11  O   UNL     1      -9.639   5.717   0.192  0.00  0.00    -0.423 OA
ATOM     12 BR   UNL     1     -13.629   5.123   0.154  0.00  0.00    -0.043 Br
BRANCH  10  13
ATOM     13  O   UNL     1     -11.295   7.455   0.146  0.00  0.00    -0.424 OA
BRANCH  13  14
ATOM     14  C   UNL     1     -10.333   8.410   0.246  0.00  0.00    +0.132 A 
ATOM     15  C   UNL     1     -10.149   9.089   1.442  0.00  0.00    +0.048 A 
ATOM     16  C   UNL     1      -9.167  10.056   1.542  0.00  0.00    +0.023 A 
ATOM     17  C   UNL     1      -8.374  10.354   0.448  0.00  0.00    +0.041 A 
ATOM     18  C   UNL     1      -8.559   9.681  -0.747  0.00  0.00    +0.023 A 
ATOM     19  C   UNL     1      -9.537   8.711  -0.850  0.00  0.00    +0.048 A 
ATOM     20 CL   UNL     1      -7.145  11.573   0.575  0.00  0.00    -0.084 Cl
ENDBRANCH  13  14
ENDBRANCH  10  13
ENDBRANCH   6   7
ENDBRANCH   3   5
BRANCH   1  21
ATOM     21  C   UNL     1      -3.666   2.913   0.303  0.00  0.00    +0.326 C 
BRANCH  21  22
ATOM     22  O   UNL     1      -2.494   3.730   0.305  0.00  0.00    -0.482 OA
BRANCH  22  32
ATOM     23  C   UNL     1       2.292   5.240   0.340  0.00  0.00    +0.001 A 
ATOM     24  C   UNL     1       1.073   5.915   0.316  0.00  0.00    +0.001 A 
ATOM     25  C   UNL     1      -0.105   5.234   0.312  0.00  0.00    +0.012 A 
ATOM     26  C   UNL     1      -0.096   3.830   0.333  0.00  0.00    +0.024 A 
ATOM     27  C   UNL     1       1.143   3.142   0.357  0.00  0.00    -0.014 A 
ATOM     28  C   UNL     1       2.339   3.880   0.360  0.00  0.00    +0.008 A 
ATOM     29  C   UNL     1       1.151   1.737   0.376  0.00  0.00    +0.009 A 
ATOM     30  C   UNL     1      -0.026   1.054   0.372  0.00  0.00    +0.004 A 
ATOM     31  C   UNL     1      -1.246   1.724   0.342  0.00  0.00    +0.046 A 
ATOM     32  C   UNL     1      -1.296   3.090   0.329  0.00  0.00    +0.129 A 
ENDBRANCH  22  32
ENDBRANCH  21  22
ENDBRANCH   1  21
TORSDOF 7
