REMARK  Name = ZINC47146085
REMARK  8 active torsions:
REMARK  status: ('A' for Active; 'I' for Inactive)
REMARK    1  A    between atoms: C_1  and  O_2
REMARK    2  A    between atoms: O_2  and  C_3
REMARK    3  A    between atoms: C_5  and  C_12
REMARK    4  A    between atoms: C_7  and  O_10
REMARK    5  A    between atoms: C_8  and  O_9
REMARK    6  A    between atoms: O_10  and  C_11
REMARK    7  A    between atoms: N_28  and  C_31
REMARK    8  A    between atoms: C_34  and  N_37
REMARK                            x       y       z     vdW  Elec       q    Type
REMARK                         _______ _______ _______ _____ _____    ______ ____
ROOT
ATOM      1  C   UNL     1       2.402   0.386  -4.230  0.00  0.00    +0.072 C 
ATOM      2  C   UNL     1       3.876   0.211  -4.177  0.00  0.00    +0.033 A 
ATOM      3  C   UNL     1       4.732  -0.034  -5.186  0.00  0.00    +0.088 A 
ATOM      4  N   UNL     1       6.056  -0.113  -4.817  0.00  0.00    -0.311 N 
ATOM      5  H   UNL     1       6.738  -0.267  -5.489  0.00  0.00    +0.170 HD
ATOM      6  C   UNL     1       6.405   0.025  -3.525  0.00  0.00    +0.289 A 
ATOM      7  O   UNL     1       7.518  -0.024  -3.033  0.00  0.00    -0.260 OA
ATOM      8  S   UNL     1       4.933   0.280  -2.752  0.00  0.00    -0.030 S 
ATOM      9  S   UNL     1       4.155  -0.258  -6.849  0.00  0.00    -0.093 S 
ATOM     10  C   UNL     1       2.464   0.416  -6.817  0.00  0.00    +0.152 C 
ATOM     11  C   UNL     1       1.762   0.017  -5.514  0.00  0.00    +0.110 C 
ATOM     12  C   UNL     1       1.365  -1.406  -5.752  0.00  0.00    +0.232 C 
ATOM     13  O   UNL     1       1.201  -2.268  -4.915  0.00  0.00    -0.274 OA
ATOM     14  N   UNL     1       1.224  -1.534  -7.093  0.00  0.00    -0.209 N 
ATOM     15  C   UNL     1       1.657  -0.462  -7.790  0.00  0.00    +0.240 C 
ATOM     16  O   UNL     1       1.457  -0.237  -8.965  0.00  0.00    -0.274 OA
ENDROOT
BRANCH   1  19
ATOM     17  C   UNL     1       1.816  -2.421  -1.768  0.00  0.00    +0.165 A 
ATOM     18  C   UNL     1       2.378  -1.647  -2.772  0.00  0.00    +0.054 A 
ATOM     19  C   UNL     1       1.787  -0.452  -3.139  0.00  0.00    -0.031 A 
ATOM     20  C   UNL     1       0.635  -0.024  -2.507  0.00  0.00    +0.054 A 
ATOM     21  C   UNL     1       0.067  -0.792  -1.502  0.00  0.00    +0.165 A 
ATOM     22  C   UNL     1       0.654  -1.997  -1.134  0.00  0.00    +0.201 A 
BRANCH  17  24
ATOM     23  C   UNL     1       3.589  -3.970  -2.103  0.00  0.00    +0.277 C 
ATOM     24  O   UNL     1       2.398  -3.597  -1.409  0.00  0.00    -0.491 OA
ENDBRANCH  17  24
BRANCH  22  25
ATOM     25  O   UNL     1       0.097  -2.756  -0.152  0.00  0.00    -0.501 OA
ATOM     26  H   UNL     1       0.421  -2.551   0.736  0.00  0.00    +0.292 HD
ENDBRANCH  22  25
BRANCH  21  27
ATOM     27  O   UNL     1      -1.066  -0.369  -0.880  0.00  0.00    -0.491 OA
ATOM     28  C   UNL     1      -1.618   0.876  -1.313  0.00  0.00    +0.277 C 
ENDBRANCH  21  27
ENDBRANCH   1  19
BRANCH  14  29
ATOM     29  C   UNL     1       0.671  -2.670  -7.699  0.00  0.00    +0.044 A 
ATOM     30  C   UNL     1       0.231  -3.731  -6.919  0.00  0.00    +0.026 A 
ATOM     31  C   UNL     1      -0.314  -4.849  -7.520  0.00  0.00    +0.034 A 
ATOM     32  C   UNL     1      -0.421  -4.912  -8.897  0.00  0.00    +0.126 A 
ATOM     33  C   UNL     1       0.016  -3.858  -9.677  0.00  0.00    +0.034 A 
ATOM     34  C   UNL     1       0.557  -2.735  -9.082  0.00  0.00    +0.026 A 
BRANCH  32  35
ATOM     35  N   UNL     1      -1.006  -6.112  -9.537  0.00  0.00    +0.056 N 
ATOM     36  O   UNL     1      -1.389  -7.035  -8.857  0.00  0.00    -0.126 OA
ATOM     37  O   UNL     1      -1.101  -6.169 -10.741  0.00  0.00    -0.126 OA
ENDBRANCH  32  35
ENDBRANCH  14  29
TORSDOF 6
