REMARK  Name = ZINC39609301
REMARK  10 active torsions:
REMARK  status: ('A' for Active; 'I' for Inactive)
REMARK    1  A    between atoms: C_1  and  C_2
REMARK    2  A    between atoms: C_5  and  C_9
REMARK    3  A    between atoms: C_7  and  C_8
REMARK    4  A    between atoms: C_9  and  C_10
REMARK    5  A    between atoms: C_10  and  N_11
REMARK    6  A    between atoms: C_12  and  C_14
REMARK    7  A    between atoms: C_25  and  C_27
REMARK    8  A    between atoms: C_30  and  O_37
REMARK    9  A    between atoms: C_31  and  C_33
REMARK   10  A    between atoms: O_37  and  C_38
REMARK                            x       y       z     vdW  Elec       q    Type
REMARK                         _______ _______ _______ _____ _____    ______ ____
ROOT
ATOM      1  C   UNL     1       2.473  -9.035  -0.043  0.00  0.00    +0.100 C 
ATOM      2  C   UNL     1       1.760  -9.246  -1.397  0.00  0.00    +0.121 C 
ATOM      3  N   UNL     1       2.859  -9.412  -2.377  0.00  0.00    -0.296 N 
ATOM      4  C   UNL     1       3.871 -10.226  -1.663  0.00  0.00    +0.115 C 
ATOM      5  C   UNL     1       3.857  -9.682  -0.220  0.00  0.00    -0.004 C 
ATOM      6  C   UNL     1       4.955  -8.638  -0.040  0.00  0.00    -0.010 C 
ATOM      7  C   UNL     1       6.322  -9.316  -0.165  0.00  0.00    -0.082 C 
ATOM      8  N   UNL     1       6.445 -10.366   0.855  0.00  0.00    +0.379 N 
ATOM      9  C   UNL     1       5.443 -11.412   0.619  0.00  0.00    -0.082 C 
ATOM     10  C   UNL     1       4.039 -10.823   0.776  0.00  0.00    -0.010 C 
ATOM     11  C   UNL     1       2.924  -8.931  -3.635  0.00  0.00    +0.247 C 
ATOM     12  O   UNL     1       2.066  -8.171  -4.040  0.00  0.00    -0.270 OA
ATOM     13  H   UNL     1       7.368 -10.769   0.811  0.00  0.00    -0.086 HD
ATOM     14  H   UNL     1       6.300  -9.963   1.769  0.00  0.00    -0.086 HD
ENDROOT
BRANCH  11  15
ATOM     15  C   UNL     1       4.036  -9.328  -4.520  0.00  0.00    +0.038 A 
ATOM     16  C   UNL     1       4.759 -10.494  -4.257  0.00  0.00    +0.016 A 
ATOM     17  C   UNL     1       5.796 -10.861  -5.085  0.00  0.00    +0.047 A 
ATOM     18  C   UNL     1       6.123 -10.074  -6.183  0.00  0.00    +0.132 A 
ATOM     19  C   UNL     1       5.406  -8.913  -6.449  0.00  0.00    +0.097 A 
ATOM     20  C   UNL     1       4.364  -8.542  -5.628  0.00  0.00    +0.029 A 
BRANCH  19  21
ATOM     21  C   UNL     1       5.765  -8.062  -7.640  0.00  0.00    +0.421 C 
ATOM     22  F   UNL     1       4.910  -6.957  -7.698  0.00  0.00    -0.166 F 
ATOM     23  F   UNL     1       7.088  -7.623  -7.517  0.00  0.00    -0.166 F 
ATOM     24  F   UNL     1       5.632  -8.818  -8.809  0.00  0.00    -0.166 F 
ENDBRANCH  19  21
BRANCH  18  25
ATOM     25  O   UNL     1       7.146 -10.438  -6.997  0.00  0.00    -0.495 OA
ATOM     26  C   UNL     1       7.841 -11.642  -6.666  0.00  0.00    +0.277 C 
ENDBRANCH  18  25
ENDBRANCH  11  15
BRANCH   1  28
ATOM     27  N   UNL     1       2.753  -7.141   1.523  0.00  0.00    -0.315 N 
ATOM     28  C   UNL     1       2.615  -7.564   0.251  0.00  0.00    +0.218 C 
ATOM     29  O   UNL     1       2.606  -6.760  -0.658  0.00  0.00    -0.275 OA
ATOM     30  H   UNL     1       2.761  -7.783   2.250  0.00  0.00    +0.149 HD
BRANCH  27  31
ATOM     31  C   UNL     1       2.892  -5.710   1.809  0.00  0.00    +0.109 C 
BRANCH  31  32
ATOM     32  C   UNL     1       3.031  -5.503   3.318  0.00  0.00    +0.054 C 
BRANCH  32  37
ATOM     33  C   UNL     1       3.577   0.138   4.448  0.00  0.00    +0.044 C 
ATOM     34  C   UNL     1       3.435  -1.333   4.153  0.00  0.00    -0.048 A 
ATOM     35  C   UNL     1       2.180  -1.912   4.114  0.00  0.00    +0.004 A 
ATOM     36  C   UNL     1       2.049  -3.261   3.843  0.00  0.00    +0.004 A 
ATOM     37  C   UNL     1       3.174  -4.032   3.612  0.00  0.00    -0.046 A 
ATOM     38  C   UNL     1       4.428  -3.453   3.650  0.00  0.00    +0.007 A 
ATOM     39  C   UNL     1       4.559  -2.103   3.916  0.00  0.00    -0.047 A 
ATOM     40  C   UNL     1       5.926  -1.470   3.953  0.00  0.00    +0.044 C 
ENDBRANCH  32  37
ENDBRANCH  31  32
ENDBRANCH  27  31
ENDBRANCH   1  28
TORSDOF 7
