REMARK  Name = ZINC20885309
REMARK  8 active torsions:
REMARK  status: ('A' for Active; 'I' for Inactive)
REMARK    1  A    between atoms: C_1  and  O_2
REMARK    2  A    between atoms: O_2  and  C_3
REMARK    3  A    between atoms: C_8  and  C_9
REMARK    4  A    between atoms: C_14  and  C_24
REMARK    5  A    between atoms: C_26  and  N_33
REMARK    6  A    between atoms: C_27  and  O_32
REMARK    7  A    between atoms: C_28  and  O_30
REMARK    8  A    between atoms: O_30  and  C_31
REMARK                            x       y       z     vdW  Elec       q    Type
REMARK                         _______ _______ _______ _____ _____    ______ ____
ROOT
ATOM      1  C   UNL     1       0.298  -2.738   0.242  0.00  0.00    +0.035 C 
ATOM      2  C   UNL     1       1.306  -3.693   0.880  0.00  0.00    +0.060 C 
ATOM      3  C   UNL     1       0.604  -4.590   1.885  0.00  0.00    +0.017 C 
ATOM      4  C   UNL     1      -0.672  -4.965   1.690  0.00  0.00    +0.036 C 
ATOM      5  C   UNL     1      -1.484  -5.852   2.603  0.00  0.00    +0.136 C 
ATOM      6  N   UNL     1      -0.716  -6.524   3.629  0.00  0.00    -0.331 N 
ATOM      7  C   UNL     1      -0.071  -5.802   4.632  0.00  0.00    +0.049 A 
ATOM      8  C   UNL     1      -0.481  -5.878   5.954  0.00  0.00    +0.025 A 
ATOM      9  C   UNL     1       0.114  -5.058   6.897  0.00  0.00    +0.002 A 
ATOM     10  C   UNL     1       1.109  -4.172   6.527  0.00  0.00    +0.002 A 
ATOM     11  C   UNL     1       1.536  -4.111   5.211  0.00  0.00    +0.025 A 
ATOM     12  C   UNL     1       0.955  -4.942   4.270  0.00  0.00    +0.052 A 
ATOM     13  N   UNL     1       1.367  -4.967   2.943  0.00  0.00    -0.316 N 
ATOM     14  C   UNL     1      -1.381  -4.512   0.553  0.00  0.00    +0.163 C 
ATOM     15  O   UNL     1      -2.526  -4.886   0.388  0.00  0.00    -0.292 OA
ATOM     16  C   UNL     1      -0.771  -3.587  -0.457  0.00  0.00    +0.088 C 
ATOM     17  H   UNL     1      -0.633  -7.621   3.624  0.00  0.00    +0.147 HD
ATOM     18  H   UNL     1       2.394  -5.324   2.780  0.00  0.00    +0.152 HD
ENDROOT
BRANCH   1  24
ATOM     19  C   UNL     1       0.988  -0.483  -0.611  0.00  0.00    +0.124 A 
ATOM     20  C   UNL     1       1.625   0.322  -1.544  0.00  0.00    +0.046 A 
ATOM     21  C   UNL     1       2.273  -0.252  -2.621  0.00  0.00    +0.004 A 
ATOM     22  C   UNL     1       2.278  -1.626  -2.775  0.00  0.00    +0.001 A 
ATOM     23  C   UNL     1       1.639  -2.430  -1.849  0.00  0.00    +0.007 A 
ATOM     24  C   UNL     1       0.994  -1.861  -0.767  0.00  0.00    -0.002 A 
BRANCH  19  26
ATOM     25  C   UNL     1       0.389   1.504   0.549  0.00  0.00    +0.277 C 
ATOM     26  O   UNL     1       0.354   0.078   0.452  0.00  0.00    -0.495 OA
ENDBRANCH  19  26
ENDBRANCH   1  24
BRANCH   5  27
ATOM     27  C   UNL     1      -2.538  -5.007   3.272  0.00  0.00    -0.017 A 
ATOM     28  C   UNL     1      -2.163  -4.000   4.142  0.00  0.00    +0.042 A 
ATOM     29  C   UNL     1      -3.126  -3.222   4.758  0.00  0.00    +0.171 A 
ATOM     30  C   UNL     1      -4.469  -3.451   4.504  0.00  0.00    +0.189 A 
ATOM     31  C   UNL     1      -4.845  -4.464   3.628  0.00  0.00    +0.164 A 
ATOM     32  C   UNL     1      -3.875  -5.237   3.010  0.00  0.00    +0.055 A 
BRANCH  29  33
ATOM     33  N   UNL     1      -2.722  -2.146   5.690  0.00  0.00    +0.060 N 
ATOM     34  O   UNL     1      -1.541  -1.945   5.914  0.00  0.00    -0.126 OA
ATOM     35  O   UNL     1      -3.570  -1.460   6.233  0.00  0.00    -0.126 OA
ENDBRANCH  29  33
BRANCH  31  36
ATOM     36  O   UNL     1      -6.162  -4.692   3.375  0.00  0.00    -0.491 OA
ATOM     37  C   UNL     1      -6.474  -5.749   2.465  0.00  0.00    +0.277 C 
ENDBRANCH  31  36
BRANCH  30  38
ATOM     38  O   UNL     1      -5.417  -2.687   5.110  0.00  0.00    -0.502 OA
ATOM     39  H   UNL     1      -6.482  -2.869   4.907  0.00  0.00    +0.292 HD
ENDBRANCH  30  38
ENDBRANCH   5  27
TORSDOF 6
