REMARK  Name = ZINC35675003
REMARK  9 active torsions:
REMARK  status: ('A' for Active; 'I' for Inactive)
REMARK    1  A    between atoms: C_1  and  C_2
REMARK    2  A    between atoms: C_3  and  C_29
REMARK    3  A    between atoms: C_4  and  C_16
REMARK    4  A    between atoms: C_7  and  C_12
REMARK    5  A    between atoms: C_20  and  O_22
REMARK    6  A    between atoms: O_22  and  C_23
REMARK    7  A    between atoms: C_29  and  O_31
REMARK    8  A    between atoms: O_31  and  C_32
REMARK    9  A    between atoms: C_32  and  C_33
REMARK                            x       y       z     vdW  Elec       q    Type
REMARK                         _______ _______ _______ _____ _____    ______ ____
ROOT
ATOM      1  C   UNL     1       0.169   1.516   0.874  0.00  0.00    +0.066 C 
ATOM      2  C   UNL     1       0.066   0.038   0.599  0.00  0.00    +0.053 C 
ATOM      3  C   UNL     1      -1.163  -0.545   0.498  0.00  0.00    +0.082 C 
ATOM      4  C   UNL     1      -1.221  -2.031   0.221  0.00  0.00    +0.150 C 
ATOM      5  N   UNL     1       0.079  -2.738   0.079  0.00  0.00    -0.267 N 
ATOM      6  C   UNL     1       0.288  -4.066  -0.171  0.00  0.00    +0.050 C 
ATOM      7  C   UNL     1       1.681  -4.514  -0.265  0.00  0.00    +0.072 C 
ATOM      8  S   UNL     1       2.553  -3.102  -0.006  0.00  0.00    -0.060 S 
ATOM      9  C   UNL     1       1.204  -1.965   0.216  0.00  0.00    +0.166 C 
ATOM     10  N   UNL     1       1.175  -0.681   0.451  0.00  0.00    -0.230 NA
ENDROOT
BRANCH   4  11
ATOM     11  C   UNL     1      -2.002  -2.237  -1.051  0.00  0.00    -0.019 A 
ATOM     12  C   UNL     1      -1.424  -1.942  -2.272  0.00  0.00    +0.006 A 
ATOM     13  C   UNL     1      -2.138  -2.130  -3.441  0.00  0.00    +0.004 A 
ATOM     14  C   UNL     1      -3.431  -2.613  -3.392  0.00  0.00    +0.046 A 
ATOM     15  C   UNL     1      -4.014  -2.910  -2.168  0.00  0.00    +0.129 A 
ATOM     16  C   UNL     1      -3.293  -2.725  -0.997  0.00  0.00    +0.052 A 
BRANCH  15  17
ATOM     17  O   UNL     1      -5.286  -3.385  -2.117  0.00  0.00    -0.456 OA
BRANCH  17  18
ATOM     18  C   UNL     1      -5.985  -3.462  -3.280  0.00  0.00    +0.128 A 
ATOM     19  C   UNL     1      -5.718  -4.480  -4.185  0.00  0.00    +0.046 A 
ATOM     20  C   UNL     1      -6.430  -4.557  -5.366  0.00  0.00    +0.004 A 
ATOM     21  C   UNL     1      -7.408  -3.620  -5.647  0.00  0.00    +0.000 A 
ATOM     22  C   UNL     1      -7.676  -2.605  -4.747  0.00  0.00    +0.004 A 
ATOM     23  C   UNL     1      -6.971  -2.528  -3.562  0.00  0.00    +0.046 A 
ENDBRANCH  17  18
ENDBRANCH  15  17
ENDBRANCH   4  11
BRANCH   6  24
ATOM     24  C   UNL     1      -0.762  -4.945  -0.327  0.00  0.00    +0.119 C 
ATOM     25  C   UNL     1      -0.514  -6.335  -0.433  0.00  0.00    +0.381 C 
ATOM     26  O   UNL     1       0.720  -6.808  -0.246  0.00  0.00    -0.241 OA
ATOM     27  O   UNL     1      -1.513  -7.172  -0.719  0.00  0.00    -0.241 OA
ENDBRANCH   6  24
BRANCH   3  28
ATOM     28  C   UNL     1      -2.345   0.215   0.649  0.00  0.00    +0.339 C 
ATOM     29  O   UNL     1      -2.276   1.409   0.872  0.00  0.00    -0.245 OA
BRANCH  28  30
ATOM     30  O   UNL     1      -3.550  -0.384   0.546  0.00  0.00    -0.457 OA
BRANCH  30  31
ATOM     31  C   UNL     1      -4.703   0.445   0.709  0.00  0.00    +0.259 C 
BRANCH  31  32
ATOM     32  C   UNL     1      -5.948  -0.391   0.562  0.00  0.00    +0.006 C 
ATOM     33  C   UNL     1      -6.935  -0.251   1.411  0.00  0.00    +0.007 C 
ENDBRANCH  31  32
ENDBRANCH  30  31
ENDBRANCH  28  30
ENDBRANCH   3  28
TORSDOF 8
