REMARK  Name = ZINC00663552
REMARK  6 active torsions:
REMARK  status: ('A' for Active; 'I' for Inactive)
REMARK    1  A    between atoms: C_15  and  C_23
REMARK    2  A    between atoms: C_16  and  N_22
REMARK    3  A    between atoms: C_17  and  C_18
REMARK    4  A    between atoms: C_17  and  C_20
REMARK    5  A    between atoms: N_27  and  C_28
REMARK    6  A    between atoms: C_28  and  C_29
REMARK                            x       y       z     vdW  Elec       q    Type
REMARK                         _______ _______ _______ _____ _____    ______ ____
ROOT
ATOM      1  C   UNL     1      -1.137   1.992   4.290  0.00  0.00    +0.000 A 
ATOM      2  C   UNL     1      -0.996   3.160   5.013  0.00  0.00    +0.002 A 
ATOM      3  C   UNL     1      -1.269   4.402   4.460  0.00  0.00    +0.024 A 
ATOM      4  C   UNL     1      -1.696   4.430   3.132  0.00  0.00    +0.041 A 
ATOM      5  C   UNL     1      -1.836   3.238   2.411  0.00  0.00    -0.008 A 
ATOM      6  C   UNL     1      -1.562   2.007   2.966  0.00  0.00    +0.006 A 
ATOM      7  C   UNL     1      -2.306   3.628   1.045  0.00  0.00    +0.117 C 
ATOM      8  C   UNL     1      -1.304   3.202  -0.023  0.00  0.00    +0.042 C 
ATOM      9  C   UNL     1       0.000   3.956   0.082  0.00  0.00    +0.010 C 
ATOM     10  C   UNL     1       1.078   3.135   0.788  0.00  0.00    +0.005 C 
ATOM     11  C   UNL     1       1.289   1.835  -0.000  0.00  0.00    +0.027 C 
ATOM     12  C   UNL     1      -0.013   1.076   0.008  0.00  0.00    -0.022 C 
ATOM     13  C   UNL     1      -1.169   1.709   0.017  0.00  0.00    -0.028 C 
ATOM     14  C   UNL     1      -2.425   0.922   0.138  0.00  0.00    +0.074 C 
ATOM     15  C   UNL     1      -3.578   1.548   0.485  0.00  0.00    +0.055 C 
ATOM     16  C   UNL     1      -3.673   3.023   0.743  0.00  0.00    +0.199 C 
ATOM     17  C   UNL     1      -2.403   5.138   1.098  0.00  0.00    +0.234 C 
ATOM     18  O   UNL     1      -2.748   5.870   0.196  0.00  0.00    -0.274 OA
ATOM     19  N   UNL     1      -2.033   5.514   2.340  0.00  0.00    -0.266 N 
ENDROOT
BRANCH  15  20
ATOM     20  N   UNL     1      -4.712   0.795   0.606  0.00  0.00    -0.358 N 
ATOM     21  H   UNL     1      -5.662   1.273   0.886  0.00  0.00    +0.142 HD
ATOM     22  H   UNL     1      -4.674  -0.289   0.423  0.00  0.00    +0.142 HD
ENDBRANCH  15  20
BRANCH  16  23
ATOM     23  C   UNL     1      -4.565   3.253   1.891  0.00  0.00    +0.092 C 
ATOM     24  N   UNL     1      -5.253   3.431   2.777  0.00  0.00    -0.194 NA
ENDBRANCH  16  23
BRANCH  16  25
ATOM     25  C   UNL     1      -4.240   3.683  -0.444  0.00  0.00    +0.092 C 
ATOM     26  N   UNL     1      -4.678   4.192  -1.360  0.00  0.00    -0.194 NA
ENDBRANCH  16  25
BRANCH  14  27
ATOM     27  C   UNL     1      -2.418  -0.487  -0.114  0.00  0.00    +0.101 C 
ATOM     28  N   UNL     1      -2.412  -1.605  -0.315  0.00  0.00    -0.191 NA
ENDBRANCH  14  27
BRANCH  19  29
ATOM     29  C   UNL     1      -1.994   6.905   2.797  0.00  0.00    +0.148 C 
BRANCH  29  30
ATOM     30  C   UNL     1      -3.330   7.278   3.387  0.00  0.00    -0.030 A 
ATOM     31  C   UNL     1      -4.315   7.818   2.581  0.00  0.00    +0.006 A 
ATOM     32  C   UNL     1      -5.542   8.155   3.121  0.00  0.00    +0.020 A 
ATOM     33  C   UNL     1      -5.781   7.962   4.470  0.00  0.00    +0.041 A 
ATOM     34  C   UNL     1      -4.793   7.426   5.277  0.00  0.00    +0.020 A 
ATOM     35  C   UNL     1      -3.568   7.085   4.735  0.00  0.00    +0.006 A 
ATOM     36 CL   UNL     1      -7.319   8.391   5.149  0.00  0.00    -0.084 Cl
ENDBRANCH  29  30
ENDBRANCH  19  29
TORSDOF 6
