REMARK  Name = ZINC25184663
REMARK  5 active torsions:
REMARK  status: ('A' for Active; 'I' for Inactive)
REMARK    1  A    between atoms: C_1  and  C_2
REMARK    2  A    between atoms: N_4  and  C_33
REMARK    3  A    between atoms: C_11  and  C_29
REMARK    4  A    between atoms: N_19  and  C_22
REMARK    5  A    between atoms: C_22  and  C_23
REMARK                            x       y       z     vdW  Elec       q    Type
REMARK                         _______ _______ _______ _____ _____    ______ ____
ROOT
ATOM      1  C   UNL     1       5.283   8.085  -2.865  0.00  0.00    +0.063 C 
ATOM      2  C   UNL     1       6.071   6.888  -2.400  0.00  0.00    +0.051 C 
ATOM      3  N   UNL     1       6.896   6.851  -1.425  0.00  0.00    -0.181 NA
ATOM      4  N   UNL     1       7.470   5.596  -1.241  0.00  0.00    -0.160 N 
ATOM      5  C   UNL     1       7.005   4.711  -2.151  0.00  0.00    +0.253 C 
ATOM      6  O   UNL     1       7.302   3.540  -2.264  0.00  0.00    -0.272 OA
ATOM      7  C   UNL     1       6.036   5.503  -2.997  0.00  0.00    +0.109 C 
ATOM      8  C   UNL     1       6.485   5.527  -4.452  0.00  0.00    +0.061 C 
ATOM      9  C   UNL     1       5.370   6.051  -5.324  0.00  0.00    -0.024 A 
ATOM     10  C   UNL     1       5.677   6.426  -6.622  0.00  0.00    +0.017 A 
ATOM     11  C   UNL     1       4.693   6.904  -7.465  0.00  0.00    +0.055 A 
ATOM     12  C   UNL     1       3.390   7.009  -7.012  0.00  0.00    +0.014 A 
ATOM     13  C   UNL     1       3.078   6.642  -5.722  0.00  0.00    +0.024 A 
ATOM     14  C   UNL     1       4.069   6.160  -4.863  0.00  0.00    +0.033 A 
ATOM     15  N   UNL     1       3.692   5.814  -3.570  0.00  0.00    -0.329 N 
ATOM     16  C   UNL     1       4.634   4.909  -2.908  0.00  0.00    +0.078 C 
ATOM     17  C   UNL     1       4.227   4.730  -1.445  0.00  0.00    -0.054 C 
ATOM     18  N   UNL     1       2.859   4.194  -1.388  0.00  0.00    +0.385 N 
ATOM     19  C   UNL     1       1.911   5.096  -2.057  0.00  0.00    -0.059 C 
ATOM     20  C   UNL     1       2.324   5.280  -3.520  0.00  0.00    +0.087 C 
ATOM     21  H   UNL     1       2.849   3.235  -1.927  0.00  0.00    -0.081 HD
ENDROOT
BRANCH   4  22
ATOM     22  C   UNL     1       8.404   5.290  -0.244  0.00  0.00    +0.060 A 
ATOM     23  C   UNL     1       8.914   4.003  -0.139  0.00  0.00    +0.025 A 
ATOM     24  C   UNL     1       9.839   3.706   0.842  0.00  0.00    +0.002 A 
ATOM     25  C   UNL     1      10.250   4.686   1.727  0.00  0.00    +0.000 A 
ATOM     26  C   UNL     1       9.740   5.968   1.628  0.00  0.00    +0.002 A 
ATOM     27  C   UNL     1       8.819   6.273   0.646  0.00  0.00    +0.025 A 
ENDBRANCH   4  22
BRANCH  11  28
ATOM     28  C   UNL     1       5.038   7.309  -8.874  0.00  0.00    +0.417 C 
ATOM     29  F   UNL     1       3.884   7.757  -9.526  0.00  0.00    -0.166 F 
ATOM     30  F   UNL     1       5.986   8.338  -8.845  0.00  0.00    -0.166 F 
ATOM     31  F   UNL     1       5.565   6.210  -9.561  0.00  0.00    -0.166 F 
ENDBRANCH  11  28
BRANCH  18  32
ATOM     32  C   UNL     1       2.451   3.937  -0.001  0.00  0.00    -0.043 C 
BRANCH  32  33
ATOM     33  C   UNL     1       1.156   3.165   0.008  0.00  0.00    -0.064 A 
ATOM     34  C   UNL     1       1.175   1.783   0.000  0.00  0.00    +0.002 A 
ATOM     35  C   UNL     1      -0.013   1.076   0.008  0.00  0.00    +0.000 A 
ATOM     36  C   UNL     1      -1.219   1.751   0.017  0.00  0.00    +0.000 A 
ATOM     37  C   UNL     1      -1.238   3.133   0.030  0.00  0.00    +0.000 A 
ATOM     38  C   UNL     1      -0.050   3.840   0.023  0.00  0.00    +0.002 A 
ENDBRANCH  32  33
ENDBRANCH  18  32
TORSDOF 4
