REMARK  Name = ZINC13498526
REMARK  10 active torsions:
REMARK  status: ('A' for Active; 'I' for Inactive)
REMARK    1  A    between atoms: C_1  and  C_2
REMARK    2  A    between atoms: C_7  and  C_14
REMARK    3  A    between atoms: C_14  and  N_72
REMARK    4  A    between atoms: C_15  and  N_72
REMARK    5  A    between atoms: C_20  and  C_22
REMARK    6  A    between atoms: C_20  and  C_33
REMARK    7  A    between atoms: C_20  and  N_72
REMARK    8  A    between atoms: N_26  and  C_27
REMARK    9  A    between atoms: C_33  and  C_34
REMARK   10  A    between atoms: C_33  and  C_35
REMARK                            x       y       z     vdW  Elec       q    Type
REMARK                         _______ _______ _______ _____ _____    ______ ____
ROOT
ATOM      1  N   UNL     1       0.494  -0.922  -0.399  0.00  0.00    +0.391 N 
ATOM      2  H   UNL     1      -0.204  -1.674  -0.368  0.00  0.00    -0.080 HD
ENDROOT
BRANCH   1   3
ATOM      3  C   UNL     1       1.613  -1.266   0.504  0.00  0.00    -0.067 C 
ATOM      4  C   UNL     1       2.456  -2.397  -0.120  0.00  0.00    -0.015 C 
ATOM      5  C   UNL     1       2.845  -3.289   1.086  0.00  0.00    -0.002 C 
ATOM      6  C   UNL     1       1.566  -3.262   1.960  0.00  0.00    -0.002 C 
ATOM      7  C   UNL     1       1.048  -1.815   1.826  0.00  0.00    -0.015 C 
ENDBRANCH   1   3
BRANCH   1   8
ATOM      8  C   UNL     1      -0.140   0.340   0.040  0.00  0.00    -0.036 C 
BRANCH   8  15
ATOM      9  C   UNL     1      -3.781  -0.783   7.048  0.00  0.00    +0.044 C 
ATOM     10  C   UNL     1      -2.914  -0.488   5.850  0.00  0.00    -0.048 A 
ATOM     11  C   UNL     1      -1.650   0.055   6.034  0.00  0.00    +0.004 A 
ATOM     12  C   UNL     1      -0.849   0.330   4.962  0.00  0.00    +0.010 A 
ATOM     13  C   UNL     1      -1.307   0.062   3.668  0.00  0.00    -0.001 A 
ATOM     14  C   UNL     1      -0.472   0.338   2.497  0.00  0.00    +0.017 A 
ATOM     15  C   UNL     1      -0.970   0.062   1.266  0.00  0.00    +0.001 A 
ATOM     16  C   UNL     1      -2.262  -0.490   1.130  0.00  0.00    +0.251 A 
ATOM     17  O   UNL     1      -2.689  -0.736   0.015  0.00  0.00    -0.268 OA
ATOM     18  N   UNL     1      -3.034  -0.752   2.200  0.00  0.00    -0.322 N 
ATOM     19  H   UNL     1      -3.917  -1.131   2.070  0.00  0.00    +0.169 HD
ATOM     20  C   UNL     1      -2.588  -0.489   3.477  0.00  0.00    +0.049 A 
ATOM     21  C   UNL     1      -3.386  -0.760   4.584  0.00  0.00    +0.029 A 
ENDBRANCH   8  15
ENDBRANCH   1   8
BRANCH   1  22
ATOM     22  C   UNL     1       0.989  -0.783  -1.785  0.00  0.00    +0.006 C 
BRANCH  22  23
ATOM     23  C   UNL     1      -0.162  -1.010  -2.731  0.00  0.00    +0.139 A 
ATOM     24  N   UNL     1      -1.350  -0.460  -2.665  0.00  0.00    -0.115 NA
ATOM     25  N   UNL     1      -2.050  -0.905  -3.651  0.00  0.00    -0.023 NA
ATOM     26  N   UNL     1      -1.340  -1.725  -4.344  0.00  0.00    -0.044 NA
ATOM     27  N   UNL     1      -0.168  -1.812  -3.812  0.00  0.00    -0.228 N 
BRANCH  27  28
ATOM     28  C   UNL     1       0.947  -2.633  -4.292  0.00  0.00    +0.111 C 
ATOM     29  C   UNL     1       1.321  -2.204  -5.712  0.00  0.00    +0.027 C 
ATOM     30  C   UNL     1       2.486  -3.061  -6.213  0.00  0.00    +0.002 C 
ATOM     31  C   UNL     1       2.070  -4.533  -6.218  0.00  0.00    +0.000 C 
ATOM     32  C   UNL     1       1.695  -4.962  -4.798  0.00  0.00    +0.002 C 
ATOM     33  C   UNL     1       0.531  -4.105  -4.297  0.00  0.00    +0.027 C 
ENDBRANCH  27  28
ENDBRANCH  22  23
BRANCH  22  34
ATOM     34  C   UNL     1       1.565   0.617  -2.009  0.00  0.00    -0.024 C 
ATOM     35  C   UNL     1       2.827   0.790  -1.162  0.00  0.00    +0.006 C 
ATOM     36  C   UNL     1       1.915   0.793  -3.488  0.00  0.00    +0.006 C 
ENDBRANCH  22  34
ENDBRANCH   1  22
TORSDOF 7
