REMARK  Name = ZINC08683143
REMARK  5 active torsions:
REMARK  status: ('A' for Active; 'I' for Inactive)
REMARK    1  A    between atoms: N_9  and  N_19
REMARK    2  A    between atoms: C_10  and  C_12
REMARK    3  A    between atoms: C_20  and  C_22
REMARK    4  A    between atoms: C_23  and  C_24
REMARK    5  A    between atoms: C_28  and  N_30
REMARK                            x       y       z     vdW  Elec       q    Type
REMARK                         _______ _______ _______ _____ _____    ______ ____
ROOT
ATOM      1  C   UNL     1      -0.026   1.326   0.429  0.00  0.00    +0.001 A 
ATOM      2  C   UNL     1       1.151   2.062   0.403  0.00  0.00    +0.002 A 
ATOM      3  C   UNL     1       2.361   1.449   0.242  0.00  0.00    +0.028 A 
ATOM      4  C   UNL     1       2.422   0.059   0.102  0.00  0.00    +0.079 A 
ATOM      5  C   UNL     1       1.225  -0.692   0.128  0.00  0.00    +0.066 A 
ATOM      6  C   UNL     1       0.002  -0.045   0.293  0.00  0.00    +0.015 A 
ATOM      7  C   UNL     1       1.317  -2.152  -0.021  0.00  0.00    +0.279 A 
ATOM      8  O   UNL     1       0.322  -2.852  -0.007  0.00  0.00    -0.265 OA
ATOM      9  N   UNL     1       2.551  -2.687  -0.175  0.00  0.00    -0.205 N 
ATOM     10  C   UNL     1       3.658  -1.883  -0.188  0.00  0.00    +0.165 A 
ATOM     11  N   UNL     1       3.597  -0.582  -0.058  0.00  0.00    -0.227 NA
ENDROOT
BRANCH  10  12
ATOM     12  C   UNL     1       4.983  -2.513  -0.359  0.00  0.00    +0.054 A 
ATOM     13  C   UNL     1       5.815  -2.122  -1.410  0.00  0.00    +0.014 A 
ATOM     14  C   UNL     1       7.051  -2.714  -1.563  0.00  0.00    +0.001 A 
ATOM     15  C   UNL     1       7.470  -3.693  -0.679  0.00  0.00    +0.003 A 
ATOM     16  C   UNL     1       6.653  -4.086   0.365  0.00  0.00    +0.039 A 
ATOM     17  C   UNL     1       5.413  -3.498   0.535  0.00  0.00    +0.134 A 
ATOM     18  F   UNL     1       4.617  -3.878   1.559  0.00  0.00    -0.205 F 
ENDBRANCH  10  12
BRANCH   9  19
ATOM     19  N   UNL     1       2.695  -4.073  -0.322  0.00  0.00    -0.215 N 
ATOM     20  C   UNL     1       2.411  -4.659  -1.502  0.00  0.00    +0.255 C 
ATOM     21  O   UNL     1       2.030  -3.984  -2.440  0.00  0.00    -0.269 OA
ATOM     22  H   UNL     1       2.999  -4.611   0.426  0.00  0.00    +0.176 HD
BRANCH  20  23
ATOM     23  C   UNL     1       2.562  -6.107  -1.655  0.00  0.00    +0.069 C 
ATOM     24  C   UNL     1       2.278  -6.693  -2.836  0.00  0.00    +0.013 C 
BRANCH  24  25
ATOM     25  C   UNL     1       2.430  -8.149  -2.990  0.00  0.00    -0.023 A 
ATOM     26  C   UNL     1       2.862  -8.929  -1.912  0.00  0.00    +0.008 A 
ATOM     27  C   UNL     1       3.002 -10.292  -2.064  0.00  0.00    +0.003 A 
ATOM     28  C   UNL     1       2.715 -10.889  -3.279  0.00  0.00    +0.033 A 
ATOM     29  C   UNL     1       2.287 -10.125  -4.350  0.00  0.00    +0.127 A 
ATOM     30  C   UNL     1       2.137  -8.761  -4.212  0.00  0.00    +0.040 A 
BRANCH  29  31
ATOM     31  N   UNL     1       1.983 -10.774  -5.646  0.00  0.00    +0.056 N 
ATOM     32  O   UNL     1       2.110 -11.970  -5.767  0.00  0.00    -0.126 OA
ATOM     33  O   UNL     1       1.609 -10.107  -6.582  0.00  0.00    -0.126 OA
ENDBRANCH  29  31
ENDBRANCH  24  25
ENDBRANCH  20  23
ENDBRANCH   9  19
TORSDOF 5
