REMARK  Name = ZINC39667994
REMARK  13 active torsions:
REMARK  status: ('A' for Active; 'I' for Inactive)
REMARK    1  A    between atoms: C_1  and  C_2
REMARK    2  A    between atoms: C_5  and  C_18
REMARK    3  A    between atoms: C_6  and  C_17
REMARK    4  A    between atoms: N_8  and  C_9
REMARK    5  A    between atoms: C_13  and  S_15
REMARK    6  A    between atoms: S_15  and  C_16
REMARK    7  A    between atoms: C_18  and  C_20
REMARK    8  A    between atoms: C_20  and  S_21
REMARK    9  A    between atoms: S_21  and  C_22
REMARK   10  A    between atoms: C_26  and  C_30
REMARK   11  A    between atoms: C_27  and  C_29
REMARK   12  A    between atoms: C_30  and  C_31
REMARK   13  A    between atoms: C_31  and  C_32
REMARK                            x       y       z     vdW  Elec       q    Type
REMARK                         _______ _______ _______ _____ _____    ______ ____
ROOT
ATOM      1  C   UNL     1      -2.857  -1.982   1.462  0.00  0.00    +0.171 C 
ATOM      2  O   UNL     1      -3.860  -1.790   0.807  0.00  0.00    -0.291 OA
ENDROOT
BRANCH   1   6
ATOM      3  C   UNL     1      -0.057   1.549   0.095  0.00  0.00    +0.032 C 
ATOM      4  C   UNL     1      -0.034   0.020   0.036  0.00  0.00    +0.094 C 
ATOM      5  C   UNL     1      -1.442  -0.515   0.051  0.00  0.00    +0.004 C 
ATOM      6  C   UNL     1      -1.615  -1.290   1.117  0.00  0.00    +0.014 C 
ATOM      7  C   UNL     1      -0.341  -1.348   1.917  0.00  0.00    +0.104 C 
ATOM      8  N   UNL     1       0.653  -0.515   1.219  0.00  0.00    -0.317 N 
ATOM      9  C   UNL     1      -0.585  -0.803   3.326  0.00  0.00    +0.033 C 
BRANCH   8  10
ATOM     10  C   UNL     1       1.975  -0.280   1.602  0.00  0.00    +0.032 A 
ATOM     11  C   UNL     1       2.481  -0.870   2.755  0.00  0.00    +0.023 A 
ATOM     12  C   UNL     1       3.789  -0.638   3.135  0.00  0.00    +0.003 A 
ATOM     13  C   UNL     1       4.599   0.180   2.371  0.00  0.00    +0.015 A 
ATOM     14  C   UNL     1       4.100   0.773   1.216  0.00  0.00    +0.009 A 
ATOM     15  C   UNL     1       2.787   0.537   0.829  0.00  0.00    +0.037 A 
BRANCH  14  16
ATOM     16  S   UNL     1       5.133   1.815   0.242  0.00  0.00    -0.129 S 
ATOM     17  C   UNL     1       6.718   1.811   1.125  0.00  0.00    +0.090 C 
ENDBRANCH  14  16
ENDBRANCH   8  10
ENDBRANCH   1   6
BRANCH   1  18
ATOM     18  C   UNL     1      -2.891  -2.933   2.630  0.00  0.00    +0.156 C 
BRANCH  18  19
ATOM     19  S   UNL     1      -4.507  -3.753   2.696  0.00  0.00    -0.078 S 
BRANCH  19  20
ATOM     20  C   UNL     1      -4.389  -4.817   4.095  0.00  0.00    +0.192 A 
ATOM     21  N   UNL     1      -3.265  -4.839   4.798  0.00  0.00    -0.183 NA
ATOM     22  C   UNL     1      -3.145  -5.629   5.857  0.00  0.00    +0.277 A 
ATOM     23  O   UNL     1      -1.994  -5.648   6.573  0.00  0.00    -0.265 OA
ATOM     24  C   UNL     1      -4.219  -6.440   6.223  0.00  0.00    +0.040 A 
ATOM     25  C   UNL     1      -5.373  -6.389   5.465  0.00  0.00    +0.049 A 
ATOM     26  N   UNL     1      -5.427  -5.573   4.423  0.00  0.00    -0.227 NA
ATOM     27  C   UNL     1      -6.558  -7.247   5.823  0.00  0.00    +0.066 C 
BRANCH  24  28
ATOM     28  C   UNL     1      -4.123  -7.352   7.419  0.00  0.00    +0.054 C 
BRANCH  28  29
ATOM     29  C   UNL     1      -4.598  -6.607   8.668  0.00  0.00    +0.130 C 
BRANCH  29  30
ATOM     30  C   UNL     1      -4.502  -7.519   9.864  0.00  0.00    +0.356 C 
ATOM     31  O   UNL     1      -4.091  -8.660   9.729  0.00  0.00    -0.246 OA
ATOM     32  O   UNL     1      -4.834  -7.117  10.966  0.00  0.00    -0.246 OA
ENDBRANCH  29  30
ENDBRANCH  28  29
ENDBRANCH  24  28
ENDBRANCH  19  20
ENDBRANCH  18  19
ENDBRANCH   1  18
TORSDOF 9
