REMARK  Name = ZINC01841440
REMARK  9 active torsions:
REMARK  status: ('A' for Active; 'I' for Inactive)
REMARK    1  A    between atoms: C_1  and  O_2
REMARK    2  A    between atoms: O_2  and  C_3
REMARK    3  A    between atoms: C_10  and  C_28
REMARK    4  A    between atoms: C_16  and  C_18
REMARK    5  A    between atoms: C_31  and  O_39
REMARK    6  A    between atoms: C_32  and  O_37
REMARK    7  A    between atoms: C_33  and  C_34
REMARK    8  A    between atoms: O_37  and  C_38
REMARK    9  A    between atoms: O_39  and  C_40
REMARK                            x       y       z     vdW  Elec       q    Type
REMARK                         _______ _______ _______ _____ _____    ______ ____
ROOT
ATOM      1  C   UNL     1      -0.986  -0.582   0.040  0.00  0.00    +0.162 A 
ATOM      2  C   UNL     1      -2.102   0.235   0.084  0.00  0.00    +0.049 A 
ATOM      3  C   UNL     1      -3.368  -0.319   0.129  0.00  0.00    +0.004 A 
ATOM      4  C   UNL     1      -3.518  -1.693   0.138  0.00  0.00    +0.009 A 
ATOM      5  C   UNL     1      -2.411  -2.513   0.098  0.00  0.00    +0.021 A 
ATOM      6  C   UNL     1      -1.130  -1.968   0.034  0.00  0.00    +0.170 A 
ATOM      7  O   UNL     1      -0.018  -2.747  -0.049  0.00  0.00    -0.464 OA
ATOM      8  C   UNL     1      -0.153  -4.178   0.013  0.00  0.00    +0.295 C 
ATOM      9  N   UNL     1      -1.375  -4.516  -0.682  0.00  0.00    -0.175 NA
ATOM     10  C   UNL     1      -2.532  -4.000   0.125  0.00  0.00    +0.138 C 
ATOM     11  C   UNL     1      -3.671  -4.607  -0.649  0.00  0.00    +0.023 C 
ATOM     12  C   UNL     1      -3.131  -5.705  -1.228  0.00  0.00    +0.047 C 
ATOM     13  N   UNL     1      -1.766  -5.793  -0.900  0.00  0.00    -0.273 N 
ATOM     14  H   UNL     1      -1.226  -6.597  -0.833  0.00  0.00    +0.167 HD
ENDROOT
BRANCH  12  15
ATOM     15  C   UNL     1      -3.860  -6.661  -2.094  0.00  0.00    +0.000 A 
ATOM     16  C   UNL     1      -5.211  -6.461  -2.373  0.00  0.00    +0.013 A 
ATOM     17  C   UNL     1      -5.888  -7.353  -3.179  0.00  0.00    +0.050 A 
ATOM     18  C   UNL     1      -5.228  -8.451  -3.715  0.00  0.00    +0.162 A 
ATOM     19  C   UNL     1      -3.879  -8.654  -3.441  0.00  0.00    +0.163 A 
ATOM     20  C   UNL     1      -3.195  -7.760  -2.636  0.00  0.00    +0.059 A 
ATOM     21  O   UNL     1      -3.215  -9.721  -3.965  0.00  0.00    -0.485 OA
ATOM     22  C   UNL     1      -4.018 -10.795  -4.467  0.00  0.00    +0.270 C 
ATOM     23  C   UNL     1      -5.138 -10.196  -5.327  0.00  0.00    +0.270 C 
ATOM     24  O   UNL     1      -5.916  -9.320  -4.504  0.00  0.00    -0.485 OA
ENDBRANCH  12  15
BRANCH   8  25
ATOM     25  C   UNL     1      -0.237  -4.625   1.450  0.00  0.00    +0.027 A 
ATOM     26  C   UNL     1      -0.680  -3.751   2.418  0.00  0.00    +0.013 A 
ATOM     27  C   UNL     1      -0.761  -4.154   3.742  0.00  0.00    +0.050 A 
ATOM     28  C   UNL     1      -0.396  -5.439   4.106  0.00  0.00    +0.162 A 
ATOM     29  C   UNL     1       0.053  -6.334   3.140  0.00  0.00    +0.176 A 
ATOM     30  C   UNL     1       0.129  -5.929   1.801  0.00  0.00    +0.116 A 
BRANCH  30  31
ATOM     31  C   UNL     1       0.597  -6.868   0.769  0.00  0.00    +0.391 C 
ATOM     32  O   UNL     1       0.764  -6.482  -0.380  0.00  0.00    -0.240 OA
ATOM     33  O   UNL     1       0.820  -8.036   1.060  0.00  0.00    -0.240 OA
ENDBRANCH  30  31
BRANCH  29  34
ATOM     34  O   UNL     1       0.412  -7.595   3.493  0.00  0.00    -0.491 OA
ATOM     35  C   UNL     1      -0.612  -8.591   3.470  0.00  0.00    +0.277 C 
ENDBRANCH  29  34
BRANCH  28  36
ATOM     36  O   UNL     1      -0.478  -5.825   5.407  0.00  0.00    -0.491 OA
ATOM     37  C   UNL     1      -0.947  -4.854   6.345  0.00  0.00    +0.277 C 
ENDBRANCH  28  36
ENDBRANCH   8  25
BRANCH   1  39
ATOM     38  C   UNL     1       0.334   1.397   0.005  0.00  0.00    +0.277 C 
ATOM     39  O   UNL     1       0.257  -0.030  -0.004  0.00  0.00    -0.491 OA
ENDBRANCH   1  39
TORSDOF 6
