REMARK  Name = ZINC05410306
REMARK  4 active torsions:
REMARK  status: ('A' for Active; 'I' for Inactive)
REMARK    1  A    between atoms: C_1  and  C_2
REMARK    2  A    between atoms: C_2  and  C_3
REMARK    3  A    between atoms: N_8  and  N_9
REMARK    4  A    between atoms: C_10  and  C_11
REMARK                            x       y       z     vdW  Elec       q    Type
REMARK                         _______ _______ _______ _____ _____    ______ ____
ROOT
ATOM      1  N   UNL     1      -1.625  -0.593  -2.386  0.00  0.00    -0.296 N 
ATOM      2  C   UNL     1      -1.247  -1.675  -3.083  0.00  0.00    +0.113 C 
ATOM      3  H   UNL     1      -1.660   0.275  -2.818  0.00  0.00    +0.187 HD
ENDROOT
BRANCH   2   4
ATOM      4  C   UNL     1      -0.983  -1.567  -4.451  0.00  0.00    +0.041 A 
ATOM      5  C   UNL     1      -0.475  -2.668  -5.177  0.00  0.00    +0.028 A 
ATOM      6  C   UNL     1      -0.224  -2.544  -6.507  0.00  0.00    +0.020 A 
ATOM      7  C   UNL     1      -0.456  -1.348  -7.183  0.00  0.00    +0.034 A 
ATOM      8  C   UNL     1      -0.944  -0.250  -6.542  0.00  0.00    +0.066 A 
ATOM      9  C   UNL     1      -1.232  -0.310  -5.167  0.00  0.00    +0.201 A 
ATOM     10  O   UNL     1      -1.676   0.666  -4.578  0.00  0.00    -0.286 OA
ATOM     11 BR   UNL     1      -1.243   1.351  -7.502  0.00  0.00    -0.046 Br
ATOM     12 BR   UNL     1       0.456  -4.028  -7.462  0.00  0.00    -0.050 Br
ENDBRANCH   2   4
BRANCH   1  18
ATOM     13  C   UNL     1      -1.137  -0.608   0.044  0.00  0.00    +0.153 A 
ATOM     14  N   UNL     1      -1.861  -0.784   1.114  0.00  0.00    -0.132 NA
ATOM     15  N   UNL     1      -3.085  -1.000   0.787  0.00  0.00    -0.120 NA
ATOM     16  C   UNL     1      -3.209  -0.973  -0.520  0.00  0.00    +0.221 A 
ATOM     17  S   UNL     1      -4.695  -1.215  -1.436  0.00  0.00    -0.008 SA
ATOM     18  N   UNL     1      -1.971  -0.717  -1.034  0.00  0.00    -0.214 N 
BRANCH  13  20
ATOM     19  C   UNL     1       0.581   1.180   0.052  0.00  0.00    +0.012 C 
ATOM     20  C   UNL     1       0.344  -0.331   0.004  0.00  0.00    +0.075 C 
ENDBRANCH  13  20
ENDBRANCH   1  18
TORSDOF 3
