REMARK  Name = ZINC35173016
REMARK  14 active torsions:
REMARK  status: ('A' for Active; 'I' for Inactive)
REMARK    1  A    between atoms: C_1  and  N_2
REMARK    2  A    between atoms: N_2  and  C_3
REMARK    3  A    between atoms: N_2  and  C_4
REMARK    4  A    between atoms: C_4  and  C_5
REMARK    5  A    between atoms: C_5  and  N_6
REMARK    6  A    between atoms: N_6  and  C_7
REMARK    7  A    between atoms: C_7  and  C_8
REMARK    8  A    between atoms: C_14  and  C_16
REMARK    9  A    between atoms: C_16  and  C_17
REMARK   10  A    between atoms: C_17  and  C_18
REMARK   11  A    between atoms: C_18  and  S_19
REMARK   12  A    between atoms: S_19  and  C_20
REMARK   13  A    between atoms: C_23  and  C_31
REMARK   14  A    between atoms: N_24  and  C_25
REMARK                            x       y       z     vdW  Elec       q    Type
REMARK                         _______ _______ _______ _____ _____    ______ ____
ROOT
ATOM      1  C   UNL     1      -2.676  -3.027   4.827  0.00  0.00    +0.078 C 
ENDROOT
BRANCH   1   2
ATOM      2  C   UNL     1      -3.447  -3.177   3.514  0.00  0.00    +0.020 C 
BRANCH   2   3
ATOM      3  C   UNL     1      -2.560  -2.731   2.349  0.00  0.00    +0.097 C 
BRANCH   3   5
ATOM      4  N   UNL     1      -2.733  -2.544  -0.111  0.00  0.00    -0.299 N 
ATOM      5  C   UNL     1      -3.319  -2.879   1.055  0.00  0.00    +0.216 C 
ATOM      6  O   UNL     1      -4.457  -3.298   1.064  0.00  0.00    -0.276 OA
BRANCH   4   7
ATOM      7  C   UNL     1      -1.358  -2.037  -0.122  0.00  0.00    +0.089 C 
BRANCH   7   8
ATOM      8  C   UNL     1      -1.376  -0.512   0.012  0.00  0.00    -0.060 C 
BRANCH   8  10
ATOM      9  C   UNL     1      -0.018   1.465   0.010  0.00  0.00    -0.097 C 
ATOM     10  N   UNL     1       0.002  -0.004   0.002  0.00  0.00    +0.377 N 
ATOM     11  C   UNL     1       0.713  -0.491   1.192  0.00  0.00    -0.097 C 
ATOM     12  H   UNL     1       0.474  -0.330  -0.828  0.00  0.00    -0.083 HD
ENDBRANCH   8  10
ENDBRANCH   7   8
ENDBRANCH   4   7
BRANCH   4  13
ATOM     13  C   UNL     1      -3.470  -2.687  -1.369  0.00  0.00    +0.142 C 
BRANCH  13  14
ATOM     14  C   UNL     1      -3.235  -4.063  -1.936  0.00  0.00    -0.030 A 
ATOM     15  C   UNL     1      -2.174  -4.284  -2.795  0.00  0.00    +0.005 A 
ATOM     16  C   UNL     1      -1.958  -5.547  -3.315  0.00  0.00    +0.000 A 
ATOM     17  C   UNL     1      -2.802  -6.588  -2.975  0.00  0.00    +0.000 A 
ATOM     18  C   UNL     1      -3.862  -6.367  -2.116  0.00  0.00    +0.000 A 
ATOM     19  C   UNL     1      -4.075  -5.105  -1.593  0.00  0.00    +0.005 A 
ENDBRANCH  13  14
ENDBRANCH   4  13
ENDBRANCH   3   5
ENDBRANCH   2   3
ENDBRANCH   1   2
BRANCH   1  20
ATOM     20  S   UNL     1      -3.728  -3.556   6.208  0.00  0.00    -0.086 S 
BRANCH  20  21
ATOM     21  C   UNL     1      -2.712  -3.327   7.629  0.00  0.00    +0.196 A 
ATOM     22  N   UNL     1      -1.480  -2.868   7.642  0.00  0.00    -0.122 NA
ATOM     23  N   UNL     1      -1.034  -2.829   8.846  0.00  0.00    -0.128 NA
ATOM     24  C   UNL     1      -1.953  -3.260   9.679  0.00  0.00    +0.169 A 
ATOM     25  N   UNL     1      -3.059  -3.587   8.926  0.00  0.00    -0.270 N 
BRANCH  25  26
ATOM     26  C   UNL     1      -4.284  -4.086   9.392  0.00  0.00    +0.051 A 
ATOM     27  C   UNL     1      -5.094  -3.298  10.198  0.00  0.00    +0.026 A 
ATOM     28  C   UNL     1      -6.301  -3.792  10.655  0.00  0.00    +0.002 A 
ATOM     29  C   UNL     1      -6.701  -5.070  10.310  0.00  0.00    +0.000 A 
ATOM     30  C   UNL     1      -5.896  -5.857   9.508  0.00  0.00    +0.002 A 
ATOM     31  C   UNL     1      -4.692  -5.366   9.043  0.00  0.00    +0.026 A 
ENDBRANCH  25  26
BRANCH  24  32
ATOM     32  C   UNL     1      -1.825  -3.369  11.148  0.00  0.00    +0.020 A 
ATOM     33  C   UNL     1      -2.742  -4.130  11.876  0.00  0.00    +0.011 A 
ATOM     34  C   UNL     1      -2.617  -4.228  13.247  0.00  0.00    +0.001 A 
ATOM     35  C   UNL     1      -1.587  -3.573  13.899  0.00  0.00    +0.000 A 
ATOM     36  C   UNL     1      -0.676  -2.817  13.183  0.00  0.00    +0.001 A 
ATOM     37  C   UNL     1      -0.785  -2.716  11.812  0.00  0.00    +0.011 A 
ENDBRANCH  24  32
ENDBRANCH  20  21
ENDBRANCH   1  20
TORSDOF 12
