REMARK  Name = ZINC59852265
REMARK  5 active torsions:
REMARK  status: ('A' for Active; 'I' for Inactive)
REMARK    1  A    between atoms: C_6  and  C_7
REMARK    2  A    between atoms: C_7  and  C_9
REMARK    3  A    between atoms: C_7  and  N_12
REMARK    4  A    between atoms: C_13  and  C_15
REMARK    5  A    between atoms: C_19  and  N_21
REMARK                            x       y       z     vdW  Elec       q    Type
REMARK                         _______ _______ _______ _____ _____    ______ ____
ROOT
ATOM      1  C   UNL     1      -1.293  -0.774   0.009  0.00  0.00    +0.107 C 
ENDROOT
BRANCH   1   7
ATOM      2  C   UNL     1      -0.017   1.378   0.010  0.00  0.00    +0.009 A 
ATOM      3  C   UNL     1       1.170   2.088   0.002  0.00  0.00    +0.050 A 
ATOM      4  C   UNL     1       2.382   1.415  -0.013  0.00  0.00    +0.162 A 
ATOM      5  C   UNL     1       2.401   0.025  -0.018  0.00  0.00    +0.162 A 
ATOM      6  C   UNL     1       1.207  -0.681  -0.011  0.00  0.00    +0.055 A 
ATOM      7  C   UNL     1       0.002  -0.004   0.002  0.00  0.00    -0.023 A 
ATOM      8  O   UNL     1       3.579  -0.656  -0.024  0.00  0.00    -0.485 OA
ATOM      9  C   UNL     1       4.746   0.081  -0.406  0.00  0.00    +0.270 C 
ATOM     10  C   UNL     1       4.733   1.422   0.340  0.00  0.00    +0.270 C 
ATOM     11  O   UNL     1       3.542   2.127  -0.024  0.00  0.00    -0.485 OA
ENDBRANCH   1   7
BRANCH   1  12
ATOM     12  N   UNL     1      -2.261  -0.109  -0.868  0.00  0.00    -0.304 N 
ATOM     13  C   UNL     1      -3.265  -0.817  -1.423  0.00  0.00    +0.245 C 
ATOM     14  O   UNL     1      -3.367  -2.007  -1.196  0.00  0.00    -0.270 OA
ATOM     15  H   UNL     1      -2.179   0.840  -1.048  0.00  0.00    +0.150 HD
BRANCH  13  16
ATOM     16  C   UNL     1      -4.241  -0.146  -2.307  0.00  0.00    +0.039 A 
ATOM     17  C   UNL     1      -4.123   1.220  -2.573  0.00  0.00    +0.014 A 
ATOM     18  C   UNL     1      -5.036   1.840  -3.399  0.00  0.00    +0.018 A 
ATOM     19  C   UNL     1      -6.070   1.111  -3.963  0.00  0.00    +0.048 A 
ATOM     20  C   UNL     1      -6.193  -0.243  -3.703  0.00  0.00    +0.141 A 
ATOM     21  C   UNL     1      -5.282  -0.876  -2.883  0.00  0.00    +0.047 A 
ATOM     22 BR   UNL     1      -7.319   1.969  -5.095  0.00  0.00    -0.048 Br
BRANCH  20  23
ATOM     23  N   UNL     1      -7.301  -1.015  -4.309  0.00  0.00    +0.058 N 
ATOM     24  O   UNL     1      -7.410  -2.197  -4.082  0.00  0.00    -0.126 OA
ATOM     25  O   UNL     1      -8.098  -0.462  -5.031  0.00  0.00    -0.126 OA
ENDBRANCH  20  23
ENDBRANCH  13  16
ENDBRANCH   1  12
BRANCH   1  26
ATOM     26  C   UNL     1      -1.848  -0.827   1.434  0.00  0.00    +0.014 C 
ATOM     27  C   UNL     1      -1.854  -2.184   2.139  0.00  0.00    +0.006 C 
ATOM     28  C   UNL     1      -3.167  -1.570   1.651  0.00  0.00    +0.006 C 
ENDBRANCH   1  26
TORSDOF 5
