REMARK  Name = ZINC06601879
REMARK  9 active torsions:
REMARK  status: ('A' for Active; 'I' for Inactive)
REMARK    1  A    between atoms: C_1  and  C_2
REMARK    2  A    between atoms: C_2  and  O_3
REMARK    3  A    between atoms: O_3  and  C_4
REMARK    4  A    between atoms: C_7  and  C_13
REMARK    5  A    between atoms: C_9  and  O_10
REMARK    6  A    between atoms: O_10  and  C_11
REMARK    7  A    between atoms: C_11  and  C_12
REMARK    8  A    between atoms: C_16  and  C_25
REMARK    9  A    between atoms: C_21  and  C_24
REMARK                            x       y       z     vdW  Elec       q    Type
REMARK                         _______ _______ _______ _____ _____    ______ ____
ROOT
ATOM      1  C   UNL     1      -3.132   2.653   5.502  0.00  0.00    +0.100 C 
ATOM      2  N   UNL     1      -3.153   1.369   5.363  0.00  0.00    -0.172 NA
ATOM      3  N   UNL     1      -3.618   0.543   6.396  0.00  0.00    -0.263 N 
ATOM      4  C   UNL     1      -2.958   0.601   7.612  0.00  0.00    +0.124 C 
ATOM      5  N   UNL     1      -2.896   1.695   8.302  0.00  0.00    -0.299 N 
ATOM      6  C   UNL     1      -3.549   2.855   7.993  0.00  0.00    +0.042 A 
ATOM      7  C   UNL     1      -3.674   3.348   6.693  0.00  0.00    +0.024 A 
ATOM      8  C   UNL     1      -4.356   4.550   6.479  0.00  0.00    +0.015 A 
ATOM      9  C   UNL     1      -4.900   5.250   7.540  0.00  0.00    -0.050 A 
ATOM     10  C   UNL     1      -4.777   4.761   8.826  0.00  0.00    +0.005 A 
ATOM     11  C   UNL     1      -4.108   3.574   9.055  0.00  0.00    +0.024 A 
ATOM     12  C   UNL     1      -5.627   6.546   7.294  0.00  0.00    +0.044 C 
ATOM     13  H   UNL     1      -4.475  -0.134   6.267  0.00  0.00    +0.190 HD
ATOM     14  H   UNL     1      -2.282   1.736   9.214  0.00  0.00    +0.154 HD
ENDROOT
BRANCH   1  18
ATOM     15  C   UNL     1      -1.399   4.998   2.406  0.00  0.00    +0.162 A 
ATOM     16  C   UNL     1      -1.480   5.503   3.696  0.00  0.00    +0.050 A 
ATOM     17  C   UNL     1      -2.039   4.744   4.703  0.00  0.00    +0.014 A 
ATOM     18  C   UNL     1      -2.532   3.468   4.424  0.00  0.00    +0.006 A 
ATOM     19  C   UNL     1      -2.456   2.963   3.125  0.00  0.00    +0.059 A 
ATOM     20  C   UNL     1      -1.894   3.728   2.120  0.00  0.00    +0.163 A 
BRANCH  15  21
ATOM     21  O   UNL     1      -0.841   5.748   1.419  0.00  0.00    -0.489 OA
BRANCH  21  23
ATOM     22  C   UNL     1       0.234   7.729   0.548  0.00  0.00    +0.048 C 
ATOM     23  C   UNL     1      -0.354   7.041   1.782  0.00  0.00    +0.226 C 
ENDBRANCH  21  23
ENDBRANCH  15  21
BRANCH  20  24
ATOM     24  O   UNL     1      -1.819   3.239   0.853  0.00  0.00    -0.489 OA
BRANCH  24  25
ATOM     25  C   UNL     1      -2.340   1.927   0.633  0.00  0.00    +0.226 C 
ATOM     26  C   UNL     1      -2.169   1.551  -0.840  0.00  0.00    +0.048 C 
ENDBRANCH  24  25
ENDBRANCH  20  24
ENDBRANCH   1  18
BRANCH   4  27
ATOM     27  C   UNL     1      -2.307  -0.619   8.137  0.00  0.00    +0.017 A 
ATOM     28  C   UNL     1      -1.625  -0.602   9.359  0.00  0.00    +0.031 A 
ATOM     29  C   UNL     1      -1.037  -1.766   9.813  0.00  0.00    +0.111 A 
ATOM     30  N   UNL     1      -1.103  -2.878   9.108  0.00  0.00    -0.263 NA
ATOM     31  C   UNL     1      -1.730  -2.937   7.949  0.00  0.00    +0.111 A 
ATOM     32  C   UNL     1      -2.351  -1.822   7.422  0.00  0.00    +0.031 A 
ENDBRANCH   4  27
TORSDOF 6
