REMARK  Name = ZINC10065975
REMARK  15 active torsions:
REMARK  status: ('A' for Active; 'I' for Inactive)
REMARK    1  A    between atoms: C_1  and  C_2
REMARK    2  A    between atoms: C_2  and  O_3
REMARK    3  A    between atoms: O_3  and  C_4
REMARK    4  A    between atoms: C_6  and  C_16
REMARK    5  A    between atoms: C_8  and  O_13
REMARK    6  A    between atoms: C_9  and  O_10
REMARK    7  A    between atoms: O_10  and  C_11
REMARK    8  A    between atoms: C_11  and  C_12
REMARK    9  A    between atoms: O_13  and  C_14
REMARK   10  A    between atoms: C_14  and  C_15
REMARK   11  A    between atoms: N_18  and  C_19
REMARK   12  A    between atoms: C_19  and  C_20
REMARK   13  A    between atoms: C_20  and  N_66
REMARK   14  A    between atoms: C_21  and  N_66
REMARK   15  A    between atoms: C_22  and  N_66
REMARK                            x       y       z     vdW  Elec       q    Type
REMARK                         _______ _______ _______ _____ _____    ______ ____
ROOT
ATOM      1  C   UNL     1      -1.239   7.566   1.608  0.00  0.00    +0.252 C 
ATOM      2  O   UNL     1      -2.138   8.188   1.075  0.00  0.00    -0.270 OA
ATOM      3  N   UNL     1      -0.404   8.189   2.463  0.00  0.00    -0.248 N 
ATOM      4  C   UNL     1      -0.633   9.508   2.817  0.00  0.00    +0.168 A 
ATOM      5  N   UNL     1       0.057  10.274   3.630  0.00  0.00    -0.224 NA
ATOM      6  C   UNL     1      -0.284  11.558   3.883  0.00  0.00    +0.084 A 
ATOM      7  C   UNL     1       0.373  12.482   4.729  0.00  0.00    +0.078 A 
ATOM      8  C   UNL     1      -0.107  13.762   4.886  0.00  0.00    +0.168 A 
ATOM      9  C   UNL     1      -1.257  14.184   4.214  0.00  0.00    +0.167 A 
ATOM     10  C   UNL     1      -1.921  13.302   3.380  0.00  0.00    +0.066 A 
ATOM     11  C   UNL     1      -1.442  12.024   3.223  0.00  0.00    +0.044 A 
ATOM     12  S   UNL     1      -1.947  10.599   2.290  0.00  0.00    -0.052 S 
ATOM     13  O   UNL     1      -1.510  15.482   4.547  0.00  0.00    -0.453 OA
ATOM     14  C   UNL     1      -0.743  15.728   5.741  0.00  0.00    +0.466 C 
ATOM     15  O   UNL     1       0.357  14.806   5.638  0.00  0.00    -0.453 OA
ENDROOT
BRANCH   1  18
ATOM     16  C   UNL     1      -0.650   3.887   2.086  0.00  0.00    +0.166 A 
ATOM     17  C   UNL     1      -0.810   5.233   2.359  0.00  0.00    +0.062 A 
ATOM     18  C   UNL     1      -1.062   6.130   1.319  0.00  0.00    +0.044 A 
ATOM     19  C   UNL     1      -1.147   5.666   0.004  0.00  0.00    +0.062 A 
ATOM     20  C   UNL     1      -0.980   4.320  -0.265  0.00  0.00    +0.166 A 
ATOM     21  C   UNL     1      -0.730   3.428   0.774  0.00  0.00    +0.204 A 
BRANCH  16  22
ATOM     22  O   UNL     1      -0.411   3.012   3.099  0.00  0.00    -0.488 OA
BRANCH  22  24
ATOM     23  C   UNL     1      -0.083   2.427   5.421  0.00  0.00    +0.048 C 
ATOM     24  C   UNL     1      -0.451   3.533   4.429  0.00  0.00    +0.226 C 
ENDBRANCH  22  24
ENDBRANCH  16  22
BRANCH  21  25
ATOM     25  O   UNL     1      -0.567   2.105   0.508  0.00  0.00    -0.485 OA
BRANCH  25  26
ATOM     26  C   UNL     1       0.762   1.657   0.236  0.00  0.00    +0.226 C 
ATOM     27  C   UNL     1       0.746   0.151  -0.039  0.00  0.00    +0.048 C 
ENDBRANCH  25  26
ENDBRANCH  21  25
BRANCH  20  28
ATOM     28  O   UNL     1      -1.062   3.867  -1.544  0.00  0.00    -0.488 OA
BRANCH  28  29
ATOM     29  C   UNL     1      -1.321   4.838  -2.561  0.00  0.00    +0.226 C 
ATOM     30  C   UNL     1      -1.377   4.146  -3.924  0.00  0.00    +0.048 C 
ENDBRANCH  28  29
ENDBRANCH  20  28
ENDBRANCH   1  18
BRANCH   3  31
ATOM     31  C   UNL     1       0.746   7.471   3.018  0.00  0.00    +0.097 C 
BRANCH  31  32
ATOM     32  C   UNL     1       1.906   7.517   2.021  0.00  0.00    -0.060 C 
BRANCH  32  35
ATOM     33  C   UNL     1       2.830   5.321   2.448  0.00  0.00    -0.097 C 
ATOM     34  C   UNL     1       4.299   7.167   1.904  0.00  0.00    -0.097 C 
ATOM     35  N   UNL     1       3.050   6.775   2.591  0.00  0.00    +0.377 N 
ATOM     36  H   UNL     1       3.132   7.004   3.588  0.00  0.00    -0.083 HD
ENDBRANCH  32  35
ENDBRANCH  31  32
ENDBRANCH   3  31
TORSDOF 10
