REMARK  Name = ZINC04016702
REMARK  12 active torsions:
REMARK  status: ('A' for Active; 'I' for Inactive)
REMARK    1  A    between atoms: C_1  and  C_2
REMARK    2  A    between atoms: C_2  and  C_3
REMARK    3  A    between atoms: C_2  and  C_4
REMARK    4  A    between atoms: C_4  and  C_5
REMARK    5  A    between atoms: C_8  and  C_11
REMARK    6  A    between atoms: C_11  and  C_13
REMARK    7  A    between atoms: C_11  and  C_14
REMARK    8  A    between atoms: C_14  and  O_16
REMARK    9  A    between atoms: O_16  and  C_17
REMARK   10  A    between atoms: C_17  and  C_19
REMARK   11  A    between atoms: C_17  and  C_29
REMARK   12  A    between atoms: C_37  and  C_39
REMARK                            x       y       z     vdW  Elec       q    Type
REMARK                         _______ _______ _______ _____ _____    ______ ____
ROOT
ATOM      1  C   UNL     1       0.002  -0.004   0.002  0.00  0.00    +0.194 C 
ENDROOT
BRANCH   1   2
ATOM      2  C   UNL     1      -0.230   1.485   0.007  0.00  0.00    +0.002 A 
ATOM      3  C   UNL     1       0.819   2.359  -0.049  0.00  0.00    +0.027 A 
ATOM      4  C   UNL     1       0.580   3.731  -0.043  0.00  0.00    +0.112 A 
ATOM      5  N   UNL     1      -0.635   4.221   0.015  0.00  0.00    -0.255 NA
ATOM      6  C   UNL     1      -1.704   3.421   0.072  0.00  0.00    +0.071 A 
ATOM      7  C   UNL     1      -1.533   2.014   0.063  0.00  0.00    +0.007 A 
ATOM      8  C   UNL     1      -2.659   1.177   0.129  0.00  0.00    +0.010 A 
ATOM      9  C   UNL     1      -3.903   1.728   0.189  0.00  0.00    +0.001 A 
ATOM     10  C   UNL     1      -4.074   3.111   0.192  0.00  0.00    +0.002 A 
ATOM     11  C   UNL     1      -3.004   3.951   0.135  0.00  0.00    +0.028 A 
ENDBRANCH   1   2
BRANCH   1  12
ATOM     12  C   UNL     1       0.023  -0.522   1.442  0.00  0.00    -0.022 C 
ATOM     13  C   UNL     1       1.273   0.002   2.155  0.00  0.00    -0.008 C 
ATOM     14  C   UNL     1       2.117  -1.194   2.615  0.00  0.00    -0.009 C 
ATOM     15  C   UNL     1       2.493  -2.029   1.385  0.00  0.00    -0.015 C 
ATOM     16  C   UNL     1       1.209  -2.497   0.694  0.00  0.00    -0.078 C 
ATOM     17  C   UNL     1       0.018  -2.526   2.802  0.00  0.00    -0.070 C 
ATOM     18  C   UNL     1       1.268  -2.059   3.554  0.00  0.00    -0.003 C 
ATOM     19  N   UNL     1       0.021  -2.000   1.420  0.00  0.00    +0.385 N 
ATOM     20  H   UNL     1      -0.825  -2.326   0.938  0.00  0.00    -0.081 HD
BRANCH  18  21
ATOM     21  C   UNL     1       0.862  -1.250   4.759  0.00  0.00    -0.033 C 
ATOM     22  C   UNL     1       1.221  -1.636   5.958  0.00  0.00    +0.004 C 
ENDBRANCH  18  21
ENDBRANCH   1  12
BRANCH   1  23
ATOM     23  O   UNL     1       1.274  -0.294  -0.635  0.00  0.00    -0.458 OA
BRANCH  23  24
ATOM     24  C   UNL     1       1.260  -0.497  -1.962  0.00  0.00    +0.315 C 
ATOM     25  O   UNL     1       0.218  -0.435  -2.571  0.00  0.00    -0.250 OA
BRANCH  24  26
ATOM     26  C   UNL     1       2.542  -0.802  -2.691  0.00  0.00    +0.125 C 
ATOM     27  C   UNL     1       3.157  -2.085  -2.127  0.00  0.00    +0.024 C 
BRANCH  26  31
ATOM     28  C   UNL     1       1.724  -1.325  -6.851  0.00  0.00    -0.047 A 
ATOM     29  C   UNL     1       2.589  -0.330  -6.437  0.00  0.00    +0.004 A 
ATOM     30  C   UNL     1       2.854  -0.161  -5.090  0.00  0.00    +0.005 A 
ATOM     31  C   UNL     1       2.253  -0.987  -4.159  0.00  0.00    -0.034 A 
ATOM     32  C   UNL     1       1.393  -1.986  -4.574  0.00  0.00    +0.005 A 
ATOM     33  C   UNL     1       1.124  -2.151  -5.920  0.00  0.00    +0.004 A 
BRANCH  28  34
ATOM     34  C   UNL     1       1.435  -1.509  -8.319  0.00  0.00    +0.038 C 
BRANCH  34  36
ATOM     35  C   UNL     1       2.075  -2.774 -10.376  0.00  0.00    +0.007 C 
ATOM     36  C   UNL     1       2.444  -2.491  -8.918  0.00  0.00    -0.013 C 
ATOM     37  C   UNL     1       3.846  -1.883  -8.855  0.00  0.00    +0.007 C 
ENDBRANCH  34  36
ENDBRANCH  28  34
ENDBRANCH  26  31
ENDBRANCH  24  26
ENDBRANCH  23  24
ENDBRANCH   1  23
TORSDOF 9
