REMARK  Name = ZINC03040355
REMARK  10 active torsions:
REMARK  status: ('A' for Active; 'I' for Inactive)
REMARK    1  A    between atoms: C_1  and  C_2
REMARK    2  A    between atoms: C_5  and  C_8
REMARK    3  A    between atoms: C_8  and  N_9
REMARK    4  A    between atoms: C_12  and  C_25
REMARK    5  A    between atoms: N_27  and  C_28
REMARK    6  A    between atoms: C_28  and  C_29
REMARK    7  A    between atoms: C_29  and  C_31
REMARK    8  A    between atoms: C_29  and  C_32
REMARK    9  A    between atoms: C_32  and  N_75
REMARK   10  A    between atoms: C_35  and  C_38
REMARK                            x       y       z     vdW  Elec       q    Type
REMARK                         _______ _______ _______ _____ _____    ______ ____
ROOT
ATOM      1  N   UNL     1       4.674  -0.357   1.870  0.00  0.00    -0.262 N 
ATOM      2  C   UNL     1       5.283   0.276   2.945  0.00  0.00    +0.051 A 
ATOM      3  C   UNL     1       6.218  -0.433   3.687  0.00  0.00    +0.037 A 
ATOM      4  C   UNL     1       6.858   0.166   4.774  0.00  0.00    +0.039 A 
ATOM      5  C   UNL     1       6.558   1.487   5.118  0.00  0.00    +0.014 A 
ATOM      6  C   UNL     1       5.629   2.189   4.383  0.00  0.00    +0.017 A 
ATOM      7  C   UNL     1       4.991   1.591   3.300  0.00  0.00    +0.034 A 
ATOM      8  S   UNL     1       3.806   2.517   2.381  0.00  0.00    -0.087 S 
ATOM      9  C   UNL     1       2.320   1.589   2.564  0.00  0.00    +0.025 A 
ATOM     10  C   UNL     1       1.205   2.175   3.148  0.00  0.00    +0.016 A 
ATOM     11  C   UNL     1       0.037   1.453   3.289  0.00  0.00    +0.001 A 
ATOM     12  C   UNL     1      -0.026   0.140   2.848  0.00  0.00    +0.001 A 
ATOM     13  C   UNL     1       1.071  -0.455   2.268  0.00  0.00    +0.014 A 
ATOM     14  C   UNL     1       2.266   0.262   2.118  0.00  0.00    +0.051 A 
ATOM     15  C   UNL     1       3.420  -0.391   1.504  0.00  0.00    +0.252 C 
ATOM     16  O   UNL     1       3.181  -1.058   0.516  0.00  0.00    -0.270 OA
ENDROOT
BRANCH   4  17
ATOM     17  C   UNL     1       7.851  -0.593   5.557  0.00  0.00    +0.244 C 
ATOM     18  O   UNL     1       8.112  -1.742   5.256  0.00  0.00    -0.270 OA
ATOM     19  N   UNL     1       8.468  -0.014   6.606  0.00  0.00    -0.311 N 
ATOM     20  H   UNL     1       8.259   0.903   6.845  0.00  0.00    +0.149 HD
BRANCH  19  21
ATOM     21  C   UNL     1       9.454  -0.768   7.383  0.00  0.00    +0.106 C 
BRANCH  21  22
ATOM     22  C   UNL     1       9.999   0.114   8.508  0.00  0.00    -0.014 C 
ATOM     23  C   UNL     1       8.874   0.442   9.491  0.00  0.00    +0.007 C 
BRANCH  22  24
ATOM     24  C   UNL     1      11.117  -0.629   9.243  0.00  0.00    -0.074 C 
BRANCH  24  31
ATOM     25  C   UNL     1      12.631  -0.481  11.126  0.00  0.00    -0.079 C 
ATOM     26  C   UNL     1      13.127   0.441  12.242  0.00  0.00    -0.016 C 
ATOM     27  C   UNL     1      13.850   1.641  11.623  0.00  0.00    -0.018 C 
ATOM     28  C   UNL     1      12.894   2.367  10.672  0.00  0.00    -0.016 C 
ATOM     29  C   UNL     1      12.406   1.389   9.601  0.00  0.00    -0.079 C 
ATOM     30  C   UNL     1      14.294   2.598  12.731  0.00  0.00    +0.007 C 
ATOM     31  N   UNL     1      11.698   0.271  10.261  0.00  0.00    +0.380 N 
ATOM     32  H   UNL     1      10.940   0.652  10.840  0.00  0.00    -0.082 HD
ENDBRANCH  24  31
ENDBRANCH  22  24
ENDBRANCH  21  22
ENDBRANCH  19  21
ENDBRANCH   4  17
BRANCH   1  33
ATOM     33  C   UNL     1       5.586  -1.108   1.004  0.00  0.00    +0.149 C 
BRANCH  33  38
ATOM     34  C   UNL     1       7.681   2.395  -3.086  0.00  0.00    +0.044 C 
ATOM     35  C   UNL     1       7.135   1.481  -2.020  0.00  0.00    -0.050 A 
ATOM     36  C   UNL     1       7.772   1.389  -0.796  0.00  0.00    +0.003 A 
ATOM     37  C   UNL     1       7.270   0.551   0.182  0.00  0.00    +0.005 A 
ATOM     38  C   UNL     1       6.133  -0.195  -0.063  0.00  0.00    -0.030 A 
ATOM     39  C   UNL     1       5.499  -0.107  -1.288  0.00  0.00    +0.005 A 
ATOM     40  C   UNL     1       5.998   0.735  -2.265  0.00  0.00    +0.003 A 
ENDBRANCH  33  38
ENDBRANCH   1  33
TORSDOF 7
