REMARK  Name = ZINC03172559
REMARK  12 active torsions:
REMARK  status: ('A' for Active; 'I' for Inactive)
REMARK    1  A    between atoms: C_3  and  S_14
REMARK    2  A    between atoms: C_6  and  O_7
REMARK    3  A    between atoms: O_7  and  C_8
REMARK    4  A    between atoms: C_8  and  C_9
REMARK    5  A    between atoms: C_9  and  C_10
REMARK    6  A    between atoms: C_10  and  S_11
REMARK    7  A    between atoms: S_14  and  C_17
REMARK    8  A    between atoms: C_20  and  O_23
REMARK    9  A    between atoms: O_23  and  C_24
REMARK   10  A    between atoms: C_24  and  C_25
REMARK   11  A    between atoms: C_25  and  C_26
REMARK   12  A    between atoms: C_26  and  S_27
REMARK                            x       y       z     vdW  Elec       q    Type
REMARK                         _______ _______ _______ _____ _____    ______ ____
ROOT
ATOM      1  S   UNL     1       1.228  -2.442  -0.023  0.00  0.00    +0.025 S 
ATOM      2  O   UNL     1       2.484  -2.837   0.513  0.00  0.00    -0.164 OA
ATOM      3  O   UNL     1      -0.006  -2.866   0.538  0.00  0.00    -0.164 OA
ENDROOT
BRANCH   1   6
ATOM      4  C   UNL     1      -0.017   1.377   0.010  0.00  0.00    +0.047 A 
ATOM      5  C   UNL     1       0.002  -0.004   0.002  0.00  0.00    +0.031 A 
ATOM      6  C   UNL     1       1.208  -0.680  -0.014  0.00  0.00    +0.094 A 
ATOM      7  C   UNL     1       2.398   0.024  -0.021  0.00  0.00    +0.031 A 
ATOM      8  C   UNL     1       2.385   1.405  -0.013  0.00  0.00    +0.047 A 
ATOM      9  C   UNL     1       1.176   2.086   0.002  0.00  0.00    +0.121 A 
BRANCH   9  10
ATOM     10  O   UNL     1       1.160   3.445   0.009  0.00  0.00    -0.492 OA
BRANCH  10  11
ATOM     11  C   UNL     1       2.426   4.108   0.001  0.00  0.00    +0.231 C 
BRANCH  11  12
ATOM     12  C   UNL     1       2.208   5.623   0.010  0.00  0.00    +0.066 C 
BRANCH  12  13
ATOM     13  C   UNL     1       3.563   6.333   0.001  0.00  0.00    +0.204 C 
BRANCH  13  14
ATOM     14  S   UNL     1       3.304   8.129   0.013  0.00  0.00    +0.110 S 
ATOM     15  O   UNL     1       2.723   8.547  -1.215  0.00  0.00    -0.145 OA
ATOM     16  O   UNL     1       2.746   8.535   1.255  0.00  0.00    -0.145 OA
ATOM     17  O   UNL     1       4.704   8.726   0.003  0.00  0.00    -0.048 OA
ENDBRANCH  13  14
ENDBRANCH  12  13
ENDBRANCH  11  12
ENDBRANCH  10  11
ENDBRANCH   9  10
ENDBRANCH   1   6
BRANCH   1  18
ATOM     18  C   UNL     1       1.218  -2.954  -1.709  0.00  0.00    +0.094 A 
ATOM     19  C   UNL     1       0.016  -3.174  -2.356  0.00  0.00    +0.031 A 
ATOM     20  C   UNL     1       0.005  -3.570  -3.680  0.00  0.00    +0.047 A 
ATOM     21  C   UNL     1       1.201  -3.757  -4.356  0.00  0.00    +0.121 A 
ATOM     22  C   UNL     1       2.406  -3.541  -3.703  0.00  0.00    +0.047 A 
ATOM     23  C   UNL     1       2.412  -3.140  -2.381  0.00  0.00    +0.031 A 
BRANCH  21  24
ATOM     24  O   UNL     1       1.193  -4.151  -5.657  0.00  0.00    -0.492 OA
BRANCH  24  25
ATOM     25  C   UNL     1      -0.084  -4.354  -6.265  0.00  0.00    +0.231 C 
BRANCH  25  26
ATOM     26  C   UNL     1       0.107  -4.792  -7.719  0.00  0.00    +0.066 C 
BRANCH  26  27
ATOM     27  C   UNL     1      -1.260  -5.010  -8.370  0.00  0.00    +0.204 C 
BRANCH  27  28
ATOM     28  S   UNL     1      -1.034  -5.528 -10.094  0.00  0.00    +0.110 S 
ATOM     29  O   UNL     1      -0.489  -4.461 -10.858  0.00  0.00    -0.145 OA
ATOM     30  O   UNL     1      -0.453  -6.824 -10.142  0.00  0.00    -0.145 OA
ATOM     31  O   UNL     1      -2.444  -5.713 -10.635  0.00  0.00    -0.048 OA
ENDBRANCH  27  28
ENDBRANCH  26  27
ENDBRANCH  25  26
ENDBRANCH  24  25
ENDBRANCH  21  24
ENDBRANCH   1  18
TORSDOF 12
