REMARK  Name = ZINC40127069
REMARK  11 active torsions:
REMARK  status: ('A' for Active; 'I' for Inactive)
REMARK    1  A    between atoms: C_1  and  O_2
REMARK    2  A    between atoms: O_2  and  C_3
REMARK    3  A    between atoms: C_5  and  C_13
REMARK    4  A    between atoms: C_8  and  O_9
REMARK    5  A    between atoms: O_9  and  C_10
REMARK    6  A    between atoms: C_10  and  C_11
REMARK    7  A    between atoms: C_15  and  C_21
REMARK    8  A    between atoms: C_21  and  C_23
REMARK    9  A    between atoms: C_26  and  O_29
REMARK   10  A    between atoms: O_29  and  C_30
REMARK   11  A    between atoms: C_30  and  C_31
REMARK                            x       y       z     vdW  Elec       q    Type
REMARK                         _______ _______ _______ _____ _____    ______ ____
ROOT
ATOM      1  C   UNL     1      -4.809   0.204   0.235  0.00  0.00    +0.142 C 
ATOM      2  C   UNL     1      -5.564   0.087  -1.069  0.00  0.00    +0.076 C 
ATOM      3  C   UNL     1      -6.777  -0.434  -0.773  0.00  0.00    +0.249 C 
ATOM      4  C   UNL     1      -6.862  -0.671   0.684  0.00  0.00    +0.285 C 
ATOM      5  O   UNL     1      -7.826  -1.133   1.260  0.00  0.00    -0.267 OA
ATOM      6  N   UNL     1      -5.712  -0.298   1.278  0.00  0.00    -0.298 N 
ATOM      7  O   UNL     1      -7.757  -0.697  -1.668  0.00  0.00    -0.282 OA
ATOM      8  H   UNL     1      -5.515  -0.351   2.226  0.00  0.00    +0.150 HD
ENDROOT
BRANCH   1  11
ATOM      9  C   UNL     1      -1.172  -0.793   0.008  0.00  0.00    +0.162 A 
ATOM     10  C   UNL     1      -2.324  -0.024   0.053  0.00  0.00    +0.055 A 
ATOM     11  C   UNL     1      -3.558  -0.634   0.186  0.00  0.00    -0.019 A 
ATOM     12  C   UNL     1      -3.645  -2.011   0.276  0.00  0.00    +0.009 A 
ATOM     13  C   UNL     1      -2.500  -2.784   0.233  0.00  0.00    +0.050 A 
ATOM     14  C   UNL     1      -1.261  -2.179   0.092  0.00  0.00    +0.162 A 
BRANCH   9  16
ATOM     15  C   UNL     1       0.068   1.234  -0.094  0.00  0.00    +0.277 C 
ATOM     16  O   UNL     1       0.042  -0.195  -0.124  0.00  0.00    -0.491 OA
ENDBRANCH   9  16
BRANCH  14  17
ATOM     17  O   UNL     1      -0.134  -2.938   0.043  0.00  0.00    -0.484 OA
BRANCH  17  18
ATOM     18  C   UNL     1      -0.301  -4.355   0.136  0.00  0.00    +0.256 C 
BRANCH  18  19
ATOM     19  C   UNL     1       1.046  -5.025   0.064  0.00  0.00    +0.006 C 
ATOM     20  C   UNL     1       1.344  -5.989   0.900  0.00  0.00    +0.007 C 
ENDBRANCH  18  19
ENDBRANCH  17  18
ENDBRANCH  14  17
ENDBRANCH   1  11
BRANCH   2  21
ATOM     21  C   UNL     1      -5.075   0.465  -2.399  0.00  0.00    +0.195 C 
ATOM     22  O   UNL     1      -4.881  -0.391  -3.242  0.00  0.00    -0.287 OA
BRANCH  21  23
ATOM     23  C   UNL     1      -4.819   1.884  -2.715  0.00  0.00    +0.022 A 
ATOM     24  C   UNL     1      -4.956   2.859  -1.722  0.00  0.00    +0.015 A 
ATOM     25  C   UNL     1      -4.716   4.181  -2.021  0.00  0.00    +0.046 A 
ATOM     26  C   UNL     1      -4.339   4.548  -3.308  0.00  0.00    +0.121 A 
ATOM     27  C   UNL     1      -4.203   3.581  -4.299  0.00  0.00    +0.046 A 
ATOM     28  C   UNL     1      -4.434   2.256  -4.007  0.00  0.00    +0.015 A 
BRANCH  26  29
ATOM     29  O   UNL     1      -4.104   5.852  -3.599  0.00  0.00    -0.487 OA
BRANCH  29  30
ATOM     30  C   UNL     1      -3.720   6.159  -4.941  0.00  0.00    +0.266 C 
BRANCH  30  31
ATOM     31  C   UNL     1      -3.503   7.644  -5.074  0.00  0.00    +0.008 A 
ATOM     32  C   UNL     1      -3.678   8.469  -3.979  0.00  0.00    +0.008 A 
ATOM     33  C   UNL     1      -3.479   9.832  -4.102  0.00  0.00    +0.000 A 
ATOM     34  C   UNL     1      -3.105  10.370  -5.319  0.00  0.00    +0.001 A 
ATOM     35  C   UNL     1      -2.929   9.546  -6.415  0.00  0.00    +0.020 A 
ATOM     36  C   UNL     1      -3.123   8.181  -6.291  0.00  0.00    +0.047 A 
ATOM     37 CL   UNL     1      -2.897   7.144  -7.665  0.00  0.00    -0.083 Cl
ENDBRANCH  30  31
ENDBRANCH  29  30
ENDBRANCH  26  29
ENDBRANCH  21  23
ENDBRANCH   2  21
TORSDOF 10
