REMARK  Name = ZINC02153244
REMARK  11 active torsions:
REMARK  status: ('A' for Active; 'I' for Inactive)
REMARK    1  A    between atoms: C_1  and  O_2
REMARK    2  A    between atoms: O_2  and  C_3
REMARK    3  A    between atoms: C_6  and  C_11
REMARK    4  A    between atoms: C_8  and  O_9
REMARK    5  A    between atoms: O_9  and  C_10
REMARK    6  A    between atoms: C_11  and  C_12
REMARK    7  A    between atoms: C_12  and  N_13
REMARK    8  A    between atoms: C_14  and  C_29
REMARK    9  A    between atoms: C_32  and  O_37
REMARK   10  A    between atoms: C_33  and  O_35
REMARK   11  A    between atoms: O_35  and  C_36
REMARK                            x       y       z     vdW  Elec       q    Type
REMARK                         _______ _______ _______ _____ _____    ______ ____
ROOT
ATOM      1  N   UNL     1      -0.721   1.571  -1.179  0.00  0.00    -0.283 N 
ATOM      2  C   UNL     1      -0.467   2.836  -1.879  0.00  0.00    +0.145 C 
ATOM      3  C   UNL     1      -1.443   2.879  -3.026  0.00  0.00    +0.072 A 
ATOM      4  C   UNL     1      -1.692   3.865  -4.081  0.00  0.00    +0.199 A 
ATOM      5  O   UNL     1      -1.049   4.897  -4.158  0.00  0.00    -0.287 OA
ATOM      6  C   UNL     1      -2.761   3.545  -5.048  0.00  0.00    +0.064 A 
ATOM      7  C   UNL     1      -3.083   4.412  -6.091  0.00  0.00    +0.015 A 
ATOM      8  C   UNL     1      -4.080   4.077  -6.965  0.00  0.00    +0.001 A 
ATOM      9  C   UNL     1      -4.771   2.883  -6.817  0.00  0.00    +0.004 A 
ATOM     10  C   UNL     1      -4.467   2.015  -5.791  0.00  0.00    +0.047 A 
ATOM     11  C   UNL     1      -3.456   2.334  -4.889  0.00  0.00    +0.139 A 
ATOM     12  O   UNL     1      -3.148   1.497  -3.882  0.00  0.00    -0.450 OA
ATOM     13  C   UNL     1      -2.181   1.743  -2.976  0.00  0.00    +0.199 A 
ATOM     14  C   UNL     1      -1.715   0.934  -1.822  0.00  0.00    +0.283 C 
ATOM     15  O   UNL     1      -2.169  -0.146  -1.502  0.00  0.00    -0.267 OA
ENDROOT
BRANCH   2  16
ATOM     16  C   UNL     1       0.947   2.865  -2.401  0.00  0.00    -0.019 A 
ATOM     17  C   UNL     1       1.503   1.724  -2.950  0.00  0.00    +0.009 A 
ATOM     18  C   UNL     1       2.800   1.746  -3.430  0.00  0.00    +0.049 A 
ATOM     19  C   UNL     1       3.544   2.913  -3.362  0.00  0.00    +0.158 A 
ATOM     20  C   UNL     1       2.984   4.061  -2.809  0.00  0.00    +0.162 A 
ATOM     21  C   UNL     1       1.683   4.033  -2.335  0.00  0.00    +0.055 A 
BRANCH  20  22
ATOM     22  O   UNL     1       3.711   5.208  -2.740  0.00  0.00    -0.491 OA
ATOM     23  C   UNL     1       3.072   6.347  -2.160  0.00  0.00    +0.277 C 
ENDBRANCH  20  22
BRANCH  19  24
ATOM     24  O   UNL     1       4.819   2.936  -3.834  0.00  0.00    -0.503 OA
ATOM     25  H   UNL     1       4.888   3.180  -4.767  0.00  0.00    +0.292 HD
ENDBRANCH  19  24
ENDBRANCH   2  16
BRANCH   1  26
ATOM     26  C   UNL     1      -0.013   1.086   0.008  0.00  0.00    +0.114 C 
BRANCH  26  27
ATOM     27  C   UNL     1      -0.729   1.579   1.267  0.00  0.00    +0.054 C 
BRANCH  27  31
ATOM     28  C   UNL     1       1.336   0.158   4.731  0.00  0.00    +0.161 A 
ATOM     29  C   UNL     1       0.321  -0.598   4.168  0.00  0.00    +0.049 A 
ATOM     30  C   UNL     1      -0.349  -0.134   3.051  0.00  0.00    +0.007 A 
ATOM     31  C   UNL     1       0.000   1.080   2.488  0.00  0.00    -0.042 A 
ATOM     32  C   UNL     1       1.012   1.839   3.045  0.00  0.00    +0.053 A 
ATOM     33  C   UNL     1       1.683   1.381   4.168  0.00  0.00    +0.162 A 
BRANCH  28  35
ATOM     34  C   UNL     1       1.582  -1.560   6.358  0.00  0.00    +0.277 C 
ATOM     35  O   UNL     1       1.992  -0.296   5.833  0.00  0.00    -0.491 OA
ENDBRANCH  28  35
BRANCH  33  36
ATOM     36  O   UNL     1       2.679   2.127   4.717  0.00  0.00    -0.491 OA
ATOM     37  C   UNL     1       2.982   3.372   4.085  0.00  0.00    +0.277 C 
ENDBRANCH  33  36
ENDBRANCH  27  31
ENDBRANCH  26  27
ENDBRANCH   1  26
TORSDOF 8
