REMARK  Name = ZINC01688504
REMARK  9 active torsions:
REMARK  status: ('A' for Active; 'I' for Inactive)
REMARK    1  A    between atoms: C_4  and  C_7
REMARK    2  A    between atoms: N_10  and  C_13
REMARK    3  A    between atoms: C_13  and  C_14
REMARK    4  A    between atoms: C_14  and  C_15
REMARK    5  A    between atoms: C_15  and  C_16
REMARK    6  A    between atoms: C_16  and  C_18
REMARK    7  A    between atoms: C_21  and  N_24
REMARK    8  A    between atoms: C_27  and  C_30
REMARK    9  A    between atoms: C_27  and  O_37
REMARK                            x       y       z     vdW  Elec       q    Type
REMARK                         _______ _______ _______ _____ _____    ______ ____
ROOT
ATOM      1  C   UNL     1      10.660  -5.344   2.922  0.00  0.00    +0.018 A 
ATOM      2  C   UNL     1      11.625  -5.318   1.906  0.00  0.00    +0.013 A 
ATOM      3  C   UNL     1      12.848  -5.889   2.114  0.00  0.00    +0.024 A 
ATOM      4  C   UNL     1      13.136  -6.497   3.334  0.00  0.00    +0.030 A 
ATOM      5  C   UNL     1      12.180  -6.524   4.347  0.00  0.00    +0.024 A 
ATOM      6  C   UNL     1      10.957  -5.951   4.149  0.00  0.00    +0.013 A 
ENDROOT
BRANCH   4   7
ATOM      7  N   UNL     1      14.381  -7.077   3.541  0.00  0.00    -0.330 N 
ATOM      8  C   UNL     1      14.747  -7.614   4.859  0.00  0.00    +0.108 C 
ATOM      9  C   UNL     1      16.074  -6.986   5.296  0.00  0.00    +0.058 C 
ATOM     10  C   UNL     1      17.126  -7.218   4.209  0.00  0.00    +0.094 C 
ATOM     11  C   UNL     1      16.677  -6.543   2.911  0.00  0.00    +0.058 C 
ATOM     12  C   UNL     1      15.355  -7.171   2.445  0.00  0.00    +0.108 C 
BRANCH  10  13
ATOM     13  C   UNL     1      18.442  -6.631   4.651  0.00  0.00    -0.016 A 
ATOM     14  C   UNL     1      18.462  -5.534   5.493  0.00  0.00    +0.008 A 
ATOM     15  C   UNL     1      19.668  -4.995   5.898  0.00  0.00    +0.020 A 
ATOM     16  C   UNL     1      20.856  -5.554   5.461  0.00  0.00    +0.041 A 
ATOM     17  C   UNL     1      20.836  -6.651   4.619  0.00  0.00    +0.020 A 
ATOM     18  C   UNL     1      19.629  -7.192   4.219  0.00  0.00    +0.008 A 
ATOM     19 CL   UNL     1      22.372  -4.877   5.970  0.00  0.00    -0.084 Cl
ENDBRANCH  10  13
BRANCH  10  20
ATOM     20  O   UNL     1      17.281  -8.621   3.988  0.00  0.00    -0.384 OA
ATOM     21  H   UNL     1      17.934  -8.842   3.310  0.00  0.00    +0.211 HD
ENDBRANCH  10  20
ENDBRANCH   4   7
BRANCH   1  22
ATOM     22  C   UNL     1       9.345  -4.730   2.704  0.00  0.00    +0.163 C 
ATOM     23  O   UNL     1       8.513  -4.749   3.586  0.00  0.00    -0.292 OA
BRANCH  22  24
ATOM     24  C   UNL     1       9.028  -4.078   1.383  0.00  0.00    +0.078 C 
BRANCH  24  25
ATOM     25  C   UNL     1       7.603  -3.522   1.417  0.00  0.00    -0.011 C 
BRANCH  25  26
ATOM     26  C   UNL     1       7.282  -2.859   0.076  0.00  0.00    -0.078 C 
BRANCH  26  30
ATOM     27  C   UNL     1       3.703  -0.661  -0.020  0.00  0.00    -0.048 C 
ATOM     28  C   UNL     1       4.496  -0.566   1.026  0.00  0.00    -0.041 C 
ATOM     29  C   UNL     1       5.831  -1.248   1.103  0.00  0.00    -0.051 C 
ATOM     30  N   UNL     1       5.914  -2.325   0.110  0.00  0.00    +0.382 N 
ATOM     31  C   UNL     1       5.564  -1.784  -1.213  0.00  0.00    -0.074 C 
ATOM     32  C   UNL     1       4.063  -1.477  -1.231  0.00  0.00    +0.017 C 
ATOM     33  H   UNL     1       5.268  -3.061   0.355  0.00  0.00    -0.081 HD
BRANCH  27  37
ATOM     34  C   UNL     1      -0.014   1.394   0.033  0.00  0.00    +0.000 A 
ATOM     35  C   UNL     1       1.170   2.110   0.042  0.00  0.00    +0.001 A 
ATOM     36  C   UNL     1       2.380   1.449   0.025  0.00  0.00    +0.008 A 
ATOM     37  C   UNL     1       2.409   0.054  -0.001  0.00  0.00    -0.022 A 
ATOM     38  C   UNL     1       1.212  -0.663  -0.010  0.00  0.00    +0.008 A 
ATOM     39  C   UNL     1       0.008   0.011   0.007  0.00  0.00    +0.001 A 
ENDBRANCH  27  37
ENDBRANCH  26  30
ENDBRANCH  25  26
ENDBRANCH  24  25
ENDBRANCH  22  24
ENDBRANCH   1  22
TORSDOF 9
