REMARK  Name = ZINC38981248
REMARK  6 active torsions:
REMARK  status: ('A' for Active; 'I' for Inactive)
REMARK    1  A    between atoms: C_1  and  O_2
REMARK    2  A    between atoms: O_2  and  C_3
REMARK    3  A    between atoms: C_6  and  S_9
REMARK    4  A    between atoms: S_9  and  N_12
REMARK    5  A    between atoms: C_14  and  N_24
REMARK    6  A    between atoms: N_24  and  C_25
REMARK                            x       y       z     vdW  Elec       q    Type
REMARK                         _______ _______ _______ _____ _____    ______ ____
ROOT
ATOM      1  N   UNL     1       1.806  -2.747   5.789  0.00  0.00    -0.110 NA
ATOM      2  C   UNL     1       2.009  -3.427   6.879  0.00  0.00    +0.192 C 
ATOM      3  C   UNL     1       0.866  -3.720   7.824  0.00  0.00    +0.237 C 
ATOM      4  N   UNL     1       1.161  -4.495   9.040  0.00  0.00    -0.359 N 
ATOM      5  C   UNL     1       2.386  -4.890   9.243  0.00  0.00    +0.063 A 
ATOM      6  C   UNL     1       2.733  -5.667  10.443  0.00  0.00    +0.027 A 
ATOM      7  C   UNL     1       4.014  -6.059  10.619  0.00  0.00    +0.002 A 
ATOM      8  C   UNL     1       5.018  -5.744   9.688  0.00  0.00    +0.002 A 
ATOM      9  C   UNL     1       4.775  -5.035   8.564  0.00  0.00    +0.030 A 
ATOM     10  C   UNL     1       3.466  -4.572   8.277  0.00  0.00    +0.089 A 
ATOM     11  N   UNL     1       3.235  -3.885   7.178  0.00  0.00    -0.226 NA
ATOM     12  H   UNL     1       0.459  -4.706   9.675  0.00  0.00    +0.162 HD
ENDROOT
BRANCH   1  13
ATOM     13  S   UNL     1       3.066  -2.440   4.759  0.00  0.00    +0.100 S 
ATOM     14  O   UNL     1       3.472  -3.694   4.228  0.00  0.00    -0.146 OA
ATOM     15  O   UNL     1       3.960  -1.582   5.455  0.00  0.00    -0.146 OA
BRANCH  13  19
ATOM     16  C   UNL     1       1.407  -0.043   1.293  0.00  0.00    +0.120 A 
ATOM     17  C   UNL     1       1.897   0.607   2.416  0.00  0.00    +0.047 A 
ATOM     18  C   UNL     1       2.402  -0.126   3.472  0.00  0.00    +0.032 A 
ATOM     19  C   UNL     1       2.420  -1.507   3.410  0.00  0.00    +0.113 A 
ATOM     20  C   UNL     1       1.933  -2.158   2.292  0.00  0.00    +0.032 A 
ATOM     21  C   UNL     1       1.421  -1.429   1.236  0.00  0.00    +0.047 A 
BRANCH  16  23
ATOM     22  C   UNL     1       0.926   2.099   0.381  0.00  0.00    +0.277 C 
ATOM     23  O   UNL     1       0.909   0.676   0.253  0.00  0.00    -0.495 OA
ENDBRANCH  16  23
ENDBRANCH  13  19
ENDBRANCH   1  13
BRANCH   3  24
ATOM     24  N   UNL     1       0.290  -2.438   8.240  0.00  0.00    -0.318 N 
ATOM     25  H   UNL     1       0.873  -1.702   8.484  0.00  0.00    +0.148 HD
BRANCH  24  26
ATOM     26  C   UNL     1      -1.098  -2.277   8.285  0.00  0.00    +0.029 A 
ATOM     27  C   UNL     1      -1.645  -1.023   8.524  0.00  0.00    +0.026 A 
ATOM     28  C   UNL     1      -3.016  -0.866   8.568  0.00  0.00    +0.040 A 
ATOM     29  C   UNL     1      -3.846  -1.957   8.374  0.00  0.00    +0.124 A 
ATOM     30  C   UNL     1      -3.303  -3.209   8.136  0.00  0.00    +0.040 A 
ATOM     31  C   UNL     1      -1.932  -3.369   8.086  0.00  0.00    +0.026 A 
ATOM     32  F   UNL     1      -5.187  -1.801   8.418  0.00  0.00    -0.205 F 
ENDBRANCH  24  26
ENDBRANCH   3  24
TORSDOF 5
