REMARK  Name = ZINC39227384
REMARK  8 active torsions:
REMARK  status: ('A' for Active; 'I' for Inactive)
REMARK    1  A    between atoms: C_1  and  C_2
REMARK    2  A    between atoms: C_2  and  C_3
REMARK    3  A    between atoms: C_8  and  N_9
REMARK    4  A    between atoms: C_10  and  C_12
REMARK    5  A    between atoms: C_16  and  C_18
REMARK    6  A    between atoms: N_31  and  C_34
REMARK    7  A    between atoms: C_34  and  C_35
REMARK    8  A    between atoms: C_34  and  C_36
REMARK                            x       y       z     vdW  Elec       q    Type
REMARK                         _______ _______ _______ _____ _____    ______ ____
ROOT
ATOM      1  C   UNL     1      -2.179  -0.495  -8.533  0.00  0.00    -0.017 A 
ATOM      2  C   UNL     1      -3.494  -0.968  -8.536  0.00  0.00    +0.012 A 
ATOM      3  C   UNL     1      -4.154  -1.196  -9.723  0.00  0.00    +0.047 A 
ATOM      4  C   UNL     1      -3.517  -0.958 -10.935  0.00  0.00    +0.132 A 
ATOM      5  C   UNL     1      -2.197  -0.479 -10.938  0.00  0.00    +0.060 A 
ATOM      6  C   UNL     1      -1.530  -0.245  -9.736  0.00  0.00    +0.023 A 
ATOM      7  C   UNL     1      -1.532  -0.217 -12.228  0.00  0.00    +0.170 C 
ATOM      8  O   UNL     1      -0.484   0.389 -12.294  0.00  0.00    -0.292 OA
ATOM      9  C   UNL     1      -2.230  -0.747 -13.469  0.00  0.00    +0.127 C 
ATOM     10  C   UNL     1      -3.734  -0.513 -13.275  0.00  0.00    +0.114 C 
ATOM     11  O   UNL     1      -4.172  -1.189 -12.098  0.00  0.00    -0.485 OA
ATOM     12  C   UNL     1      -3.999   0.988 -13.135  0.00  0.00    +0.030 C 
ATOM     13  C   UNL     1      -5.507   1.226 -13.032  0.00  0.00    -0.075 C 
ATOM     14  N   UNL     1      -6.170   0.719 -14.239  0.00  0.00    +0.381 N 
ATOM     15  C   UNL     1      -5.982  -0.734 -14.338  0.00  0.00    -0.075 C 
ATOM     16  C   UNL     1      -4.492  -1.049 -14.491  0.00  0.00    +0.030 C 
ATOM     17  H   UNL     1      -5.773   1.165 -15.052  0.00  0.00    -0.081 HD
ENDROOT
BRANCH   1  22
ATOM     18  C   UNL     1      -1.465  -0.278  -4.839  0.00  0.00    +0.038 A 
ATOM     19  C   UNL     1      -0.152   0.200  -4.849  0.00  0.00    +0.013 A 
ATOM     20  C   UNL     1       0.485   0.446  -6.048  0.00  0.00    +0.001 A 
ATOM     21  C   UNL     1      -0.169   0.221  -7.244  0.00  0.00    +0.008 A 
ATOM     22  C   UNL     1      -1.479  -0.256  -7.247  0.00  0.00    -0.017 A 
ATOM     23  C   UNL     1      -2.127  -0.511  -6.043  0.00  0.00    +0.021 A 
BRANCH  18  25
ATOM     24  N   UNL     1      -1.506  -0.315  -2.391  0.00  0.00    -0.281 N 
ATOM     25  C   UNL     1      -2.148  -0.541  -3.554  0.00  0.00    +0.248 C 
ATOM     26  O   UNL     1      -3.288  -0.962  -3.547  0.00  0.00    -0.270 OA
ATOM     27  H   UNL     1      -0.621   0.082  -2.394  0.00  0.00    +0.155 HD
BRANCH  24  33
ATOM     28  C   UNL     1      -1.348  -1.120  -0.120  0.00  0.00    -0.026 A 
ATOM     29  C   UNL     1      -1.953  -1.447   1.078  0.00  0.00    +0.005 A 
ATOM     30  C   UNL     1      -3.322  -1.314   1.222  0.00  0.00    +0.000 A 
ATOM     31  C   UNL     1      -4.090  -0.854   0.168  0.00  0.00    +0.002 A 
ATOM     32  C   UNL     1      -3.491  -0.525  -1.032  0.00  0.00    +0.023 A 
ATOM     33  C   UNL     1      -2.116  -0.652  -1.179  0.00  0.00    +0.037 A 
BRANCH  28  35
ATOM     34  C   UNL     1       0.820   0.076   0.019  0.00  0.00    +0.009 C 
ATOM     35  C   UNL     1       0.143  -1.265  -0.276  0.00  0.00    +0.033 C 
ENDBRANCH  28  35
ENDBRANCH  24  33
ENDBRANCH  18  25
ENDBRANCH   1  22
BRANCH  14  36
ATOM     36  C   UNL     1      -7.606   1.021 -14.171  0.00  0.00    -0.075 C 
ATOM     37  C   UNL     1      -7.804   2.535 -14.078  0.00  0.00    -0.014 C 
ATOM     38  C   UNL     1      -8.298   0.493 -15.429  0.00  0.00    -0.014 C 
ENDBRANCH  14  36
TORSDOF 5
