REMARK  Name = ZINC14575140
REMARK  6 active torsions:
REMARK  status: ('A' for Active; 'I' for Inactive)
REMARK    1  A    between atoms: C_1  and  C_2
REMARK    2  A    between atoms: C_2  and  C_4
REMARK    3  A    between atoms: C_2  and  N_12
REMARK    4  A    between atoms: C_13  and  C_15
REMARK    5  A    between atoms: N_23  and  C_26
REMARK    6  A    between atoms: C_26  and  C_27
REMARK                            x       y       z     vdW  Elec       q    Type
REMARK                         _______ _______ _______ _____ _____    ______ ____
ROOT
ATOM      1  C   UNL     1       2.406   0.045  -0.021  0.00  0.00    +0.037 A 
ATOM      2  C   UNL     1       2.381   1.440  -0.013  0.00  0.00    +0.014 A 
ATOM      3  C   UNL     1       1.173   2.116   0.002  0.00  0.00    +0.014 A 
ATOM      4  C   UNL     1      -0.017   1.406   0.010  0.00  0.00    +0.049 A 
ATOM      5  C   UNL     1       0.002  -0.004   0.002  0.00  0.00    +0.050 A 
ATOM      6  C   UNL     1       1.211  -0.679  -0.013  0.00  0.00    +0.027 A 
ATOM      7  C   UNL     1      -1.414  -0.428   0.013  0.00  0.00    +0.254 C 
ATOM      8  O   UNL     1      -1.810  -1.576   0.010  0.00  0.00    -0.270 OA
ATOM      9  N   UNL     1      -2.191   0.670   0.027  0.00  0.00    -0.227 N 
ATOM     10  C   UNL     1      -1.447   1.790   0.031  0.00  0.00    +0.254 C 
ATOM     11  O   UNL     1      -1.875   2.926   0.044  0.00  0.00    -0.270 OA
ENDROOT
BRANCH   1  13
ATOM     12  N   UNL     1       4.856   0.027  -0.044  0.00  0.00    -0.305 N 
ATOM     13  C   UNL     1       3.702  -0.669  -0.036  0.00  0.00    +0.245 C 
ATOM     14  O   UNL     1       3.726  -1.884  -0.043  0.00  0.00    -0.270 OA
ATOM     15  H   UNL     1       4.837   0.997  -0.039  0.00  0.00    +0.150 HD
BRANCH  12  17
ATOM     16  C   UNL     1       6.538  -1.044   1.372  0.00  0.00    +0.033 C 
ATOM     17  C   UNL     1       6.139  -0.680  -0.059  0.00  0.00    +0.100 C 
BRANCH  17  18
ATOM     18  C   UNL     1       7.195   0.208  -0.665  0.00  0.00    -0.025 A 
ATOM     19  C   UNL     1       8.140  -0.327  -1.520  0.00  0.00    +0.008 A 
ATOM     20  C   UNL     1       9.109   0.485  -2.078  0.00  0.00    +0.041 A 
ATOM     21  C   UNL     1       9.134   1.837  -1.780  0.00  0.00    +0.158 A 
ATOM     22  C   UNL     1       8.186   2.374  -0.922  0.00  0.00    +0.159 A 
ATOM     23  C   UNL     1       7.214   1.558  -0.370  0.00  0.00    +0.046 A 
ATOM     24  F   UNL     1       8.209   3.693  -0.630  0.00  0.00    -0.202 F 
ATOM     25  F   UNL     1      10.081   2.632  -2.324  0.00  0.00    -0.202 F 
ENDBRANCH  17  18
ENDBRANCH  12  17
ENDBRANCH   1  13
BRANCH   9  26
ATOM     26  C   UNL     1      -3.656   0.648   0.040  0.00  0.00    +0.191 C 
BRANCH  26  27
ATOM     27  C   UNL     1      -4.145   0.633   1.465  0.00  0.00    +0.123 A 
ATOM     28  C   UNL     1      -4.411   1.716   2.217  0.00  0.00    +0.046 A 
ATOM     29  C   UNL     1      -4.843   1.243   3.478  0.00  0.00    +0.041 A 
ATOM     30  C   UNL     1      -4.807  -0.100   3.424  0.00  0.00    +0.195 A 
ATOM     31  O   UNL     1      -4.383  -0.465   2.202  0.00  0.00    -0.466 OA
ENDBRANCH  26  27
ENDBRANCH   9  26
TORSDOF 5
