REMARK  Name = ZINC43652374
REMARK  6 active torsions:
REMARK  status: ('A' for Active; 'I' for Inactive)
REMARK    1  A    between atoms: C_1  and  C_2
REMARK    2  A    between atoms: C_3  and  C_11
REMARK    3  A    between atoms: C_7  and  N_8
REMARK    4  A    between atoms: C_11  and  C_12
REMARK    5  A    between atoms: C_15  and  C_22
REMARK    6  A    between atoms: C_19  and  N_21
REMARK                            x       y       z     vdW  Elec       q    Type
REMARK                         _______ _______ _______ _____ _____    ______ ____
ROOT
ATOM      1  C   UNL     1      -0.749   0.015  -2.412  0.00  0.00    +0.037 C 
ENDROOT
BRANCH   1   4
ATOM      2  C   UNL     1      -0.538   1.447   0.088  0.00  0.00    +0.046 C 
ATOM      3  C   UNL     1      -0.246  -0.031   0.039  0.00  0.00    -0.017 A 
ATOM      4  C   UNL     1      -0.347  -0.716  -1.157  0.00  0.00    -0.042 A 
ATOM      5  C   UNL     1      -0.080  -2.071  -1.202  0.00  0.00    +0.004 A 
ATOM      6  C   UNL     1       0.288  -2.742  -0.051  0.00  0.00    +0.003 A 
ATOM      7  C   UNL     1       0.390  -2.057   1.145  0.00  0.00    +0.033 A 
ATOM      8  C   UNL     1       0.127  -0.700   1.190  0.00  0.00    +0.129 A 
BRANCH   8   9
ATOM      9  N   UNL     1       0.241   0.035   2.470  0.00  0.00    +0.057 N 
ATOM     10  O   UNL     1       0.674   1.163   2.482  0.00  0.00    -0.126 OA
ATOM     11  O   UNL     1      -0.099  -0.494   3.502  0.00  0.00    -0.126 OA
ENDBRANCH   8   9
ENDBRANCH   1   4
BRANCH   1  12
ATOM     12  C   UNL     1       0.488   0.652  -3.050  0.00  0.00    -0.021 C 
ATOM     13  C   UNL     1       1.447  -0.448  -3.511  0.00  0.00    +0.005 C 
ATOM     14  C   UNL     1       2.683   0.189  -4.149  0.00  0.00    -0.014 C 
ATOM     15  C   UNL     1       2.259   1.034  -5.352  0.00  0.00    +0.002 C 
ATOM     16  C   UNL     1       1.300   2.133  -4.891  0.00  0.00    -0.016 C 
ATOM     17  C   UNL     1       0.064   1.496  -4.253  0.00  0.00    -0.072 C 
ATOM     18  C   UNL     1       3.385   1.080  -3.122  0.00  0.00    +0.007 C 
BRANCH  17  19
ATOM     19  N   UNL     1      -0.857   2.552  -3.810  0.00  0.00    +0.380 N 
ATOM     20  H   UNL     1      -0.395   3.139  -3.133  0.00  0.00    -0.090 HD
ATOM     21  H   UNL     1      -1.137   3.109  -4.604  0.00  0.00    -0.090 HD
ATOM     22  H   UNL     1      -1.673   2.132  -3.390  0.00  0.00    -0.090 HD
ENDBRANCH  17  19
ENDBRANCH   1  12
TORSDOF 4
