REMARK  Name = ZINC63625076
REMARK  4 active torsions:
REMARK  status: ('A' for Active; 'I' for Inactive)
REMARK    1  A    between atoms: C_1  and  C_2
REMARK    2  A    between atoms: C_5  and  C_8
REMARK    3  A    between atoms: N_23  and  S_24
REMARK    4  A    between atoms: S_24  and  C_27
REMARK                            x       y       z     vdW  Elec       q    Type
REMARK                         _______ _______ _______ _____ _____    ______ ____
ROOT
ATOM      1  C   UNL     1       0.038  -4.276  -0.036  0.00  0.00    +0.136 C 
ATOM      2  C   UNL     1       1.488  -4.757   0.084  0.00  0.00    +0.129 C 
ATOM      3  C   UNL     1       1.428  -6.252   0.372  0.00  0.00    -0.035 C 
ATOM      4  C   UNL     1       2.144  -6.846  -0.576  0.00  0.00    +0.001 A 
ATOM      5  C   UNL     1       2.507  -8.256  -0.789  0.00  0.00    +0.030 A 
ATOM      6  C   UNL     1       3.259  -8.521  -1.891  0.00  0.00    +0.042 A 
ATOM      7  C   UNL     1       3.680  -7.535  -2.791  0.00  0.00    +0.022 A 
ATOM      8  C   UNL     1       3.395  -6.214  -2.669  0.00  0.00    +0.027 A 
ATOM      9  C   UNL     1       2.614  -5.811  -1.547  0.00  0.00    +0.043 A 
ATOM     10  N   UNL     1       2.217  -4.606  -1.177  0.00  0.00    -0.376 N 
ATOM     11 CL   UNL     1       3.720 -10.166  -2.198  0.00  0.00    -0.084 Cl
ATOM     12  C   UNL     1       0.608  -6.827   1.501  0.00  0.00    +0.050 C 
ATOM     13  C   UNL     1      -0.805  -6.232   1.370  0.00  0.00    +0.114 C 
ATOM     14  N   UNL     1      -0.707  -4.790   1.125  0.00  0.00    -0.167 NA
ATOM     15  H   UNL     1       2.370  -3.772  -1.647  0.00  0.00    +0.160 HD
ENDROOT
BRANCH   1  20
ATOM     16  C   UNL     1      -0.108   1.501  -0.057  0.00  0.00    +0.044 C 
ATOM     17  C   UNL     1      -0.070  -0.006  -0.051  0.00  0.00    -0.050 A 
ATOM     18  C   UNL     1       0.792  -0.672   0.799  0.00  0.00    +0.003 A 
ATOM     19  C   UNL     1       0.826  -2.054   0.805  0.00  0.00    +0.005 A 
ATOM     20  C   UNL     1      -0.001  -2.769  -0.041  0.00  0.00    -0.026 A 
ATOM     21  C   UNL     1      -0.863  -2.103  -0.891  0.00  0.00    +0.005 A 
ATOM     22  C   UNL     1      -0.901  -0.721  -0.893  0.00  0.00    +0.003 A 
ENDBRANCH   1  20
BRANCH  14  23
ATOM     23  S   UNL     1      -1.438  -3.728   2.164  0.00  0.00    +0.064 S 
ATOM     24  O   UNL     1      -1.747  -2.566   1.408  0.00  0.00    -0.153 OA
ATOM     25  O   UNL     1      -2.429  -4.466   2.866  0.00  0.00    -0.153 OA
BRANCH  23  26
ATOM     26  C   UNL     1      -0.230  -3.249   3.354  0.00  0.00    +0.134 A 
ATOM     27  C   UNL     1       0.186  -1.962   3.414  0.00  0.00    +0.031 A 
ATOM     28  C   UNL     1       1.140  -1.547   4.343  0.00  0.00    +0.004 A 
ATOM     29  C   UNL     1       1.691  -2.412   5.225  0.00  0.00    +0.031 A 
ATOM     30  C   UNL     1       1.303  -3.779   5.221  0.00  0.00    +0.102 A 
ATOM     31  C   UNL     1       0.301  -4.212   4.254  0.00  0.00    +0.126 A 
ATOM     32  N   UNL     1       0.011  -5.511   4.345  0.00  0.00    -0.189 NA
ATOM     33  S   UNL     1       0.925  -6.077   5.542  0.00  0.00    +0.117 S 
ATOM     34  N   UNL     1       1.734  -4.767   6.008  0.00  0.00    -0.191 NA
ENDBRANCH  23  26
ENDBRANCH  14  23
TORSDOF 3
