REMARK  Name = ZINC38670035
REMARK  10 active torsions:
REMARK  status: ('A' for Active; 'I' for Inactive)
REMARK    1  A    between atoms: C_1  and  N_2
REMARK    2  A    between atoms: C_9  and  C_11
REMARK    3  A    between atoms: C_11  and  C_13
REMARK    4  A    between atoms: C_11  and  N_30
REMARK    5  A    between atoms: C_13  and  N_14
REMARK    6  A    between atoms: C_15  and  C_17
REMARK    7  A    between atoms: C_23  and  O_28
REMARK    8  A    between atoms: O_28  and  C_29
REMARK    9  A    between atoms: N_30  and  C_31
REMARK   10  A    between atoms: N_30  and  C_32
REMARK                            x       y       z     vdW  Elec       q    Type
REMARK                         _______ _______ _______ _____ _____    ______ ____
ROOT
ATOM      1  N   UNL     1       1.889  -4.782   3.194  0.00  0.00    -0.312 N 
ATOM      2  C   UNL     1       3.178  -5.177   3.221  0.00  0.00    +0.251 C 
ATOM      3  O   UNL     1       3.863  -4.949   4.199  0.00  0.00    -0.270 OA
ATOM      4  H   UNL     1       1.342  -4.963   2.414  0.00  0.00    +0.149 HD
ENDROOT
BRANCH   2   5
ATOM      5  C   UNL     1       3.755  -5.884   2.066  0.00  0.00    +0.122 A 
ATOM      6  C   UNL     1       5.077  -6.309   2.066  0.00  0.00    +0.032 A 
ATOM      7  C   UNL     1       5.571  -6.956   0.904  0.00  0.00    +0.022 A 
ATOM      8  C   UNL     1       6.827  -7.581   0.917  0.00  0.00    +0.012 A 
ATOM      9  C   UNL     1       7.273  -8.236  -0.194  0.00  0.00    +0.004 A 
ATOM     10  C   UNL     1       6.498  -8.284  -1.345  0.00  0.00    +0.049 A 
ATOM     11  C   UNL     1       5.265  -7.658  -1.389  0.00  0.00    +0.163 A 
ATOM     12  C   UNL     1       4.794  -6.978  -0.268  0.00  0.00    +0.180 A 
ATOM     13  O   UNL     1       3.608  -6.325  -0.310  0.00  0.00    -0.418 OA
ATOM     14  C   UNL     1       2.950  -6.176   0.865  0.00  0.00    +0.350 A 
ATOM     15  O   UNL     1       1.739  -6.275   0.929  0.00  0.00    -0.244 OA
BRANCH  11  16
ATOM     16  O   UNL     1       4.516  -7.706  -2.523  0.00  0.00    -0.491 OA
ATOM     17  C   UNL     1       5.063  -8.421  -3.633  0.00  0.00    +0.277 C 
ENDBRANCH  11  16
ENDBRANCH   2   5
BRANCH   1  18
ATOM     18  C   UNL     1       1.315  -4.077   4.343  0.00  0.00    +0.094 C 
BRANCH  18  19
ATOM     19  C   UNL     1      -0.174  -3.826   4.096  0.00  0.00    -0.021 C 
BRANCH  19  28
ATOM     20  C   UNL     1      -0.729   0.945  -0.621  0.00  0.00    +0.129 C 
ATOM     21  N   UNL     1      -0.832  -0.506  -0.453  0.00  0.00    -0.332 N 
ATOM     22  C   UNL     1      -1.147  -1.456  -1.524  0.00  0.00    +0.109 C 
ATOM     23  C   UNL     1      -1.138  -2.838  -0.852  0.00  0.00    +0.056 C 
ATOM     24  C   UNL     1      -0.808  -2.555   0.596  0.00  0.00    -0.025 A 
ATOM     25  C   UNL     1      -0.639  -1.188   0.750  0.00  0.00    +0.033 A 
ATOM     26  C   UNL     1      -0.320  -0.682   2.012  0.00  0.00    +0.023 A 
ATOM     27  C   UNL     1      -0.171  -1.534   3.085  0.00  0.00    +0.004 A 
ATOM     28  C   UNL     1      -0.338  -2.897   2.920  0.00  0.00    -0.059 A 
ATOM     29  C   UNL     1      -0.663  -3.405   1.676  0.00  0.00    +0.007 A 
ENDBRANCH  19  28
BRANCH  19  30
ATOM     30  N   UNL     1      -0.773  -3.215   5.290  0.00  0.00    +0.382 N 
ATOM     31  C   UNL     1      -2.191  -2.932   5.035  0.00  0.00    -0.096 C 
ATOM     32  C   UNL     1      -0.654  -4.140   6.425  0.00  0.00    -0.096 C 
ATOM     33  H   UNL     1      -0.291  -2.355   5.505  0.00  0.00    -0.082 HD
ENDBRANCH  19  30
ENDBRANCH  18  19
ENDBRANCH   1  18
TORSDOF 6
