REMARK  Name = ZINC22673200
REMARK  12 active torsions:
REMARK  status: ('A' for Active; 'I' for Inactive)
REMARK    1  A    between atoms: C_1  and  C_2
REMARK    2  A    between atoms: C_2  and  C_3
REMARK    3  A    between atoms: C_3  and  C_5
REMARK    4  A    between atoms: C_3  and  C_6
REMARK    5  A    between atoms: C_11  and  N_12
REMARK    6  A    between atoms: C_13  and  C_15
REMARK    7  A    between atoms: C_15  and  C_17
REMARK    8  A    between atoms: C_15  and  S_18
REMARK    9  A    between atoms: S_18  and  C_19
REMARK   10  A    between atoms: C_22  and  C_30
REMARK   11  A    between atoms: N_23  and  C_24
REMARK   12  A    between atoms: C_30  and  N_31
REMARK                            x       y       z     vdW  Elec       q    Type
REMARK                         _______ _______ _______ _____ _____    ______ ____
ROOT
ATOM      1  C   UNL     1      -2.397   9.745   0.791  0.00  0.00    +0.197 A 
ATOM      2  N   UNL     1      -1.379  10.320   0.194  0.00  0.00    -0.122 NA
ATOM      3  N   UNL     1      -1.484  11.597   0.282  0.00  0.00    -0.135 NA
ATOM      4  C   UNL     1      -2.566  11.915   0.935  0.00  0.00    +0.122 A 
ATOM      5  N   UNL     1      -3.191  10.745   1.279  0.00  0.00    -0.276 N 
ENDROOT
BRANCH   5   6
ATOM      6  C   UNL     1      -4.394  10.604   1.987  0.00  0.00    +0.050 A 
ATOM      7  C   UNL     1      -5.583  11.060   1.435  0.00  0.00    +0.026 A 
ATOM      8  C   UNL     1      -6.767  10.914   2.132  0.00  0.00    +0.002 A 
ATOM      9  C   UNL     1      -6.766  10.324   3.382  0.00  0.00    +0.000 A 
ATOM     10  C   UNL     1      -5.582   9.874   3.937  0.00  0.00    +0.002 A 
ATOM     11  C   UNL     1      -4.396  10.012   3.242  0.00  0.00    +0.026 A 
ENDBRANCH   5   6
BRANCH   1  12
ATOM     12  S   UNL     1      -2.688   8.012   0.931  0.00  0.00    -0.073 S 
BRANCH  12  13
ATOM     13  C   UNL     1      -1.238   7.378   0.053  0.00  0.00    +0.137 C 
ATOM     14  C   UNL     1      -1.311   7.792  -1.418  0.00  0.00    +0.029 C 
BRANCH  13  16
ATOM     15  N   UNL     1      -0.039   5.214   0.041  0.00  0.00    -0.284 N 
ATOM     16  C   UNL     1      -1.209   5.875   0.151  0.00  0.00    +0.230 C 
ATOM     17  O   UNL     1      -2.239   5.259   0.329  0.00  0.00    -0.274 OA
ATOM     18  H   UNL     1       0.904   5.775  -0.029  0.00  0.00    +0.155 HD
BRANCH  15  24
ATOM     19  C   UNL     1       1.028   3.119   0.594  0.00  0.00    -0.023 A 
ATOM     20  C   UNL     1       1.039   1.738   0.566  0.00  0.00    +0.006 A 
ATOM     21  C   UNL     1       0.003   1.049  -0.037  0.00  0.00    +0.000 A 
ATOM     22  C   UNL     1      -1.045   1.739  -0.618  0.00  0.00    +0.002 A 
ATOM     23  C   UNL     1      -1.065   3.120  -0.589  0.00  0.00    +0.023 A 
ATOM     24  C   UNL     1      -0.025   3.815   0.015  0.00  0.00    +0.037 A 
BRANCH  19  25
ATOM     25  C   UNL     1       2.158   3.869   1.250  0.00  0.00    +0.017 C 
ATOM     26  C   UNL     1       2.169   3.566   2.749  0.00  0.00    +0.012 C 
BRANCH  25  28
ATOM     27  C   UNL     1       4.622   4.282   1.208  0.00  0.00    +0.004 C 
ATOM     28  C   UNL     1       3.487   3.433   0.631  0.00  0.00    +0.004 C 
ENDBRANCH  25  28
ENDBRANCH  19  25
ENDBRANCH  15  24
ENDBRANCH  13  16
ENDBRANCH  12  13
ENDBRANCH   1  12
BRANCH   4  29
ATOM     29  C   UNL     1      -3.044  13.309   1.248  0.00  0.00    -0.001 C 
BRANCH  29  30
ATOM     30  N   UNL     1      -3.910  13.786   0.162  0.00  0.00    +0.384 N 
ATOM     31  C   UNL     1      -3.151  13.943  -1.085  0.00  0.00    -0.078 C 
ATOM     32  C   UNL     1      -4.109  14.298  -2.225  0.00  0.00    -0.019 C 
ATOM     33  C   UNL     1      -4.840  15.599  -1.883  0.00  0.00    -0.004 C 
ATOM     34  C   UNL     1      -5.583  15.425  -0.556  0.00  0.00    -0.019 C 
ATOM     35  C   UNL     1      -4.583  15.036   0.535  0.00  0.00    -0.078 C 
ATOM     36  H   UNL     1      -4.687  13.026  -0.011  0.00  0.00    -0.081 HD
ENDBRANCH  29  30
ENDBRANCH   4  29
TORSDOF 9
