REMARK  Name = ZINC08052691
REMARK  7 active torsions:
REMARK  status: ('A' for Active; 'I' for Inactive)
REMARK    1  A    between atoms: C_1  and  C_2
REMARK    2  A    between atoms: C_2  and  C_4
REMARK    3  A    between atoms: C_2  and  N_12
REMARK    4  A    between atoms: N_12  and  C_13
REMARK    5  A    between atoms: C_16  and  S_22
REMARK    6  A    between atoms: C_18  and  N_19
REMARK    7  A    between atoms: S_22  and  N_25
REMARK                            x       y       z     vdW  Elec       q    Type
REMARK                         _______ _______ _______ _____ _____    ______ ____
ROOT
ATOM      1  C   UNL     1       3.260   5.923  -1.244  0.00  0.00    +0.058 A 
ATOM      2  C   UNL     1       4.465   5.271  -1.472  0.00  0.00    +0.027 A 
ATOM      3  C   UNL     1       5.471   5.908  -2.171  0.00  0.00    +0.030 A 
ATOM      4  C   UNL     1       5.285   7.198  -2.633  0.00  0.00    +0.107 A 
ATOM      5  C   UNL     1       4.090   7.853  -2.402  0.00  0.00    +0.063 A 
ATOM      6  C   UNL     1       3.076   7.219  -1.710  0.00  0.00    +0.149 A 
ENDROOT
BRANCH   6   7
ATOM      7  N   UNL     1       1.796   7.920  -1.464  0.00  0.00    +0.058 N 
ATOM      8  O   UNL     1       1.673   9.091  -1.777  0.00  0.00    -0.126 OA
ATOM      9  O   UNL     1       0.866   7.327  -0.949  0.00  0.00    -0.126 OA
ENDBRANCH   6   7
BRANCH   4  10
ATOM     10  S   UNL     1       6.576   8.010  -3.516  0.00  0.00    +0.056 S 
ATOM     11  O   UNL     1       7.391   6.988  -4.073  0.00  0.00    -0.153 OA
ATOM     12  O   UNL     1       5.956   9.009  -4.314  0.00  0.00    -0.153 OA
BRANCH  10  13
ATOM     13  N   UNL     1       7.508   8.805  -2.401  0.00  0.00    -0.204 NA
ATOM     14  H   UNL     1       7.283   8.757  -1.459  0.00  0.00    +0.144 HD
ATOM     15  H   UNL     1       8.278   9.318  -2.691  0.00  0.00    +0.144 HD
ENDBRANCH  10  13
ENDBRANCH   4  10
BRANCH   1  16
ATOM     16  N   UNL     1       2.237   5.280  -0.544  0.00  0.00    -0.335 N 
ATOM     17  H   UNL     1       1.367   5.701  -0.459  0.00  0.00    +0.147 HD
BRANCH  16  19
ATOM     18  C   UNL     1       3.059   4.156   1.467  0.00  0.00    +0.033 C 
ATOM     19  C   UNL     1       2.478   3.969   0.064  0.00  0.00    +0.099 C 
BRANCH  19  20
ATOM     20  C   UNL     1       1.178   3.212   0.156  0.00  0.00    -0.009 A 
ATOM     21  C   UNL     1      -0.017   3.899   0.262  0.00  0.00    +0.008 A 
ATOM     22  C   UNL     1      -1.209   3.205   0.346  0.00  0.00    +0.020 A 
ATOM     23  C   UNL     1      -1.208   1.822   0.318  0.00  0.00    +0.042 A 
ATOM     24  C   UNL     1      -0.013   1.133   0.218  0.00  0.00    +0.040 A 
ATOM     25  C   UNL     1       1.181   1.828   0.134  0.00  0.00    +0.047 A 
ATOM     26 CL   UNL     1       2.681   0.965   0.001  0.00  0.00    -0.083 Cl
ATOM     27 CL   UNL     1      -2.706   0.951   0.417  0.00  0.00    -0.083 Cl
ENDBRANCH  19  20
ENDBRANCH  16  19
ENDBRANCH   1  16
TORSDOF 6
