REMARK  Name = ZINC05516998
REMARK  6 active torsions:
REMARK  status: ('A' for Active; 'I' for Inactive)
REMARK    1  A    between atoms: C_1  and  C_2
REMARK    2  A    between atoms: C_2  and  C_20
REMARK    3  A    between atoms: N_3  and  N_4
REMARK    4  A    between atoms: C_5  and  C_7
REMARK    5  A    between atoms: C_12  and  N_13
REMARK    6  A    between atoms: N_13  and  C_14
REMARK                            x       y       z     vdW  Elec       q    Type
REMARK                         _______ _______ _______ _____ _____    ______ ____
ROOT
ATOM      1  C   UNL     1      -2.464   0.952   0.243  0.00  0.00    +0.059 A 
ATOM      2  C   UNL     1      -3.659   1.671   0.331  0.00  0.00    +0.015 A 
ATOM      3  C   UNL     1      -3.644   3.044   0.222  0.00  0.00    +0.001 A 
ATOM      4  C   UNL     1      -2.450   3.718   0.025  0.00  0.00    +0.002 A 
ATOM      5  C   UNL     1      -1.261   3.023  -0.059  0.00  0.00    +0.024 A 
ATOM      6  C   UNL     1      -1.256   1.637   0.043  0.00  0.00    +0.044 A 
ENDROOT
BRANCH   1   8
ATOM      7  N   UNL     1      -3.643  -1.182   0.423  0.00  0.00    -0.203 N 
ATOM      8  C   UNL     1      -2.472  -0.518   0.360  0.00  0.00    +0.265 C 
ATOM      9  O   UNL     1      -1.422  -1.131   0.399  0.00  0.00    -0.268 OA
ATOM     10  H   UNL     1      -4.481  -0.693   0.392  0.00  0.00    +0.178 HD
BRANCH   7  13
ATOM     11  C   UNL     1      -6.082  -2.461   0.547  0.00  0.00    +0.068 C 
ATOM     12  C   UNL     1      -4.781  -3.220   0.596  0.00  0.00    +0.070 C 
ATOM     13  N   UNL     1      -3.651  -2.579   0.534  0.00  0.00    -0.184 NA
BRANCH  12  14
ATOM     14  C   UNL     1      -4.790  -4.682   0.712  0.00  0.00    +0.035 A 
ATOM     15  C   UNL     1      -3.720  -5.559   0.772  0.00  0.00    +0.017 A 
ATOM     16  C   UNL     1      -3.983  -6.904   0.881  0.00  0.00    +0.008 A 
ATOM     17  C   UNL     1      -5.274  -7.328   0.926  0.00  0.00    +0.046 A 
ATOM     18  S   UNL     1      -6.181  -5.794   0.821  0.00  0.00    -0.095 S 
ENDBRANCH  12  14
ENDBRANCH   7  13
ENDBRANCH   1   8
BRANCH   6  19
ATOM     19  N   UNL     1      -0.060   0.935  -0.046  0.00  0.00    -0.314 N 
ATOM     20  H   UNL     1       0.544   0.906   0.712  0.00  0.00    +0.152 HD
BRANCH  19  21
ATOM     21  C   UNL     1       0.269   0.265  -1.227  0.00  0.00    +0.031 A 
ATOM     22  C   UNL     1      -0.635   0.225  -2.281  0.00  0.00    +0.023 A 
ATOM     23  C   UNL     1      -0.304  -0.434  -3.449  0.00  0.00    +0.002 A 
ATOM     24  C   UNL     1       0.922  -1.063  -3.566  0.00  0.00    +0.000 A 
ATOM     25  C   UNL     1       1.822  -1.031  -2.517  0.00  0.00    +0.002 A 
ATOM     26  C   UNL     1       1.500  -0.369  -1.348  0.00  0.00    +0.023 A 
ENDBRANCH  19  21
ENDBRANCH   6  19
TORSDOF 5
