REMARK  Name = ZINC36569488
REMARK  10 active torsions:
REMARK  status: ('A' for Active; 'I' for Inactive)
REMARK    1  A    between atoms: C_1  and  O_2
REMARK    2  A    between atoms: O_2  and  C_3
REMARK    3  A    between atoms: C_3  and  C_5
REMARK    4  A    between atoms: C_5  and  C_6
REMARK    5  A    between atoms: C_6  and  C_7
REMARK    6  A    between atoms: C_7  and  C_9
REMARK    7  A    between atoms: C_7  and  N_13
REMARK    8  A    between atoms: C_9  and  O_11
REMARK    9  A    between atoms: O_11  and  C_12
REMARK   10  A    between atoms: C_25  and  C_27
REMARK                            x       y       z     vdW  Elec       q    Type
REMARK                         _______ _______ _______ _____ _____    ______ ____
ROOT
ATOM      1  N   UNL     1      -1.708  -6.391   0.329  0.00  0.00    -0.286 N 
ATOM      2  C   UNL     1      -1.697  -5.758   1.519  0.00  0.00    +0.304 C 
ATOM      3  O   UNL     1      -2.093  -4.612   1.602  0.00  0.00    -0.253 OA
ATOM      4  N   UNL     1      -1.246  -6.397   2.617  0.00  0.00    -0.273 N 
ATOM      5  C   UNL     1      -1.333  -5.767   3.943  0.00  0.00    +0.116 C 
ATOM      6  C   UNL     1      -2.276  -6.591   4.830  0.00  0.00    +0.074 C 
ATOM      7  C   UNL     1      -1.943  -8.051   4.666  0.00  0.00    +0.040 A 
ATOM      8  C   UNL     1      -1.230  -8.570   3.644  0.00  0.00    +0.062 A 
ATOM      9  N   UNL     1      -1.139  -9.889   3.828  0.00  0.00    -0.348 N 
ATOM     10  C   UNL     1      -1.766 -10.211   4.929  0.00  0.00    +0.171 A 
ATOM     11  N   UNL     1      -2.281  -9.088   5.482  0.00  0.00    -0.349 N 
ATOM     12  H   UNL     1      -2.794  -9.033   6.303  0.00  0.00    +0.166 HD
ATOM     13  C   UNL     1      -0.660  -7.745   2.519  0.00  0.00    +0.159 C 
ATOM     14  H   UNL     1      -1.324  -7.278   0.247  0.00  0.00    +0.151 HD
ATOM     15  H   UNL     1      -0.680 -10.508   3.240  0.00  0.00    +0.167 HD
ENDROOT
BRANCH  13  16
ATOM     16  C   UNL     1       0.839  -7.665   2.656  0.00  0.00    +0.015 A 
ATOM     17  C   UNL     1       1.444  -8.026   3.845  0.00  0.00    +0.028 A 
ATOM     18  C   UNL     1       2.820  -7.952   3.971  0.00  0.00    +0.041 A 
ATOM     19  C   UNL     1       3.590  -7.516   2.907  0.00  0.00    +0.023 A 
ATOM     20  C   UNL     1       2.986  -7.154   1.719  0.00  0.00    +0.040 A 
ATOM     21  C   UNL     1       1.609  -7.233   1.590  0.00  0.00    +0.129 A 
ATOM     22  F   UNL     1       1.018  -6.885   0.427  0.00  0.00    -0.205 F 
ATOM     23 CL   UNL     1       3.580  -8.407   5.464  0.00  0.00    -0.084 Cl
ENDBRANCH  13  16
BRANCH   1  24
ATOM     24  C   UNL     1      -2.301  -5.739  -0.841  0.00  0.00    +0.184 C 
BRANCH  24  25
ATOM     25  C   UNL     1      -1.278  -4.844  -1.490  0.00  0.00    +0.327 C 
ATOM     26  O   UNL     1      -0.167  -4.758  -1.023  0.00  0.00    -0.249 OA
BRANCH  25  27
ATOM     27  O   UNL     1      -1.600  -4.141  -2.587  0.00  0.00    -0.467 OA
ATOM     28  C   UNL     1      -0.581  -3.312  -3.150  0.00  0.00    +0.280 C 
ENDBRANCH  25  27
ENDBRANCH  24  25
BRANCH  24  29
ATOM     29  C   UNL     1      -2.755  -6.804  -1.842  0.00  0.00    +0.045 C 
BRANCH  29  30
ATOM     30  C   UNL     1      -3.883  -7.635  -1.227  0.00  0.00    +0.123 C 
BRANCH  30  31
ATOM     31  C   UNL     1      -4.330  -8.683  -2.212  0.00  0.00    +0.307 C 
ATOM     32  O   UNL     1      -3.801  -8.758  -3.296  0.00  0.00    -0.251 OA
BRANCH  31  34
ATOM     33  C   UNL     1      -5.689 -10.502  -2.869  0.00  0.00    +0.280 C 
ATOM     34  O   UNL     1      -5.316  -9.534  -1.887  0.00  0.00    -0.468 OA
ENDBRANCH  31  34
ENDBRANCH  30  31
ENDBRANCH  29  30
ENDBRANCH  24  29
ENDBRANCH   1  24
TORSDOF 8
