REMARK  Name = ZINC12529932
REMARK  8 active torsions:
REMARK  status: ('A' for Active; 'I' for Inactive)
REMARK    1  A    between atoms: C_1  and  N_51
REMARK    2  A    between atoms: C_3  and  N_21
REMARK    3  A    between atoms: C_6  and  C_8
REMARK    4  A    between atoms: C_10  and  C_13
REMARK    5  A    between atoms: C_16  and  O_19
REMARK    6  A    between atoms: O_19  and  C_20
REMARK    7  A    between atoms: N_21  and  S_22
REMARK    8  A    between atoms: S_22  and  C_25
REMARK                            x       y       z     vdW  Elec       q    Type
REMARK                         _______ _______ _______ _____ _____    ______ ____
ROOT
ATOM      1  C   UNL     1      -0.013   1.086   0.008  0.00  0.00    -0.095 C 
ATOM      2  C   UNL     1      -0.644   3.041   1.315  0.00  0.00    -0.058 C 
ATOM      3  C   UNL     1      -0.892   3.341   2.809  0.00  0.00    +0.059 C 
ATOM      4  C   UNL     1      -0.474   2.055   3.551  0.00  0.00    +0.012 C 
ATOM      5  C   UNL     1      -0.009   1.086   2.443  0.00  0.00    +0.023 C 
ATOM      6  N   UNL     1      -0.692   1.576   1.248  0.00  0.00    +0.387 N 
ATOM      7  H   UNL     1      -1.668   1.256   1.247  0.00  0.00    -0.081 HD
ENDROOT
BRANCH   5   8
ATOM      8  C   UNL     1      -0.425  -0.325   2.770  0.00  0.00    +0.214 A 
ATOM      9  N   UNL     1       0.363  -1.302   3.143  0.00  0.00    -0.193 NA
ATOM     10  C   UNL     1      -0.445  -2.371   3.325  0.00  0.00    +0.202 A 
ATOM     11  N   UNL     1      -1.665  -1.984   3.053  0.00  0.00    -0.056 NA
ATOM     12  O   UNL     1      -1.669  -0.813   2.738  0.00  0.00    -0.339 OA
BRANCH  10  13
ATOM     13  C   UNL     1      -0.027  -3.729   3.751  0.00  0.00    +0.023 A 
ATOM     14  C   UNL     1       1.317  -3.999   4.002  0.00  0.00    +0.015 A 
ATOM     15  C   UNL     1       1.703  -5.261   4.403  0.00  0.00    +0.046 A 
ATOM     16  C   UNL     1       0.754  -6.265   4.547  0.00  0.00    +0.120 A 
ATOM     17  C   UNL     1      -0.585  -6.000   4.293  0.00  0.00    +0.046 A 
ATOM     18  C   UNL     1      -0.977  -4.739   3.897  0.00  0.00    +0.015 A 
BRANCH  16  19
ATOM     19  O   UNL     1       1.137  -7.508   4.938  0.00  0.00    -0.495 OA
ATOM     20  C   UNL     1       2.531  -7.710   5.183  0.00  0.00    +0.277 C 
ENDBRANCH  16  19
ENDBRANCH  10  13
ENDBRANCH   5   8
BRANCH   3  21
ATOM     21  N   UNL     1      -2.309   3.627   3.045  0.00  0.00    -0.189 NA
ATOM     22  H   UNL     1      -2.943   2.897   3.129  0.00  0.00    +0.148 HD
BRANCH  21  23
ATOM     23  S   UNL     1      -2.829   5.194   3.167  0.00  0.00    +0.059 S 
ATOM     24  O   UNL     1      -4.235   5.141   3.365  0.00  0.00    -0.153 OA
ATOM     25  O   UNL     1      -1.955   5.842   4.080  0.00  0.00    -0.153 OA
BRANCH  23  26
ATOM     26  C   UNL     1      -2.570   5.952   1.597  0.00  0.00    +0.105 A 
ATOM     27  C   UNL     1      -1.374   6.591   1.328  0.00  0.00    +0.031 A 
ATOM     28  C   UNL     1      -1.167   7.182   0.096  0.00  0.00    +0.040 A 
ATOM     29  C   UNL     1      -2.163   7.142  -0.866  0.00  0.00    +0.124 A 
ATOM     30  C   UNL     1      -3.362   6.507  -0.593  0.00  0.00    +0.040 A 
ATOM     31  C   UNL     1      -3.565   5.913   0.638  0.00  0.00    +0.031 A 
ATOM     32  F   UNL     1      -1.964   7.724  -2.069  0.00  0.00    -0.205 F 
ENDBRANCH  23  26
ENDBRANCH  21  23
ENDBRANCH   3  21
TORSDOF 6
