REMARK  Name = ZINC28705173
REMARK  11 active torsions:
REMARK  status: ('A' for Active; 'I' for Inactive)
REMARK    1  A    between atoms: C_1  and  C_2
REMARK    2  A    between atoms: C_5  and  N_9
REMARK    3  A    between atoms: C_7  and  C_8
REMARK    4  A    between atoms: N_11  and  C_32
REMARK    5  A    between atoms: C_14  and  C_17
REMARK    6  A    between atoms: C_17  and  C_18
REMARK    7  A    between atoms: N_20  and  C_21
REMARK    8  A    between atoms: C_24  and  N_29
REMARK    9  A    between atoms: C_26  and  O_27
REMARK   10  A    between atoms: O_27  and  C_28
REMARK   11  A    between atoms: C_32  and  C_33
REMARK                            x       y       z     vdW  Elec       q    Type
REMARK                         _______ _______ _______ _____ _____    ______ ____
ROOT
ATOM      1  N   UNL     1       0.815   4.404   3.722  0.00  0.00    -0.226 NA
ATOM      2  C   UNL     1       0.370   3.386   3.024  0.00  0.00    +0.164 C 
ATOM      3  N   UNL     1       0.473   2.043   3.316  0.00  0.00    -0.246 N 
ATOM      4  C   UNL     1      -0.022   1.106   2.525  0.00  0.00    +0.235 C 
ATOM      5  O   UNL     1       0.071  -0.074   2.787  0.00  0.00    -0.274 OA
ATOM      6  C   UNL     1      -0.715   1.602   1.266  0.00  0.00    +0.149 C 
ATOM      7  S   UNL     1      -0.514   3.416   1.470  0.00  0.00    -0.077 S 
ENDROOT
BRANCH   1  12
ATOM      8  C   UNL     1       0.006   9.674   1.863  0.00  0.00    +0.044 C 
ATOM      9  C   UNL     1       0.222   8.267   2.359  0.00  0.00    -0.047 A 
ATOM     10  C   UNL     1       0.655   7.287   1.483  0.00  0.00    +0.006 A 
ATOM     11  C   UNL     1       0.854   5.997   1.931  0.00  0.00    +0.028 A 
ATOM     12  C   UNL     1       0.619   5.683   3.271  0.00  0.00    +0.067 A 
ATOM     13  C   UNL     1       0.177   6.675   4.147  0.00  0.00    +0.031 A 
ATOM     14  C   UNL     1      -0.014   7.962   3.688  0.00  0.00    -0.046 A 
ATOM     15  C   UNL     1      -0.485   9.036   4.633  0.00  0.00    +0.044 C 
ENDBRANCH   1  12
BRANCH   6  16
ATOM     16  C   UNL     1      -0.002   1.103   0.008  0.00  0.00    +0.120 C 
BRANCH  16  17
ATOM     17  C   UNL     1      -0.738   1.591  -1.213  0.00  0.00    +0.219 C 
ATOM     18  O   UNL     1      -1.734   2.272  -1.089  0.00  0.00    -0.275 OA
ATOM     19  N   UNL     1      -0.288   1.272  -2.443  0.00  0.00    -0.283 N 
ATOM     20  H   UNL     1       0.655   0.718  -2.557  0.00  0.00    +0.155 HD
BRANCH  19  21
ATOM     21  C   UNL     1      -1.023   1.647  -3.576  0.00  0.00    +0.076 A 
ATOM     22  C   UNL     1      -1.723   2.844  -3.587  0.00  0.00    +0.029 A 
ATOM     23  C   UNL     1      -2.446   3.212  -4.706  0.00  0.00    +0.035 A 
ATOM     24  C   UNL     1      -2.474   2.389  -5.816  0.00  0.00    +0.130 A 
ATOM     25  C   UNL     1      -1.778   1.194  -5.813  0.00  0.00    +0.080 A 
ATOM     26  C   UNL     1      -1.046   0.821  -4.697  0.00  0.00    +0.143 A 
BRANCH  24  27
ATOM     27  N   UNL     1      -3.250   2.788  -7.012  0.00  0.00    +0.057 N 
ATOM     28  O   UNL     1      -3.864   3.840  -7.016  0.00  0.00    -0.126 OA
ATOM     29  O   UNL     1      -3.276   2.063  -7.991  0.00  0.00    -0.126 OA
ENDBRANCH  24  27
BRANCH  26  30
ATOM     30  O   UNL     1      -0.357  -0.351  -4.695  0.00  0.00    -0.493 OA
ATOM     31  C   UNL     1      -0.427  -1.148  -5.880  0.00  0.00    +0.277 C 
ENDBRANCH  26  30
ENDBRANCH  19  21
ENDBRANCH  16  17
ENDBRANCH   6  16
BRANCH   3  32
ATOM     32  C   UNL     1       1.155   1.639   4.548  0.00  0.00    +0.142 C 
BRANCH  32  33
ATOM     33  C   UNL     1       2.623   1.441   4.268  0.00  0.00    -0.015 C 
ATOM     34  C   UNL     1       3.517   2.088   4.974  0.00  0.00    +0.005 C 
ENDBRANCH  32  33
ENDBRANCH   3  32
TORSDOF 8
