REMARK  Name = ZINC03331222
REMARK  13 active torsions:
REMARK  status: ('A' for Active; 'I' for Inactive)
REMARK    1  A    between atoms: C_1  and  C_2
REMARK    2  A    between atoms: C_2  and  C_3
REMARK    3  A    between atoms: C_2  and  N_4
REMARK    4  A    between atoms: N_4  and  C_5
REMARK    5  A    between atoms: N_4  and  C_31
REMARK    6  A    between atoms: C_5  and  C_6
REMARK    7  A    between atoms: C_6  and  N_7
REMARK    8  A    between atoms: C_11  and  C_12
REMARK    9  A    between atoms: C_15  and  O_18
REMARK   10  A    between atoms: O_18  and  C_19
REMARK   11  A    between atoms: N_24  and  C_25
REMARK   12  A    between atoms: C_31  and  C_32
REMARK   13  A    between atoms: C_31  and  C_33
REMARK                            x       y       z     vdW  Elec       q    Type
REMARK                         _______ _______ _______ _____ _____    ______ ____
ROOT
ATOM      1  N   UNL     1      -3.062   1.998  -2.235  0.00  0.00    -0.248 N 
ATOM      2  C   UNL     1      -2.459   2.254  -3.384  0.00  0.00    +0.259 C 
ATOM      3  O   UNL     1      -1.260   2.098  -3.522  0.00  0.00    -0.269 OA
ATOM      4  C   UNL     1      -3.306   2.738  -4.490  0.00  0.00    +0.078 C 
ATOM      5  C   UNL     1      -2.958   3.073  -5.759  0.00  0.00    +0.028 C 
ATOM      6  S   UNL     1      -4.915   2.763  -3.713  0.00  0.00    -0.049 S 
ATOM      7  C   UNL     1      -4.422   2.175  -2.101  0.00  0.00    +0.168 C 
ATOM      8  N   UNL     1      -5.172   1.965  -1.043  0.00  0.00    -0.225 NA
ENDROOT
BRANCH   5   9
ATOM      9  C   UNL     1      -3.972   3.588  -6.687  0.00  0.00    -0.024 A 
ATOM     10  C   UNL     1      -3.592   4.403  -7.762  0.00  0.00    +0.011 A 
ATOM     11  C   UNL     1      -4.548   4.882  -8.629  0.00  0.00    +0.046 A 
ATOM     12  C   UNL     1      -5.886   4.560  -8.440  0.00  0.00    +0.127 A 
ATOM     13  C   UNL     1      -6.269   3.753  -7.375  0.00  0.00    +0.046 A 
ATOM     14  C   UNL     1      -5.322   3.263  -6.505  0.00  0.00    +0.011 A 
BRANCH  12  15
ATOM     15  O   UNL     1      -6.824   5.036  -9.299  0.00  0.00    -0.434 OA
BRANCH  15  16
ATOM     16  C   UNL     1      -8.182   4.667  -9.047  0.00  0.00    +0.541 C 
ATOM     17  F   UNL     1      -8.302   3.274  -9.094  0.00  0.00    -0.166 F 
ATOM     18  F   UNL     1      -8.563   5.127  -7.782  0.00  0.00    -0.166 F 
ENDBRANCH  15  16
ENDBRANCH  12  15
ENDBRANCH   5   9
BRANCH   8  19
ATOM     19  C   UNL     1      -6.519   2.201  -1.101  0.00  0.00    +0.067 A 
ATOM     20  C   UNL     1      -7.002   3.367  -1.699  0.00  0.00    +0.028 A 
ATOM     21  C   UNL     1      -8.360   3.598  -1.755  0.00  0.00    +0.002 A 
ATOM     22  C   UNL     1      -9.245   2.678  -1.221  0.00  0.00    +0.000 A 
ATOM     23  C   UNL     1      -8.774   1.520  -0.627  0.00  0.00    +0.002 A 
ATOM     24  C   UNL     1      -7.418   1.273  -0.569  0.00  0.00    +0.028 A 
ENDBRANCH   8  19
BRANCH   1  25
ATOM     25  C   UNL     1      -2.277   1.514  -1.096  0.00  0.00    +0.097 C 
BRANCH  25  26
ATOM     26  C   UNL     1      -2.224  -0.015  -1.126  0.00  0.00    -0.058 C 
BRANCH  26  27
ATOM     27  N   UNL     1      -1.572  -0.505   0.096  0.00  0.00    +0.384 N 
ATOM     28  H   UNL     1      -2.034  -0.116   0.903  0.00  0.00    -0.081 HD
BRANCH  27  30
ATOM     29  C   UNL     1       0.335   0.024  -1.347  0.00  0.00    -0.014 C 
ATOM     30  C   UNL     1      -0.161  -0.098   0.095  0.00  0.00    -0.074 C 
ATOM     31  C   UNL     1      -0.020   1.253   0.799  0.00  0.00    -0.014 C 
ENDBRANCH  27  30
BRANCH  27  32
ATOM     32  C   UNL     1      -1.658  -1.971   0.141  0.00  0.00    -0.074 C 
ATOM     33  C   UNL     1      -1.091  -2.474   1.470  0.00  0.00    -0.014 C 
ATOM     34  C   UNL     1      -3.122  -2.400   0.016  0.00  0.00    -0.014 C 
ENDBRANCH  27  32
ENDBRANCH  26  27
ENDBRANCH  25  26
ENDBRANCH   1  25
TORSDOF 9
