REMARK  Name = ZINC36017264
REMARK  10 active torsions:
REMARK  status: ('A' for Active; 'I' for Inactive)
REMARK    1  A    between atoms: C_1  and  C_2
REMARK    2  A    between atoms: C_2  and  N_3
REMARK    3  A    between atoms: C_4  and  C_24
REMARK    4  A    between atoms: C_5  and  C_19
REMARK    5  A    between atoms: C_6  and  C_11
REMARK    6  A    between atoms: C_19  and  O_21
REMARK    7  A    between atoms: O_21  and  C_22
REMARK    8  A    between atoms: C_22  and  C_23
REMARK    9  A    between atoms: C_24  and  N_25
REMARK   10  A    between atoms: C_32  and  C_34
REMARK                            x       y       z     vdW  Elec       q    Type
REMARK                         _______ _______ _______ _____ _____    ______ ____
ROOT
ATOM      1  N   UNL     1       0.620  -0.243   1.142  0.00  0.00    -0.261 N 
ATOM      2  C   UNL     1       1.909  -0.662   0.973  0.00  0.00    +0.010 C 
ATOM      3  C   UNL     1       2.524  -1.419   1.908  0.00  0.00    +0.077 C 
ATOM      4  C   UNL     1       1.736  -1.785   3.149  0.00  0.00    +0.145 C 
ATOM      5  N   UNL     1       0.354  -1.283   3.234  0.00  0.00    -0.288 N 
ATOM      6  C   UNL     1      -0.120  -0.533   2.220  0.00  0.00    +0.307 C 
ATOM      7  O   UNL     1      -1.258  -0.110   2.283  0.00  0.00    -0.252 OA
ATOM      8  H   UNL     1      -0.201  -1.484   4.004  0.00  0.00    +0.151 HD
ENDROOT
BRANCH   4   9
ATOM      9  C   UNL     1       1.689  -3.289   3.242  0.00  0.00    -0.003 A 
ATOM     10  C   UNL     1       1.972  -4.059   2.130  0.00  0.00    +0.007 A 
ATOM     11  C   UNL     1       1.930  -5.439   2.215  0.00  0.00    +0.002 A 
ATOM     12  C   UNL     1       1.604  -6.048   3.412  0.00  0.00    +0.021 A 
ATOM     13  C   UNL     1       1.320  -5.279   4.526  0.00  0.00    +0.060 A 
ATOM     14  C   UNL     1       1.369  -3.897   4.442  0.00  0.00    +0.064 A 
ATOM     15 CL   UNL     1       1.020  -2.930   5.841  0.00  0.00    -0.082 Cl
ATOM     16 CL   UNL     1       0.910  -6.044   6.029  0.00  0.00    -0.082 Cl
ENDBRANCH   4   9
BRANCH   1  18
ATOM     17  C   UNL     1       0.230   2.056   0.406  0.00  0.00    +0.025 C 
ATOM     18  C   UNL     1       0.015   0.575   0.088  0.00  0.00    +0.111 C 
ENDBRANCH   1  18
BRANCH   3  19
ATOM     19  C   UNL     1       3.858  -1.854   1.734  0.00  0.00    +0.339 C 
ATOM     20  O   UNL     1       4.477  -1.535   0.736  0.00  0.00    -0.245 OA
BRANCH  19  21
ATOM     21  O   UNL     1       4.445  -2.624   2.674  0.00  0.00    -0.462 OA
BRANCH  21  22
ATOM     22  C   UNL     1       5.794  -3.027   2.433  0.00  0.00    +0.229 C 
ATOM     23  C   UNL     1       6.286  -3.887   3.600  0.00  0.00    +0.048 C 
ENDBRANCH  21  22
ENDBRANCH  19  21
ENDBRANCH   3  19
BRANCH   2  24
ATOM     24  C   UNL     1       2.657  -0.275  -0.276  0.00  0.00    -0.026 C 
BRANCH  24  25
ATOM     25  N   UNL     1       2.646  -1.399  -1.222  0.00  0.00    +0.384 N 
ATOM     26  C   UNL     1       3.607  -1.116  -2.286  0.00  0.00    -0.077 C 
ATOM     27  C   UNL     1       4.155  -2.419  -2.823  0.00  0.00    +0.000 C 
ATOM     28  C   UNL     1       3.323  -2.863  -4.039  0.00  0.00    +0.106 C 
ATOM     29  N   UNL     1       1.885  -2.604  -3.822  0.00  0.00    -0.303 N 
ATOM     30  C   UNL     1       1.235  -2.860  -2.553  0.00  0.00    +0.089 C 
ATOM     31  C   UNL     1       1.318  -1.602  -1.658  0.00  0.00    -0.059 C 
ATOM     32  C   UNL     1       1.152  -2.113  -4.840  0.00  0.00    +0.219 C 
ATOM     33  O   UNL     1      -0.031  -1.893  -4.685  0.00  0.00    -0.275 OA
ATOM     34  H   UNL     1       2.950  -2.227  -0.733  0.00  0.00    -0.081 HD
BRANCH  32  35
ATOM     35  C   UNL     1       1.801  -1.837  -6.171  0.00  0.00    +0.075 C 
ATOM     36  C   UNL     1       1.940  -0.374  -6.600  0.00  0.00    +0.013 C 
ATOM     37  C   UNL     1       0.915  -1.279  -7.287  0.00  0.00    +0.013 C 
ENDBRANCH  32  35
ENDBRANCH  24  25
ENDBRANCH   2  24
TORSDOF 8
