REMARK  Name = ZINC42014785
REMARK  5 active torsions:
REMARK  status: ('A' for Active; 'I' for Inactive)
REMARK    1  A    between atoms: C_1  and  C_2
REMARK    2  A    between atoms: C_3  and  N_21
REMARK    3  A    between atoms: C_5  and  C_9
REMARK    4  A    between atoms: N_13  and  C_14
REMARK    5  A    between atoms: C_14  and  C_15
REMARK                            x       y       z     vdW  Elec       q    Type
REMARK                         _______ _______ _______ _____ _____    ______ ____
ROOT
ATOM      1  C   UNL     1      -0.145   1.500   0.058  0.00  0.00    +0.048 C 
ATOM      2  C   UNL     1      -0.097  -0.007   0.039  0.00  0.00    +0.005 A 
ATOM      3  C   UNL     1      -0.087  -0.685  -1.174  0.00  0.00    +0.031 A 
ATOM      4  C   UNL     1      -0.042  -2.071  -1.194  0.00  0.00    +0.034 A 
ATOM      5  C   UNL     1      -0.008  -2.780   0.005  0.00  0.00    +0.025 A 
ATOM      6  C   UNL     1      -0.018  -2.093   1.219  0.00  0.00    +0.050 A 
ATOM      7  C   UNL     1      -0.057  -0.711   1.230  0.00  0.00    +0.129 A 
ATOM      8  F   UNL     1      -0.061  -0.046   2.406  0.00  0.00    -0.205 F 
ENDROOT
BRANCH   5   9
ATOM      9  C   UNL     1       0.039  -4.260  -0.009  0.00  0.00    +0.182 A 
ATOM     10  N   UNL     1      -0.304  -5.044  -1.009  0.00  0.00    -0.108 NA
ATOM     11  N   UNL     1      -0.142  -6.277  -0.690  0.00  0.00    -0.023 NA
ATOM     12  N   UNL     1       0.307  -6.374   0.515  0.00  0.00    -0.044 NA
ATOM     13  N   UNL     1       0.448  -5.063   1.004  0.00  0.00    -0.223 N 
BRANCH  13  14
ATOM     14  C   UNL     1       0.930  -4.654   2.325  0.00  0.00    +0.179 C 
BRANCH  14  15
ATOM     15  C   UNL     1      -0.236  -4.651   3.316  0.00  0.00    +0.140 C 
ATOM     16  C   UNL     1       0.237  -4.106   4.680  0.00  0.00    +0.035 C 
ATOM     17  C   UNL     1      -0.514  -5.025   5.681  0.00  0.00    +0.031 C 
ATOM     18  C   UNL     1      -0.528  -6.362   4.899  0.00  0.00    +0.160 C 
ATOM     19  O   UNL     1      -0.702  -5.990   3.521  0.00  0.00    -0.375 OA
ENDBRANCH  14  15
ENDBRANCH  13  14
ENDBRANCH   5   9
BRANCH   3  20
ATOM     20  N   UNL     1      -0.121   0.030  -2.374  0.00  0.00    -0.358 N 
ATOM     21  H   UNL     1      -0.153   0.999  -2.360  0.00  0.00    +0.142 HD
ATOM     22  H   UNL     1      -0.114  -0.443  -3.221  0.00  0.00    +0.142 HD
ENDBRANCH   3  20
TORSDOF 4
