REMARK  Name = ZINC38655578
REMARK  11 active torsions:
REMARK  status: ('A' for Active; 'I' for Inactive)
REMARK    1  A    between atoms: C_1  and  C_2
REMARK    2  A    between atoms: C_2  and  C_3
REMARK    3  A    between atoms: C_6  and  O_9
REMARK    4  A    between atoms: O_9  and  C_10
REMARK    5  A    between atoms: C_10  and  C_12
REMARK    6  A    between atoms: C_10  and  C_13
REMARK    7  A    between atoms: C_13  and  O_15
REMARK    8  A    between atoms: O_15  and  C_16
REMARK    9  A    between atoms: C_23  and  N_37
REMARK   10  A    between atoms: C_24  and  C_35
REMARK   11  A    between atoms: C_25  and  C_27
REMARK                            x       y       z     vdW  Elec       q    Type
REMARK                         _______ _______ _______ _____ _____    ______ ____
ROOT
ATOM      1  C   UNL     1       6.099  -1.568  -7.522  0.00  0.00    +0.135 A 
ATOM      2  C   UNL     1       5.111  -1.320  -8.465  0.00  0.00    +0.047 A 
ATOM      3  C   UNL     1       5.458  -1.041  -9.772  0.00  0.00    +0.012 A 
ATOM      4  C   UNL     1       6.790  -1.008 -10.148  0.00  0.00    +0.008 A 
ATOM      5  C   UNL     1       7.781  -1.254  -9.210  0.00  0.00    +0.138 A 
ATOM      6  C   UNL     1       7.433  -1.529  -7.894  0.00  0.00    +0.093 A 
ATOM      7  O   UNL     1       9.091  -1.226  -9.559  0.00  0.00    -0.441 OA
ATOM      8  C   UNL     1       9.443  -1.342 -10.851  0.00  0.00    +0.199 C 
ATOM      9  C   UNL     1       8.568  -1.108 -11.856  0.00  0.00    +0.098 C 
ATOM     10  C   UNL     1       7.148  -0.701 -11.578  0.00  0.00    +0.099 C 
ENDROOT
BRANCH  10  11
ATOM     11  C   UNL     1       6.994   0.778 -11.825  0.00  0.00    -0.016 A 
ATOM     12  C   UNL     1       7.743   1.682 -11.095  0.00  0.00    +0.007 A 
ATOM     13  C   UNL     1       7.603   3.038 -11.321  0.00  0.00    +0.020 A 
ATOM     14  C   UNL     1       6.713   3.492 -12.279  0.00  0.00    +0.042 A 
ATOM     15  C   UNL     1       5.964   2.587 -13.010  0.00  0.00    +0.040 A 
ATOM     16  C   UNL     1       6.108   1.230 -12.786  0.00  0.00    +0.046 A 
ATOM     17 CL   UNL     1       5.173   0.094 -13.707  0.00  0.00    -0.083 Cl
ATOM     18 CL   UNL     1       6.537   5.195 -12.562  0.00  0.00    -0.083 Cl
ENDBRANCH  10  11
BRANCH   8  19
ATOM     19  N   UNL     1      10.729  -1.710 -11.159  0.00  0.00    -0.328 N 
ATOM     20  H   UNL     1      11.368  -1.881 -10.450  0.00  0.00    +0.145 HD
ATOM     21  H   UNL     1      10.999  -1.799 -12.087  0.00  0.00    +0.145 HD
ENDBRANCH   8  19
BRANCH   9  22
ATOM     22  C   UNL     1       9.003  -1.249 -13.213  0.00  0.00    +0.101 C 
ATOM     23  N   UNL     1       9.349  -1.361 -14.289  0.00  0.00    -0.191 NA
ENDBRANCH   9  22
BRANCH   1  24
ATOM     24  O   UNL     1       5.759  -1.843  -6.236  0.00  0.00    -0.423 OA
BRANCH  24  25
ATOM     25  C   UNL     1       5.098  -2.985  -5.989  0.00  0.00    +0.353 C 
ATOM     26  O   UNL     1       4.904  -3.776  -6.881  0.00  0.00    -0.246 OA
BRANCH  25  27
ATOM     27  C   UNL     1       4.596  -3.280  -4.599  0.00  0.00    +0.279 C 
ATOM     28  C   UNL     1       5.778  -3.321  -3.628  0.00  0.00    +0.064 C 
BRANCH  27  29
ATOM     29  O   UNL     1       3.930  -4.545  -4.591  0.00  0.00    -0.478 OA
BRANCH  29  33
ATOM     30  C   UNL     1       0.717  -4.953  -2.035  0.00  0.00    -0.047 A 
ATOM     31  C   UNL     1       1.486  -3.804  -2.000  0.00  0.00    +0.007 A 
ATOM     32  C   UNL     1       2.562  -3.665  -2.855  0.00  0.00    +0.046 A 
ATOM     33  C   UNL     1       2.872  -4.679  -3.749  0.00  0.00    +0.122 A 
ATOM     34  C   UNL     1       2.100  -5.831  -3.782  0.00  0.00    +0.046 A 
ATOM     35  C   UNL     1       1.028  -5.968  -2.922  0.00  0.00    +0.007 A 
BRANCH  30  37
ATOM     36  C   UNL     1       0.008  -5.752   0.202  0.00  0.00    +0.009 C 
ATOM     37  C   UNL     1      -0.457  -5.102  -1.102  0.00  0.00    +0.032 C 
ENDBRANCH  30  37
ENDBRANCH  29  33
ENDBRANCH  27  29
ENDBRANCH  25  27
ENDBRANCH  24  25
ENDBRANCH   1  24
TORSDOF 9
