REMARK  Name = ZINC14801629
REMARK  7 active torsions:
REMARK  status: ('A' for Active; 'I' for Inactive)
REMARK    1  A    between atoms: C_4  and  C_7
REMARK    2  A    between atoms: C_7  and  N_8
REMARK    3  A    between atoms: N_8  and  C_9
REMARK    4  A    between atoms: C_9  and  C_10
REMARK    5  A    between atoms: C_22  and  C_24
REMARK    6  A    between atoms: C_25  and  C_26
REMARK    7  A    between atoms: C_31  and  N_32
REMARK                            x       y       z     vdW  Elec       q    Type
REMARK                         _______ _______ _______ _____ _____    ______ ____
ROOT
ATOM      1  N   UNL     1      -2.947  -2.525   0.474  0.00  0.00    -0.286 N 
ATOM      2  C   UNL     1      -1.723  -1.983   0.316  0.00  0.00    +0.240 C 
ATOM      3  O   UNL     1      -0.748  -2.703   0.211  0.00  0.00    -0.271 OA
ENDROOT
BRANCH   2   4
ATOM      4  C   UNL     1      -1.568  -0.529   0.269  0.00  0.00    +0.068 C 
ATOM      5  C   UNL     1      -0.342   0.013   0.110  0.00  0.00    +0.015 C 
BRANCH   5   6
ATOM      6  C   UNL     1      -0.185   1.474   0.063  0.00  0.00    +0.009 A 
ATOM      7  C   UNL     1      -1.296   2.292  -0.177  0.00  0.00    +0.059 A 
ATOM      8  C   UNL     1      -1.145   3.664  -0.215  0.00  0.00    +0.167 A 
ATOM      9  C   UNL     1       0.116   4.233  -0.026  0.00  0.00    +0.168 A 
ATOM     10  C   UNL     1       1.219   3.421   0.206  0.00  0.00    +0.082 A 
ATOM     11  C   UNL     1       1.075   2.052   0.251  0.00  0.00    +0.137 A 
ATOM     12  O   UNL     1      -0.001   5.589  -0.116  0.00  0.00    -0.453 OA
ATOM     13  C   UNL     1      -1.264   5.824  -0.767  0.00  0.00    +0.466 C 
ATOM     14  O   UNL     1      -2.048   4.667  -0.423  0.00  0.00    -0.453 OA
BRANCH  11  15
ATOM     15  N   UNL     1       2.254   1.191   0.500  0.00  0.00    +0.057 N 
ATOM     16  O   UNL     1       3.324   1.694   0.792  0.00  0.00    -0.126 OA
ATOM     17  O   UNL     1       2.153  -0.019   0.412  0.00  0.00    -0.126 OA
ENDBRANCH  11  15
ENDBRANCH   5   6
ENDBRANCH   2   4
BRANCH   1  18
ATOM     18  C   UNL     1      -4.121  -1.658   0.600  0.00  0.00    +0.143 C 
BRANCH  18  22
ATOM     19  C   UNL     1      -5.747  -0.892  -3.275  0.00  0.00    +0.000 A 
ATOM     20  C   UNL     1      -6.186  -1.981  -2.545  0.00  0.00    +0.000 A 
ATOM     21  C   UNL     1      -5.659  -2.229  -1.291  0.00  0.00    +0.005 A 
ATOM     22  C   UNL     1      -4.695  -1.388  -0.767  0.00  0.00    -0.030 A 
ATOM     23  C   UNL     1      -4.261  -0.296  -1.495  0.00  0.00    +0.005 A 
ATOM     24  C   UNL     1      -4.783  -0.051  -2.752  0.00  0.00    +0.000 A 
ENDBRANCH  18  22
ENDBRANCH   1  18
BRANCH   1  25
ATOM     25  C   UNL     1      -3.103  -3.981   0.521  0.00  0.00    +0.182 C 
BRANCH  25  26
ATOM     26  C   UNL     1      -2.986  -4.453   1.948  0.00  0.00    +0.128 A 
ATOM     27  N   UNL     1      -3.103  -5.783   2.198  0.00  0.00    -0.309 N 
ATOM     28  H   UNL     1      -3.259  -6.398   1.464  0.00  0.00    +0.170 HD
ATOM     29  C   UNL     1      -3.005  -6.257   3.462  0.00  0.00    +0.259 A 
ATOM     30  O   UNL     1      -3.108  -7.447   3.700  0.00  0.00    -0.267 OA
ATOM     31  C   UNL     1      -2.768  -5.280   4.535  0.00  0.00    +0.065 A 
ATOM     32  C   UNL     1      -2.651  -5.665   5.869  0.00  0.00    +0.015 A 
ATOM     33  C   UNL     1      -2.429  -4.708   6.835  0.00  0.00    +0.001 A 
ATOM     34  C   UNL     1      -2.321  -3.367   6.488  0.00  0.00    +0.002 A 
ATOM     35  C   UNL     1      -2.434  -2.966   5.176  0.00  0.00    +0.028 A 
ATOM     36  C   UNL     1      -2.660  -3.918   4.179  0.00  0.00    +0.078 A 
ATOM     37  N   UNL     1      -2.772  -3.568   2.874  0.00  0.00    -0.232 NA
ENDBRANCH  25  26
ENDBRANCH   1  25
TORSDOF 7
