REMARK  Name = ZINC67373684
REMARK  5 active torsions:
REMARK  status: ('A' for Active; 'I' for Inactive)
REMARK    1  A    between atoms: C_4  and  N_23
REMARK    2  A    between atoms: C_5  and  N_7
REMARK    3  A    between atoms: C_10  and  C_13
REMARK    4  A    between atoms: C_13  and  C_15
REMARK    5  A    between atoms: C_13  and  O_22
REMARK                            x       y       z     vdW  Elec       q    Type
REMARK                         _______ _______ _______ _____ _____    ______ ____
ROOT
ATOM      1  N   UNL     1       1.238  -2.077  -0.021  0.00  0.00    -0.328 N 
ATOM      2  C   UNL     1       1.256  -2.833   1.239  0.00  0.00    +0.105 C 
ATOM      3  C   UNL     1       0.105  -3.843   1.224  0.00  0.00    +0.025 C 
ATOM      4  C   UNL     1       0.209  -4.712  -0.031  0.00  0.00    +0.025 C 
ATOM      5  C   UNL     1       0.093  -3.829  -1.276  0.00  0.00    +0.025 C 
ATOM      6  C   UNL     1       1.238  -2.818  -1.290  0.00  0.00    +0.105 C 
ENDROOT
BRANCH   1  11
ATOM      7  C   UNL     1      -0.017   1.377   0.010  0.00  0.00    +0.002 A 
ATOM      8  C   UNL     1       1.171   2.086   0.002  0.00  0.00    +0.002 A 
ATOM      9  C   UNL     1       2.380   1.416  -0.013  0.00  0.00    +0.034 A 
ATOM     10  C   UNL     1       2.406   0.035  -0.021  0.00  0.00    +0.147 A 
ATOM     11  C   UNL     1       1.215  -0.681  -0.013  0.00  0.00    +0.060 A 
ATOM     12  C   UNL     1       0.002  -0.004   0.002  0.00  0.00    +0.025 A 
BRANCH  10  13
ATOM     13  N   UNL     1       3.701  -0.682  -0.037  0.00  0.00    +0.058 N 
ATOM     14  O   UNL     1       4.737  -0.058  -0.044  0.00  0.00    -0.126 OA
ATOM     15  O   UNL     1       3.723  -1.891  -0.044  0.00  0.00    -0.126 OA
ENDBRANCH  10  13
ENDBRANCH   1  11
BRANCH   4  16
ATOM     16  C   UNL     1      -0.919  -5.745  -0.032  0.00  0.00    +0.148 C 
BRANCH  16  17
ATOM     17  C   UNL     1      -0.816  -6.601  -1.268  0.00  0.00    -0.019 A 
ATOM     18  C   UNL     1       0.011  -7.708  -1.275  0.00  0.00    +0.007 A 
ATOM     19  C   UNL     1       0.106  -8.493  -2.409  0.00  0.00    +0.020 A 
ATOM     20  C   UNL     1      -0.628  -8.171  -3.537  0.00  0.00    +0.041 A 
ATOM     21  C   UNL     1      -1.456  -7.062  -3.529  0.00  0.00    +0.020 A 
ATOM     22  C   UNL     1      -1.554  -6.281  -2.393  0.00  0.00    +0.007 A 
ATOM     23 CL   UNL     1      -0.509  -9.156  -4.961  0.00  0.00    -0.084 Cl
ENDBRANCH  16  17
BRANCH  16  24
ATOM     24  O   UNL     1      -0.809  -6.571   1.129  0.00  0.00    -0.387 OA
ATOM     25  H   UNL     1       0.024  -7.058   1.188  0.00  0.00    +0.210 HD
ENDBRANCH  16  24
ENDBRANCH   4  16
TORSDOF 5
