REMARK  Name = ZINC12876108
REMARK  9 active torsions:
REMARK  status: ('A' for Active; 'I' for Inactive)
REMARK    1  A    between atoms: C_1  and  C_2
REMARK    2  A    between atoms: C_4  and  C_36
REMARK    3  A    between atoms: C_13  and  C_15
REMARK    4  A    between atoms: C_15  and  C_17
REMARK    5  A    between atoms: C_15  and  O_18
REMARK    6  A    between atoms: N_21  and  C_24
REMARK    7  A    between atoms: C_24  and  C_25
REMARK    8  A    between atoms: C_30  and  O_31
REMARK    9  A    between atoms: O_31  and  C_32
REMARK                            x       y       z     vdW  Elec       q    Type
REMARK                         _______ _______ _______ _____ _____    ______ ____
ROOT
ATOM      1  C   UNL     1       5.453   2.818  -0.026  0.00  0.00    +0.044 C 
ATOM      2  C   UNL     1       3.982   2.490  -0.018  0.00  0.00    -0.050 A 
ATOM      3  C   UNL     1       3.045   3.507  -0.005  0.00  0.00    +0.008 A 
ATOM      4  C   UNL     1       1.698   3.213   0.004  0.00  0.00    -0.029 A 
ATOM      5  C   UNL     1       1.270   1.887   0.000  0.00  0.00    +0.039 A 
ATOM      6  C   UNL     1       2.222   0.872  -0.016  0.00  0.00    -0.027 A 
ATOM      7  C   UNL     1       3.566   1.171  -0.024  0.00  0.00    +0.008 A 
ATOM      8  C   UNL     1       1.448  -0.416  -0.019  0.00  0.00    +0.050 C 
ATOM      9  C   UNL     1       1.772  -1.263  -1.256  0.00  0.00    +0.088 C 
ATOM     10  C   UNL     1       2.821  -2.295  -0.759  0.00  0.00    +0.075 C 
ATOM     11  C   UNL     1       3.032  -1.960   0.733  0.00  0.00    -0.028 C 
ATOM     12  C   UNL     1       2.095  -3.616  -0.877  0.00  0.00    +0.224 C 
ATOM     13  O   UNL     1       2.556  -4.698  -0.581  0.00  0.00    -0.275 OA
ATOM     14  N   UNL     1       0.865  -3.405  -1.358  0.00  0.00    -0.237 N 
ATOM     15  C   UNL     1       0.578  -2.122  -1.608  0.00  0.00    +0.225 C 
ATOM     16  O   UNL     1      -0.474  -1.712  -2.048  0.00  0.00    -0.275 OA
ATOM     17  C   UNL     1       0.002  -0.004   0.002  0.00  0.00    +0.211 C 
ATOM     18  O   UNL     1      -0.961  -0.742   0.011  0.00  0.00    -0.277 OA
ATOM     19  N   UNL     1      -0.016   1.343   0.009  0.00  0.00    -0.286 N 
ATOM     20  C   UNL     1       0.685   4.329   0.018  0.00  0.00    +0.045 C 
ATOM     21  H   UNL     1      -0.828   1.873   0.016  0.00  0.00    +0.155 HD
ATOM     22  N   UNL     1       1.808  -1.252   1.113  0.00  0.00    +0.396 N 
ATOM     23  H   UNL     1       1.056  -1.923   1.311  0.00  0.00    -0.083 HD
ATOM     24  H   UNL     1       1.976  -0.672   1.943  0.00  0.00    -0.083 HD
ENDROOT
BRANCH  11  25
ATOM     25  C   UNL     1       3.210  -3.243   1.547  0.00  0.00    +0.098 C 
ATOM     26  C   UNL     1       3.417  -2.888   3.020  0.00  0.00    +0.036 C 
BRANCH  25  27
ATOM     27  O   UNL     1       4.350  -3.959   1.065  0.00  0.00    -0.394 OA
ATOM     28  H   UNL     1       5.179  -3.465   1.125  0.00  0.00    +0.210 HD
ENDBRANCH  25  27
ENDBRANCH  11  25
BRANCH  14  29
ATOM     29  C   UNL     1      -0.092  -4.490  -1.591  0.00  0.00    +0.155 C 
BRANCH  29  30
ATOM     30  C   UNL     1      -0.912  -4.712  -0.346  0.00  0.00    +0.012 A 
ATOM     31  C   UNL     1      -0.603  -5.752   0.509  0.00  0.00    +0.009 A 
ATOM     32  C   UNL     1      -1.351  -5.953   1.654  0.00  0.00    +0.001 A 
ATOM     33  C   UNL     1      -2.419  -5.122   1.939  0.00  0.00    +0.004 A 
ATOM     34  C   UNL     1      -2.736  -4.085   1.084  0.00  0.00    +0.046 A 
ATOM     35  C   UNL     1      -1.982  -3.877  -0.062  0.00  0.00    +0.125 A 
BRANCH  35  36
ATOM     36  O   UNL     1      -2.292  -2.857  -0.905  0.00  0.00    -0.495 OA
ATOM     37  C   UNL     1      -3.407  -2.037  -0.549  0.00  0.00    +0.277 C 
ENDBRANCH  35  36
ENDBRANCH  29  30
ENDBRANCH  14  29
TORSDOF 5
