REMARK  Name = ZINC37362721
REMARK  3 active torsions:
REMARK  status: ('A' for Active; 'I' for Inactive)
REMARK    1  A    between atoms: C_6  and  C_7
REMARK    2  A    between atoms: C_7  and  N_8
REMARK    3  A    between atoms: N_8  and  C_9
REMARK                            x       y       z     vdW  Elec       q    Type
REMARK                         _______ _______ _______ _____ _____    ______ ____
ROOT
ATOM      1  N   UNL     1      -1.729  -1.021  -1.361  0.00  0.00    -0.340 N 
ATOM      2  H   UNL     1      -1.198  -0.694  -2.104  0.00  0.00    +0.146 HD
ENDROOT
BRANCH   1   3
ATOM      3  C   UNL     1      -2.912  -1.726  -1.605  0.00  0.00    +0.029 A 
ATOM      4  C   UNL     1      -3.675  -2.190  -0.539  0.00  0.00    +0.025 A 
ATOM      5  C   UNL     1      -4.845  -2.886  -0.773  0.00  0.00    +0.029 A 
ATOM      6  C   UNL     1      -5.260  -3.123  -2.074  0.00  0.00    +0.067 A 
ATOM      7  C   UNL     1      -4.496  -2.659  -3.147  0.00  0.00    +0.069 A 
ATOM      8  C   UNL     1      -3.325  -1.956  -2.909  0.00  0.00    +0.050 A 
ATOM      9  N   UNL     1      -5.159  -3.045  -4.310  0.00  0.00    -0.306 N 
ATOM     10  H   UNL     1      -4.865  -2.863  -5.216  0.00  0.00    +0.170 HD
ATOM     11  C   UNL     1      -6.274  -3.713  -3.962  0.00  0.00    +0.325 A 
ATOM     12  O   UNL     1      -7.079  -4.187  -4.743  0.00  0.00    -0.247 OA
ATOM     13  N   UNL     1      -6.365  -3.778  -2.620  0.00  0.00    -0.306 N 
ATOM     14  H   UNL     1      -7.076  -4.207  -2.119  0.00  0.00    +0.170 HD
ENDBRANCH   1   3
BRANCH   1  15
ATOM     15  C   UNL     1      -1.291  -0.778   0.015  0.00  0.00    +0.137 C 
BRANCH  15  21
ATOM     16  C   UNL     1      -0.017   1.378   0.010  0.00  0.00    +0.009 A 
ATOM     17  C   UNL     1       1.164   2.091   0.002  0.00  0.00    +0.046 A 
ATOM     18  C   UNL     1       2.386   1.424  -0.015  0.00  0.00    +0.124 A 
ATOM     19  C   UNL     1       2.392   0.035  -0.030  0.00  0.00    -0.002 A 
ATOM     20  C   UNL     1       1.212  -0.675  -0.018  0.00  0.00    +0.012 A 
ATOM     21  C   UNL     1       0.002  -0.004   0.002  0.00  0.00    -0.030 A 
ATOM     22  C   UNL     1       3.844  -0.403  -0.071  0.00  0.00    +0.080 C 
ATOM     23  C   UNL     1       4.562   0.907  -0.473  0.00  0.00    +0.234 C 
ATOM     24  O   UNL     1       3.653   1.923  -0.013  0.00  0.00    -0.491 OA
ENDBRANCH  15  21
ENDBRANCH   1  15
TORSDOF 3
