REMARK  Name = ZINC64816205
REMARK  8 active torsions:
REMARK  status: ('A' for Active; 'I' for Inactive)
REMARK    1  A    between atoms: C_1  and  C_2
REMARK    2  A    between atoms: C_2  and  C_3
REMARK    3  A    between atoms: C_6  and  N_9
REMARK    4  A    between atoms: C_14  and  C_30
REMARK    5  A    between atoms: C_18  and  C_19
REMARK    6  A    between atoms: C_18  and  C_20
REMARK    7  A    between atoms: N_22  and  C_23
REMARK    8  A    between atoms: C_23  and  C_24
REMARK                            x       y       z     vdW  Elec       q    Type
REMARK                         _______ _______ _______ _____ _____    ______ ____
ROOT
ATOM      1  N   UNL     1       2.697  -1.764  -4.681  0.00  0.00    -0.250 N 
ATOM      2  C   UNL     1       1.963  -1.959  -5.803  0.00  0.00    +0.270 C 
ATOM      3  O   UNL     1       0.838  -1.510  -5.920  0.00  0.00    -0.268 OA
ATOM      4  C   UNL     1       2.601  -2.742  -6.873  0.00  0.00    +0.125 A 
ATOM      5  C   UNL     1       2.231  -2.969  -8.166  0.00  0.00    +0.065 A 
ATOM      6  C   UNL     1       3.256  -3.782  -8.702  0.00  0.00    +0.128 A 
ATOM      7  N   UNL     1       4.141  -3.992  -7.743  0.00  0.00    -0.167 NA
ATOM      8  N   UNL     1       3.787  -3.413  -6.663  0.00  0.00    -0.256 N 
ATOM      9  C   UNL     1       4.441  -3.404  -5.349  0.00  0.00    +0.179 C 
ATOM     10  C   UNL     1       4.118  -2.089  -4.633  0.00  0.00    +0.135 C 
ATOM     11  C   UNL     1       4.907  -0.955  -5.292  0.00  0.00    +0.044 C 
ENDROOT
BRANCH   1  15
ATOM     12  C   UNL     1       0.857  -0.187  -1.293  0.00  0.00    -0.048 A 
ATOM     13  C   UNL     1       0.452  -1.412  -1.791  0.00  0.00    +0.005 A 
ATOM     14  C   UNL     1       1.060  -1.938  -2.914  0.00  0.00    +0.024 A 
ATOM     15  C   UNL     1       2.079  -1.235  -3.544  0.00  0.00    +0.038 A 
ATOM     16  C   UNL     1       2.483  -0.005  -3.041  0.00  0.00    +0.024 A 
ATOM     17  C   UNL     1       1.867   0.518  -1.921  0.00  0.00    +0.005 A 
BRANCH  12  19
ATOM     18  C   UNL     1      -0.934   1.330  -0.493  0.00  0.00    +0.009 C 
ATOM     19  C   UNL     1       0.191   0.384  -0.068  0.00  0.00    +0.032 C 
ENDBRANCH  12  19
ENDBRANCH   1  15
BRANCH   6  20
ATOM     20  C   UNL     1       3.325  -4.303 -10.084  0.00  0.00    +0.155 A 
ATOM     21  C   UNL     1       4.310  -5.089 -10.592  0.00  0.00    +0.051 A 
ATOM     22  C   UNL     1       3.973  -5.346 -11.936  0.00  0.00    +0.042 A 
ATOM     23  C   UNL     1       2.810  -4.711 -12.180  0.00  0.00    +0.196 A 
ATOM     24  O   UNL     1       2.419  -4.086 -11.056  0.00  0.00    -0.461 OA
ENDBRANCH   6  20
BRANCH  10  25
ATOM     25  C   UNL     1       4.544  -2.201  -3.192  0.00  0.00    +0.239 C 
ATOM     26  O   UNL     1       5.582  -1.692  -2.825  0.00  0.00    -0.273 OA
ATOM     27  N   UNL     1       3.772  -2.868  -2.311  0.00  0.00    -0.309 N 
ATOM     28  H   UNL     1       2.909  -3.214  -2.587  0.00  0.00    +0.149 HD
BRANCH  27  29
ATOM     29  C   UNL     1       4.236  -3.069  -0.936  0.00  0.00    +0.139 C 
BRANCH  29  30
ATOM     30  C   UNL     1       3.259  -3.949  -0.200  0.00  0.00    -0.030 A 
ATOM     31  C   UNL     1       2.147  -3.393   0.404  0.00  0.00    +0.005 A 
ATOM     32  C   UNL     1       1.251  -4.200   1.079  0.00  0.00    +0.000 A 
ATOM     33  C   UNL     1       1.466  -5.564   1.149  0.00  0.00    +0.000 A 
ATOM     34  C   UNL     1       2.577  -6.120   0.544  0.00  0.00    +0.000 A 
ATOM     35  C   UNL     1       3.471  -5.314  -0.135  0.00  0.00    +0.005 A 
ENDBRANCH  29  30
ENDBRANCH  27  29
ENDBRANCH  10  25
TORSDOF 6
