REMARK  Name = ZINC39326753
REMARK  3 active torsions:
REMARK  status: ('A' for Active; 'I' for Inactive)
REMARK    1  A    between atoms: C_1  and  C_2
REMARK    2  A    between atoms: C_7  and  C_8
REMARK    3  A    between atoms: C_18  and  C_19
REMARK                            x       y       z     vdW  Elec       q    Type
REMARK                         _______ _______ _______ _____ _____    ______ ____
ROOT
ATOM      1  C   UNL     1       1.526   2.111   0.075  0.00  0.00    +0.109 C 
ATOM      2  C   UNL     1       1.354   0.616   0.165  0.00  0.00    +0.213 C 
ATOM      3  O   UNL     1       1.581   0.041   1.208  0.00  0.00    -0.276 OA
ATOM      4  N   UNL     1       0.947  -0.081  -0.915  0.00  0.00    -0.293 N 
ATOM      5  C   UNL     1       0.674   0.607  -2.185  0.00  0.00    +0.147 C 
ATOM      6  C   UNL     1       1.499  -0.060  -3.270  0.00  0.00    +0.017 C 
ATOM      7  C   UNL     1       2.186   0.659  -4.184  0.00  0.00    +0.018 C 
ATOM      8  C   UNL     1       1.511  -1.540  -3.273  0.00  0.00    +0.188 C 
ATOM      9  O   UNL     1       1.457  -2.191  -4.303  0.00  0.00    -0.287 OA
ATOM     10  C   UNL     1       1.595  -2.176  -1.938  0.00  0.00    +0.017 C 
ATOM     11  C   UNL     1       2.363  -3.263  -1.715  0.00  0.00    +0.018 C 
ATOM     12  C   UNL     1       0.776  -1.540  -0.837  0.00  0.00    +0.147 C 
ENDROOT
BRANCH   7  13
ATOM     13  C   UNL     1       2.027   2.120  -4.239  0.00  0.00    -0.011 A 
ATOM     14  C   UNL     1       3.109   2.932  -4.601  0.00  0.00    +0.025 A 
ATOM     15  C   UNL     1       2.952   4.302  -4.651  0.00  0.00    +0.016 A 
ATOM     16  C   UNL     1       1.729   4.873  -4.345  0.00  0.00    +0.001 A 
ATOM     17  C   UNL     1       0.655   4.077  -3.986  0.00  0.00    +0.001 A 
ATOM     18  C   UNL     1       0.794   2.706  -3.937  0.00  0.00    +0.009 A 
ATOM     19 BR   UNL     1       4.781   2.154  -5.020  0.00  0.00    -0.050 Br
ENDBRANCH   7  13
BRANCH  11  20
ATOM     20  C   UNL     1       2.301  -3.953  -0.418  0.00  0.00    -0.011 A 
ATOM     21  C   UNL     1       3.450  -4.550   0.117  0.00  0.00    +0.025 A 
ATOM     22  C   UNL     1       3.383  -5.195   1.335  0.00  0.00    +0.016 A 
ATOM     23  C   UNL     1       2.186  -5.253   2.027  0.00  0.00    +0.001 A 
ATOM     24  C   UNL     1       1.046  -4.666   1.504  0.00  0.00    +0.001 A 
ATOM     25  C   UNL     1       1.097  -4.012   0.291  0.00  0.00    +0.009 A 
ATOM     26 BR   UNL     1       5.086  -4.472  -0.827  0.00  0.00    -0.050 Br
ENDBRANCH  11  20
TORSDOF 2
