REMARK  Name = ZINC01288498
REMARK  8 active torsions:
REMARK  status: ('A' for Active; 'I' for Inactive)
REMARK    1  A    between atoms: C_1  and  O_2
REMARK    2  A    between atoms: O_2  and  C_3
REMARK    3  A    between atoms: C_6  and  N_9
REMARK    4  A    between atoms: N_16  and  N_17
REMARK    5  A    between atoms: N_17  and  C_18
REMARK    6  A    between atoms: C_18  and  N_20
REMARK    7  A    between atoms: N_20  and  C_21
REMARK    8  A    between atoms: C_21  and  C_22
REMARK                            x       y       z     vdW  Elec       q    Type
REMARK                         _______ _______ _______ _____ _____    ______ ____
ROOT
ATOM      1  N   UNL     1       4.685   5.434   0.033  0.00  0.00    -0.248 N 
ATOM      2  C   UNL     1       3.528   6.040  -0.310  0.00  0.00    +0.264 A 
ATOM      3  O   UNL     1       3.506   7.227  -0.593  0.00  0.00    -0.267 OA
ATOM      4  C   UNL     1       2.354   5.277  -0.336  0.00  0.00    +0.050 A 
ATOM      5  C   UNL     1       2.424   3.930  -0.020  0.00  0.00    +0.084 A 
ATOM      6  N   UNL     1       3.595   3.387   0.332  0.00  0.00    -0.214 NA
ATOM      7  C   UNL     1       4.695   4.111   0.359  0.00  0.00    +0.220 A 
ATOM      8  N   UNL     1       5.877   3.520   0.723  0.00  0.00    -0.234 N 
ATOM      9  C   UNL     1       1.194   3.109  -0.083  0.00  0.00    +0.004 A 
ATOM     10  C   UNL     1       1.133   1.859   0.526  0.00  0.00    +0.010 A 
ATOM     11  C   UNL     1      -0.031   1.119   0.457  0.00  0.00    +0.001 A 
ATOM     12  C   UNL     1      -1.130   1.617  -0.221  0.00  0.00    +0.000 A 
ATOM     13  C   UNL     1      -1.072   2.857  -0.832  0.00  0.00    +0.004 A 
ATOM     14  C   UNL     1       0.088   3.601  -0.779  0.00  0.00    -0.037 A 
ATOM     15  C   UNL     1       0.176   4.924  -1.491  0.00  0.00    +0.047 C 
ATOM     16  C   UNL     1       1.036   5.907  -0.699  0.00  0.00    +0.007 C 
ATOM     17  C   UNL     1       0.299   6.309   0.581  0.00  0.00    +0.012 C 
ATOM     18  C   UNL     1      -1.038   6.957   0.217  0.00  0.00    +0.001 C 
ATOM     19  C   UNL     1      -0.787   8.203  -0.634  0.00  0.00    +0.000 C 
ATOM     20  C   UNL     1      -0.046   7.805  -1.912  0.00  0.00    +0.001 C 
ATOM     21  C   UNL     1       1.290   7.157  -1.548  0.00  0.00    +0.012 C 
ATOM     22  H   UNL     1       6.691   4.046   0.759  0.00  0.00    +0.173 HD
ENDROOT
BRANCH   1  26
ATOM     23  C   UNL     1       8.237   7.619   0.096  0.00  0.00    +0.120 A 
ATOM     24  C   UNL     1       7.843   6.970  -1.065  0.00  0.00    +0.047 A 
ATOM     25  C   UNL     1       6.667   6.246  -1.087  0.00  0.00    +0.030 A 
ATOM     26  C   UNL     1       5.879   6.168   0.054  0.00  0.00    +0.053 A 
ATOM     27  C   UNL     1       6.271   6.822   1.214  0.00  0.00    +0.030 A 
ATOM     28  C   UNL     1       7.450   7.542   1.236  0.00  0.00    +0.047 A 
BRANCH  23  30
ATOM     29  C   UNL     1       9.739   8.974   1.345  0.00  0.00    +0.277 C 
ATOM     30  O   UNL     1       9.395   8.331   0.117  0.00  0.00    -0.495 OA
ENDBRANCH  23  30
ENDBRANCH   1  26
BRANCH   8  31
ATOM     31  N   UNL     1       5.909   2.157   1.043  0.00  0.00    -0.246 N 
ATOM     32  H   UNL     1       5.095   1.631   1.007  0.00  0.00    +0.172 HD
BRANCH  31  33
ATOM     33  C   UNL     1       7.071   1.576   1.401  0.00  0.00    +0.147 C 
ATOM     34  S   UNL     1       7.110  -0.090   1.792  0.00  0.00    -0.017 S 
BRANCH  33  35
ATOM     35  N   UNL     1       8.202   2.307   1.452  0.00  0.00    -0.318 N 
ATOM     36  H   UNL     1       8.180   3.251   1.230  0.00  0.00    +0.148 HD
BRANCH  35  37
ATOM     37  C   UNL     1       9.466   1.675   1.841  0.00  0.00    +0.177 C 
BRANCH  37  38
ATOM     38  C   UNL     1      10.569   2.702   1.817  0.00  0.00    +0.122 A 
ATOM     39  C   UNL     1      10.943   3.478   2.850  0.00  0.00    +0.046 A 
ATOM     40  C   UNL     1      12.006   4.288   2.390  0.00  0.00    +0.041 A 
ATOM     41  C   UNL     1      12.218   3.958   1.103  0.00  0.00    +0.195 A 
ATOM     42  O   UNL     1      11.349   2.993   0.763  0.00  0.00    -0.466 OA
ENDBRANCH  37  38
ENDBRANCH  35  37
ENDBRANCH  33  35
ENDBRANCH  31  33
ENDBRANCH   8  31
TORSDOF 7
