REMARK  Name = ZINC26548088
REMARK  3 active torsions:
REMARK  status: ('A' for Active; 'I' for Inactive)
REMARK    1  A    between atoms: C_1  and  C_2
REMARK    2  A    between atoms: C_4  and  C_7
REMARK    3  A    between atoms: N_11  and  N_12
REMARK                            x       y       z     vdW  Elec       q    Type
REMARK                         _______ _______ _______ _____ _____    ______ ____
ROOT
ATOM      1  C   UNL     1      -1.167  -0.909   0.008  0.00  0.00    +0.203 A 
ATOM      2  N   UNL     1      -1.138  -2.221   0.000  0.00  0.00    -0.125 NA
ATOM      3  N   UNL     1      -2.336  -2.687   0.009  0.00  0.00    -0.120 NA
ATOM      4  C   UNL     1      -3.204  -1.698   0.021  0.00  0.00    +0.220 A 
ATOM      5  N   UNL     1      -2.491  -0.535   0.027  0.00  0.00    -0.222 N 
ATOM      6  S   UNL     1      -4.959  -1.849   0.036  0.00  0.00    -0.008 SA
ENDROOT
BRANCH   1  10
ATOM      7  C   UNL     1       3.530   0.994  -0.026  0.00  0.00    +0.089 C 
ATOM      8  C   UNL     1       2.036   0.800  -0.013  0.00  0.00    +0.135 A 
ATOM      9  C   UNL     1       1.376  -0.380  -0.013  0.00  0.00    +0.079 A 
ATOM     10  C   UNL     1       0.002  -0.004   0.002  0.00  0.00    +0.152 A 
ATOM     11  N   UNL     1      -0.016   1.308   0.009  0.00  0.00    -0.075 NA
ATOM     12  O   UNL     1       1.104   1.764   0.001  0.00  0.00    -0.359 OA
ENDBRANCH   1  10
BRANCH   5  13
ATOM     13  N   UNL     1      -2.989   0.737   0.046  0.00  0.00    -0.294 N 
ATOM     14  H   UNL     1      -4.076   0.902   0.061  0.00  0.00    +0.163 HD
ATOM     15  H   UNL     1      -2.302   1.597   0.046  0.00  0.00    +0.163 HD
ENDBRANCH   5  13
TORSDOF 2
