REMARK  Name = ZINC02380659
REMARK  7 active torsions:
REMARK  status: ('A' for Active; 'I' for Inactive)
REMARK    1  A    between atoms: C_1  and  C_2
REMARK    2  A    between atoms: C_10  and  C_20
REMARK    3  A    between atoms: C_16  and  S_18
REMARK    4  A    between atoms: S_18  and  C_19
REMARK    5  A    between atoms: C_23  and  O_26
REMARK    6  A    between atoms: O_26  and  C_27
REMARK    7  A    between atoms: C_28  and  C_31
REMARK                            x       y       z     vdW  Elec       q    Type
REMARK                         _______ _______ _______ _____ _____    ______ ____
ROOT
ATOM      1  C   UNL     1      -0.003   2.051   1.982  0.00  0.00    +0.044 C 
ATOM      2  C   UNL     1      -0.050   0.618   1.518  0.00  0.00    -0.050 A 
ATOM      3  C   UNL     1      -0.151   0.333   0.168  0.00  0.00    +0.007 A 
ATOM      4  C   UNL     1      -0.195  -0.977  -0.273  0.00  0.00    +0.046 A 
ATOM      5  C   UNL     1      -0.137  -2.014   0.642  0.00  0.00    +0.131 A 
ATOM      6  C   UNL     1      -0.036  -1.725   2.009  0.00  0.00    +0.040 A 
ATOM      7  C   UNL     1       0.014  -0.407   2.443  0.00  0.00    +0.017 A 
ATOM      8  C   UNL     1       0.019  -2.860   2.966  0.00  0.00    +0.058 C 
ATOM      9  C   UNL     1      -0.354  -4.074   2.512  0.00  0.00    +0.025 C 
ATOM     10  C   UNL     1      -0.295  -5.242   3.471  0.00  0.00    +0.159 C 
ATOM     11  N   UNL     1       0.169  -4.936   4.830  0.00  0.00    -0.209 N 
ATOM     12  C   UNL     1       0.512  -3.635   5.142  0.00  0.00    +0.216 C 
ATOM     13  N   UNL     1       0.430  -2.676   4.244  0.00  0.00    -0.326 N 
ATOM     14  N   UNL     1       0.898  -3.622   6.431  0.00  0.00    -0.192 NA
ATOM     15  C   UNL     1       0.820  -4.833   6.944  0.00  0.00    +0.174 C 
ATOM     16  N   UNL     1       0.368  -5.699   5.983  0.00  0.00    -0.239 N 
ATOM     17  C   UNL     1      -0.821  -4.251   1.097  0.00  0.00    +0.234 C 
ATOM     18  O   UNL     1      -0.175  -3.309   0.238  0.00  0.00    -0.479 OA
ATOM     19  H   UNL     1       0.681  -1.779   4.515  0.00  0.00    +0.169 HD
ATOM     20  H   UNL     1       0.217  -6.652   6.084  0.00  0.00    +0.172 HD
ENDROOT
BRANCH  17  21
ATOM     21  C   UNL     1      -2.311  -4.037   1.033  0.00  0.00    -0.000 A 
ATOM     22  C   UNL     1      -2.834  -2.765   1.174  0.00  0.00    +0.008 A 
ATOM     23  C   UNL     1      -4.201  -2.568   1.116  0.00  0.00    +0.003 A 
ATOM     24  C   UNL     1      -5.046  -3.643   0.917  0.00  0.00    +0.038 A 
ATOM     25  C   UNL     1      -4.524  -4.917   0.775  0.00  0.00    +0.124 A 
ATOM     26  C   UNL     1      -3.154  -5.113   0.827  0.00  0.00    +0.046 A 
ATOM     27  F   UNL     1      -5.350  -5.968   0.581  0.00  0.00    -0.205 F 
ENDBRANCH  17  21
BRANCH  10  28
ATOM     28  C   UNL     1      -1.677  -5.836   3.574  0.00  0.00    -0.021 A 
ATOM     29  C   UNL     1      -2.669  -5.161   4.260  0.00  0.00    +0.009 A 
ATOM     30  C   UNL     1      -3.936  -5.704   4.356  0.00  0.00    +0.046 A 
ATOM     31  C   UNL     1      -4.212  -6.926   3.762  0.00  0.00    +0.120 A 
ATOM     32  C   UNL     1      -3.215  -7.601   3.073  0.00  0.00    +0.046 A 
ATOM     33  C   UNL     1      -1.951  -7.052   2.976  0.00  0.00    +0.009 A 
BRANCH  31  34
ATOM     34  O   UNL     1      -5.457  -7.462   3.854  0.00  0.00    -0.495 OA
ATOM     35  C   UNL     1      -5.670  -8.724   3.219  0.00  0.00    +0.277 C 
ENDBRANCH  31  34
ENDBRANCH  10  28
BRANCH  15  36
ATOM     36  S   UNL     1       1.231  -5.269   8.601  0.00  0.00    -0.092 S 
ATOM     37  C   UNL     1       1.754  -3.702   9.351  0.00  0.00    +0.093 C 
ENDBRANCH  15  36
TORSDOF 4
