REMARK  Name = ZINC03902181
REMARK  4 active torsions:
REMARK  status: ('A' for Active; 'I' for Inactive)
REMARK    1  A    between atoms: C_4  and  C_7
REMARK    2  A    between atoms: C_8  and  C_9
REMARK    3  A    between atoms: N_19  and  C_20
REMARK    4  A    between atoms: C_23  and  O_26
REMARK                            x       y       z     vdW  Elec       q    Type
REMARK                         _______ _______ _______ _____ _____    ______ ____
ROOT
ATOM      1  C   UNL     1       5.076  -2.801   0.446  0.00  0.00    +0.141 A 
ATOM      2  N   UNL     1       6.188  -2.106   0.373  0.00  0.00    -0.229 NA
ATOM      3  C   UNL     1       7.322  -2.637  -0.121  0.00  0.00    +0.079 A 
ATOM      4  C   UNL     1       8.504  -1.893  -0.196  0.00  0.00    +0.028 A 
ATOM      5  C   UNL     1       9.636  -2.466  -0.703  0.00  0.00    +0.002 A 
ATOM      6  C   UNL     1       9.633  -3.782  -1.148  0.00  0.00    +0.001 A 
ATOM      7  C   UNL     1       8.485  -4.541  -1.087  0.00  0.00    +0.015 A 
ATOM      8  C   UNL     1       7.318  -3.977  -0.573  0.00  0.00    +0.065 A 
ATOM      9  C   UNL     1       6.064  -4.739  -0.483  0.00  0.00    +0.267 A 
ATOM     10  O   UNL     1       6.001  -5.896  -0.857  0.00  0.00    -0.267 OA
ATOM     11  N   UNL     1       4.985  -4.108   0.035  0.00  0.00    -0.261 N 
ENDROOT
BRANCH  11  12
ATOM     12  C   UNL     1       3.767  -4.790   0.148  0.00  0.00    +0.052 A 
ATOM     13  C   UNL     1       2.858  -4.769  -0.902  0.00  0.00    +0.030 A 
ATOM     14  C   UNL     1       1.658  -5.441  -0.790  0.00  0.00    +0.047 A 
ATOM     15  C   UNL     1       1.359  -6.139   0.371  0.00  0.00    +0.117 A 
ATOM     16  C   UNL     1       2.266  -6.162   1.421  0.00  0.00    +0.047 A 
ATOM     17  C   UNL     1       3.469  -5.494   1.308  0.00  0.00    +0.030 A 
BRANCH  15  18
ATOM     18  O   UNL     1       0.176  -6.801   0.481  0.00  0.00    -0.507 OA
ATOM     19  H   UNL     1       0.209  -7.717   0.173  0.00  0.00    +0.292 HD
ENDBRANCH  15  18
ENDBRANCH  11  12
BRANCH   1  21
ATOM     20  C   UNL     1       3.965  -0.912   1.510  0.00  0.00    +0.011 C 
ATOM     21  C   UNL     1       3.882  -2.156   0.996  0.00  0.00    +0.047 C 
BRANCH  20  25
ATOM     22  C   UNL     1       0.505   0.958   3.102  0.00  0.00    +0.000 A 
ATOM     23  C   UNL     1       1.717   1.627   3.112  0.00  0.00    +0.001 A 
ATOM     24  C   UNL     1       2.845   1.026   2.596  0.00  0.00    +0.008 A 
ATOM     25  C   UNL     1       2.764  -0.264   2.063  0.00  0.00    -0.025 A 
ATOM     26  C   UNL     1       1.537  -0.934   2.056  0.00  0.00    +0.008 A 
ATOM     27  C   UNL     1       0.417  -0.319   2.575  0.00  0.00    +0.001 A 
ENDBRANCH  20  25
ENDBRANCH   1  21
TORSDOF 4
