REMARK  Name = ZINC03376376
REMARK  12 active torsions:
REMARK  status: ('A' for Active; 'I' for Inactive)
REMARK    1  A    between atoms: C_1  and  C_2
REMARK    2  A    between atoms: C_2  and  C_4
REMARK    3  A    between atoms: C_2  and  N_59
REMARK    4  A    between atoms: C_7  and  S_16
REMARK    5  A    between atoms: N_8  and  C_9
REMARK    6  A    between atoms: S_16  and  C_17
REMARK    7  A    between atoms: C_17  and  C_19
REMARK    8  A    between atoms: C_17  and  C_20
REMARK    9  A    between atoms: N_22  and  C_23
REMARK   10  A    between atoms: C_23  and  C_24
REMARK   11  A    between atoms: C_33  and  N_59
REMARK   12  A    between atoms: C_34  and  N_59
REMARK                            x       y       z     vdW  Elec       q    Type
REMARK                         _______ _______ _______ _____ _____    ______ ____
ROOT
ATOM      1  C   UNL     1      -1.333  -4.511  -1.011  0.00  0.00    +0.125 A 
ATOM      2  N   UNL     1      -0.177  -4.204  -0.496  0.00  0.00    -0.135 NA
ATOM      3  N   UNL     1      -0.087  -2.932  -0.336  0.00  0.00    -0.122 NA
ATOM      4  C   UNL     1      -1.195  -2.352  -0.736  0.00  0.00    +0.197 A 
ATOM      5  N   UNL     1      -2.026  -3.342  -1.184  0.00  0.00    -0.275 N 
ENDROOT
BRANCH   5   6
ATOM      6  C   UNL     1      -3.317  -3.191  -1.710  0.00  0.00    +0.050 A 
ATOM      7  C   UNL     1      -4.408  -3.725  -1.038  0.00  0.00    +0.028 A 
ATOM      8  C   UNL     1      -5.680  -3.572  -1.555  0.00  0.00    +0.022 A 
ATOM      9  C   UNL     1      -5.865  -2.895  -2.748  0.00  0.00    +0.041 A 
ATOM     10  C   UNL     1      -4.779  -2.366  -3.422  0.00  0.00    +0.022 A 
ATOM     11  C   UNL     1      -3.506  -2.513  -2.906  0.00  0.00    +0.028 A 
ATOM     12 CL   UNL     1      -7.464  -2.709  -3.399  0.00  0.00    -0.084 Cl
ENDBRANCH   5   6
BRANCH   1  14
ATOM     13  C   UNL     1      -1.125  -6.379  -2.628  0.00  0.00    -0.005 C 
ATOM     14  C   UNL     1      -1.819  -5.896  -1.353  0.00  0.00    -0.003 C 
BRANCH  14  17
ATOM     15  C   UNL     1      -2.070  -8.146  -0.494  0.00  0.00    -0.096 C 
ATOM     16  C   UNL     1      -0.057  -6.886  -0.021  0.00  0.00    -0.096 C 
ATOM     17  N   UNL     1      -1.518  -6.801  -0.224  0.00  0.00    +0.382 N 
ATOM     18  H   UNL     1      -1.953  -6.427   0.628  0.00  0.00    -0.082 HD
ENDBRANCH  14  17
ENDBRANCH   1  14
BRANCH   4  19
ATOM     19  S   UNL     1      -1.543  -0.625  -0.708  0.00  0.00    -0.073 S 
BRANCH  19  20
ATOM     20  C   UNL     1       0.002  -0.004   0.002  0.00  0.00    +0.137 C 
ATOM     21  C   UNL     1       0.148  -0.520   1.435  0.00  0.00    +0.029 C 
BRANCH  20  22
ATOM     22  C   UNL     1      -0.018   1.503   0.010  0.00  0.00    +0.226 C 
ATOM     23  O   UNL     1      -1.077   2.095   0.018  0.00  0.00    -0.275 OA
ATOM     24  N   UNL     1       1.139   2.192   0.003  0.00  0.00    -0.310 N 
ATOM     25  H   UNL     1       1.986   1.719  -0.008  0.00  0.00    +0.149 HD
BRANCH  24  26
ATOM     26  C   UNL     1       1.120   3.657   0.011  0.00  0.00    +0.139 C 
BRANCH  26  27
ATOM     27  C   UNL     1       2.534   4.179   0.000  0.00  0.00    -0.027 A 
ATOM     28  C   UNL     1       3.190   4.417   1.194  0.00  0.00    +0.009 A 
ATOM     29  C   UNL     1       4.489   4.890   1.189  0.00  0.00    +0.050 A 
ATOM     30  C   UNL     1       5.132   5.138  -0.013  0.00  0.00    +0.166 A 
ATOM     31  C   UNL     1       4.469   4.904  -1.215  0.00  0.00    +0.167 A 
ATOM     32  C   UNL     1       3.169   4.424  -1.203  0.00  0.00    +0.054 A 
ATOM     33  O   UNL     1       5.306   5.223  -2.245  0.00  0.00    -0.453 OA
ATOM     34  C   UNL     1       6.339   6.039  -1.661  0.00  0.00    +0.466 C 
ATOM     35  O   UNL     1       6.385   5.604  -0.289  0.00  0.00    -0.453 OA
ENDBRANCH  26  27
ENDBRANCH  24  26
ENDBRANCH  20  22
ENDBRANCH  19  20
ENDBRANCH   4  19
TORSDOF 8
