REMARK  Name = ZINC09200145
REMARK  11 active torsions:
REMARK  status: ('A' for Active; 'I' for Inactive)
REMARK    1  A    between atoms: C_1  and  C_2
REMARK    2  A    between atoms: C_4  and  C_37
REMARK    3  A    between atoms: C_13  and  C_28
REMARK    4  A    between atoms: N_15  and  C_18
REMARK    5  A    between atoms: C_18  and  C_19
REMARK    6  A    between atoms: C_19  and  C_20
REMARK    7  A    between atoms: C_23  and  O_26
REMARK    8  A    between atoms: O_26  and  C_27
REMARK    9  A    between atoms: C_31  and  O_36
REMARK   10  A    between atoms: C_32  and  O_34
REMARK   11  A    between atoms: O_34  and  C_35
REMARK                            x       y       z     vdW  Elec       q    Type
REMARK                         _______ _______ _______ _____ _____    ______ ____
ROOT
ATOM      1  C   UNL     1      -7.334   2.549   0.157  0.00  0.00    +0.044 C 
ATOM      2  C   UNL     1      -5.909   3.035   0.110  0.00  0.00    -0.047 A 
ATOM      3  C   UNL     1      -5.649   4.398   0.115  0.00  0.00    +0.007 A 
ATOM      4  C   UNL     1      -4.361   4.857   0.072  0.00  0.00    -0.036 A 
ATOM      5  C   UNL     1      -3.307   3.946   0.025  0.00  0.00    +0.067 A 
ATOM      6  C   UNL     1      -3.560   2.564   0.019  0.00  0.00    +0.140 A 
ATOM      7  C   UNL     1      -4.879   2.121   0.063  0.00  0.00    +0.050 A 
ATOM      8  O   UNL     1      -2.543   1.684  -0.026  0.00  0.00    -0.450 OA
ATOM      9  C   UNL     1      -1.246   2.044  -0.076  0.00  0.00    +0.199 A 
ATOM     10  C   UNL     1      -0.877   3.348  -0.069  0.00  0.00    +0.072 A 
ATOM     11  C   UNL     1      -1.902   4.396  -0.021  0.00  0.00    +0.199 A 
ATOM     12  O   UNL     1      -1.608   5.578  -0.019  0.00  0.00    -0.287 OA
ATOM     13  C   UNL     1       0.628   3.394  -0.122  0.00  0.00    +0.145 C 
ATOM     14  N   UNL     1       1.074   1.996  -0.152  0.00  0.00    -0.283 N 
ATOM     15  C   UNL     1      -0.017   1.212  -0.121  0.00  0.00    +0.283 C 
ATOM     16  O   UNL     1      -0.001  -0.003  -0.134  0.00  0.00    -0.267 OA
ATOM     17  C   UNL     1      -4.084   6.338   0.077  0.00  0.00    +0.044 C 
ENDROOT
BRANCH  13  18
ATOM     18  C   UNL     1       1.082   4.111  -1.367  0.00  0.00    -0.019 A 
ATOM     19  C   UNL     1       1.040   3.465  -2.589  0.00  0.00    +0.009 A 
ATOM     20  C   UNL     1       1.450   4.120  -3.735  0.00  0.00    +0.049 A 
ATOM     21  C   UNL     1       1.915   5.423  -3.659  0.00  0.00    +0.158 A 
ATOM     22  C   UNL     1       1.962   6.071  -2.429  0.00  0.00    +0.162 A 
ATOM     23  C   UNL     1       1.544   5.411  -1.285  0.00  0.00    +0.055 A 
BRANCH  22  24
ATOM     24  O   UNL     1       2.417   7.350  -2.350  0.00  0.00    -0.491 OA
ATOM     25  C   UNL     1       2.438   7.953  -1.054  0.00  0.00    +0.277 C 
ENDBRANCH  22  24
BRANCH  21  26
ATOM     26  O   UNL     1       2.325   6.067  -4.785  0.00  0.00    -0.503 OA
ATOM     27  H   UNL     1       3.264   5.952  -4.984  0.00  0.00    +0.292 HD
ENDBRANCH  21  26
ENDBRANCH  13  18
BRANCH  14  28
ATOM     28  C   UNL     1       2.464   1.536  -0.206  0.00  0.00    +0.114 C 
BRANCH  28  29
ATOM     29  C   UNL     1       2.897   1.391  -1.666  0.00  0.00    +0.054 C 
BRANCH  29  30
ATOM     30  C   UNL     1       4.327   0.918  -1.722  0.00  0.00    -0.046 A 
ATOM     31  C   UNL     1       5.358   1.839  -1.754  0.00  0.00    +0.007 A 
ATOM     32  C   UNL     1       6.669   1.408  -1.799  0.00  0.00    +0.046 A 
ATOM     33  C   UNL     1       6.951   0.050  -1.824  0.00  0.00    +0.120 A 
ATOM     34  C   UNL     1       5.915  -0.872  -1.797  0.00  0.00    +0.046 A 
ATOM     35  C   UNL     1       4.605  -0.436  -1.746  0.00  0.00    +0.007 A 
BRANCH  33  36
ATOM     36  O   UNL     1       8.241  -0.376  -1.875  0.00  0.00    -0.495 OA
ATOM     37  C   UNL     1       9.256   0.629  -1.900  0.00  0.00    +0.277 C 
ENDBRANCH  33  36
ENDBRANCH  29  30
ENDBRANCH  28  29
ENDBRANCH  14  28
TORSDOF 7
