REMARK  Name = ZINC44940819
REMARK  11 active torsions:
REMARK  status: ('A' for Active; 'I' for Inactive)
REMARK    1  A    between atoms: C_1  and  N_2
REMARK    2  A    between atoms: N_2  and  C_3
REMARK    3  A    between atoms: N_2  and  C_4
REMARK    4  A    between atoms: C_4  and  C_5
REMARK    5  A    between atoms: C_5  and  N_6
REMARK    6  A    between atoms: N_6  and  C_7
REMARK    7  A    between atoms: C_7  and  C_8
REMARK    8  A    between atoms: C_14  and  C_16
REMARK    9  A    between atoms: C_22  and  C_24
REMARK   10  A    between atoms: C_29  and  C_32
REMARK   11  A    between atoms: C_29  and  C_34
REMARK                            x       y       z     vdW  Elec       q    Type
REMARK                         _______ _______ _______ _____ _____    ______ ____
ROOT
ATOM      1  C   UNL     1      -2.299  -2.492   2.572  0.00  0.00    +0.091 C 
ATOM      2  C   UNL     1      -1.921  -1.011   2.497  0.00  0.00    +0.040 C 
ATOM      3  C   UNL     1      -1.556  -0.502   3.861  0.00  0.00    -0.030 C 
ATOM      4  C   UNL     1      -1.859  -1.105   4.965  0.00  0.00    -0.030 C 
ATOM      5  C   UNL     1      -2.610  -2.402   5.036  0.00  0.00    +0.040 C 
ATOM      6  C   UNL     1      -3.313  -2.682   3.707  0.00  0.00    +0.091 C 
ENDROOT
BRANCH   6   7
ATOM      7  C   UNL     1      -3.832  -4.097   3.692  0.00  0.00    +0.220 C 
ATOM      8  O   UNL     1      -3.146  -4.989   3.239  0.00  0.00    -0.275 OA
ATOM      9  N   UNL     1      -5.057  -4.370   4.181  0.00  0.00    -0.301 N 
ATOM     10  C   UNL     1      -5.943  -3.288   4.631  0.00  0.00    +0.109 C 
ATOM     11  C   UNL     1      -7.290  -3.422   3.913  0.00  0.00    +0.045 C 
ATOM     12  C   UNL     1      -7.848  -4.828   4.145  0.00  0.00    +0.085 C 
ATOM     13  C   UNL     1      -6.885  -5.864   3.561  0.00  0.00    +0.045 C 
ATOM     14  C   UNL     1      -5.536  -5.757   4.269  0.00  0.00    +0.109 C 
BRANCH  12  15
ATOM     15  C   UNL     1      -9.190  -4.952   3.469  0.00  0.00    -0.027 A 
ATOM     16  C   UNL     1      -9.715  -3.880   2.772  0.00  0.00    +0.005 A 
ATOM     17  C   UNL     1     -10.945  -3.994   2.152  0.00  0.00    +0.000 A 
ATOM     18  C   UNL     1     -11.650  -5.181   2.228  0.00  0.00    +0.000 A 
ATOM     19  C   UNL     1     -11.124  -6.254   2.924  0.00  0.00    +0.000 A 
ATOM     20  C   UNL     1      -9.892  -6.141   3.541  0.00  0.00    +0.005 A 
ENDBRANCH  12  15
BRANCH  12  21
ATOM     21  C   UNL     1      -8.004  -5.062   5.590  0.00  0.00    +0.074 C 
ATOM     22  N   UNL     1      -8.124  -5.242   6.705  0.00  0.00    -0.196 NA
ENDBRANCH  12  21
ENDBRANCH   6   7
BRANCH   1  24
ATOM     23  N   UNL     1      -2.131  -3.153   0.194  0.00  0.00    -0.299 N 
ATOM     24  C   UNL     1      -2.915  -2.924   1.266  0.00  0.00    +0.220 C 
ATOM     25  O   UNL     1      -4.117  -3.064   1.179  0.00  0.00    -0.275 OA
BRANCH  23  26
ATOM     26  C   UNL     1      -0.675  -3.034   0.313  0.00  0.00    +0.089 C 
BRANCH  26  27
ATOM     27  C   UNL     1      -0.207  -1.765  -0.402  0.00  0.00    -0.060 C 
BRANCH  27  29
ATOM     28  C   UNL     1       1.706  -0.429  -0.959  0.00  0.00    -0.097 C 
ATOM     29  N   UNL     1       1.233  -1.579  -0.177  0.00  0.00    +0.377 N 
ATOM     30  C   UNL     1       1.477  -1.334   1.251  0.00  0.00    -0.097 C 
ATOM     31  H   UNL     1       1.728  -2.409  -0.465  0.00  0.00    -0.083 HD
ENDBRANCH  27  29
ENDBRANCH  26  27
ENDBRANCH  23  26
BRANCH  23  32
ATOM     32  C   UNL     1      -2.733  -3.522  -1.089  0.00  0.00    +0.142 C 
BRANCH  32  33
ATOM     33  C   UNL     1      -2.857  -5.021  -1.174  0.00  0.00    -0.030 A 
ATOM     34  C   UNL     1      -1.822  -5.771  -1.701  0.00  0.00    +0.005 A 
ATOM     35  C   UNL     1      -1.935  -7.147  -1.779  0.00  0.00    +0.000 A 
ATOM     36  C   UNL     1      -3.083  -7.772  -1.329  0.00  0.00    +0.000 A 
ATOM     37  C   UNL     1      -4.117  -7.023  -0.801  0.00  0.00    +0.000 A 
ATOM     38  C   UNL     1      -4.002  -5.647  -0.720  0.00  0.00    +0.005 A 
ENDBRANCH  32  33
ENDBRANCH  23  32
ENDBRANCH   1  24
TORSDOF 9
