REMARK  Name = ZINC20527842
REMARK  8 active torsions:
REMARK  status: ('A' for Active; 'I' for Inactive)
REMARK    1  A    between atoms: C_4  and  C_7
REMARK    2  A    between atoms: C_7  and  N_8
REMARK    3  A    between atoms: C_9  and  C_11
REMARK    4  A    between atoms: C_11  and  S_12
REMARK    5  A    between atoms: S_12  and  C_13
REMARK    6  A    between atoms: N_17  and  N_18
REMARK    7  A    between atoms: N_19  and  N_20
REMARK    8  A    between atoms: C_21  and  C_22
REMARK                            x       y       z     vdW  Elec       q    Type
REMARK                         _______ _______ _______ _____ _____    ______ ____
ROOT
ATOM      1  C   UNL     1      -7.912   3.543   0.052  0.00  0.00    +0.210 A 
ATOM      2  N   UNL     1      -7.051   4.531   0.054  0.00  0.00    -0.119 NA
ATOM      3  N   UNL     1      -5.762   3.982   0.052  0.00  0.00    -0.109 NA
ATOM      4  C   UNL     1      -5.878   2.676   0.040  0.00  0.00    +0.254 A 
ATOM      5  N   UNL     1      -7.210   2.370   0.043  0.00  0.00    -0.211 N 
ATOM      6  N   UNL     1      -4.832   1.765   0.031  0.00  0.00    -0.204 N 
ATOM      7  H   UNL     1      -5.044   0.686   0.026  0.00  0.00    +0.177 HD
ENDROOT
BRANCH   5   8
ATOM      8  N   UNL     1      -7.746   1.114   0.038  0.00  0.00    -0.294 N 
ATOM      9  H   UNL     1      -7.085   0.234   0.031  0.00  0.00    +0.163 HD
ATOM     10  H   UNL     1      -8.838   0.981   0.042  0.00  0.00    +0.163 HD
ENDBRANCH   5   8
BRANCH   6  11
ATOM     11  N   UNL     1      -3.507   2.219   0.028  0.00  0.00    -0.187 NA
ATOM     12  C   UNL     1      -2.528   1.366   0.020  0.00  0.00    +0.140 C 
BRANCH  12  13
ATOM     13  C   UNL     1      -1.135   1.843   0.017  0.00  0.00    +0.020 A 
ATOM     14  C   UNL     1      -0.013   1.076   0.008  0.00  0.00    +0.093 A 
ATOM     15  N   UNL     1       1.093   1.877   0.002  0.00  0.00    -0.360 N 
ATOM     16  H   UNL     1       2.097   1.428  -0.010  0.00  0.00    +0.165 HD
ATOM     17  C   UNL     1       0.720   3.204   0.012  0.00  0.00    +0.047 A 
ATOM     18  C   UNL     1      -0.685   3.247   0.026  0.00  0.00    +0.008 A 
ATOM     19  C   UNL     1      -1.345   4.473   0.039  0.00  0.00    +0.010 A 
ATOM     20  C   UNL     1      -0.615   5.641   0.037  0.00  0.00    +0.001 A 
ATOM     21  C   UNL     1       0.772   5.600   0.025  0.00  0.00    +0.002 A 
ATOM     22  C   UNL     1       1.438   4.395   0.011  0.00  0.00    +0.026 A 
ENDBRANCH  12  13
ENDBRANCH   6  11
BRANCH   1  23
ATOM     23  S   UNL     1      -9.668   3.699   0.060  0.00  0.00    -0.075 S 
BRANCH  23  24
ATOM     24  C   UNL     1      -9.949   5.491   0.071  0.00  0.00    +0.173 C 
BRANCH  24  26
ATOM     25  N   UNL     1     -11.879   7.037   0.086  0.00  0.00    -0.311 N 
ATOM     26  C   UNL     1     -11.430   5.766   0.078  0.00  0.00    +0.224 C 
ATOM     27  O   UNL     1     -12.219   4.845   0.076  0.00  0.00    -0.275 OA
ATOM     28  H   UNL     1     -11.164   7.873   0.088  0.00  0.00    +0.149 HD
BRANCH  25  29
ATOM     29  C   UNL     1     -13.319   7.306   0.093  0.00  0.00    +0.139 C 
BRANCH  29  33
ATOM     30  C   UNL     1     -13.982  11.525   0.118  0.00  0.00    +0.000 A 
ATOM     31  C   UNL     1     -13.880  10.849  -1.083  0.00  0.00    +0.000 A 
ATOM     32  C   UNL     1     -13.665   9.483  -1.091  0.00  0.00    +0.005 A 
ATOM     33  C   UNL     1     -13.553   8.794   0.102  0.00  0.00    -0.030 A 
ATOM     34  C   UNL     1     -13.661   9.470   1.304  0.00  0.00    +0.005 A 
ATOM     35  C   UNL     1     -13.871  10.836   1.312  0.00  0.00    +0.000 A 
ENDBRANCH  29  33
ENDBRANCH  25  29
ENDBRANCH  24  26
ENDBRANCH  23  24
ENDBRANCH   1  23
TORSDOF 8
