REMARK  Name = ZINC11604046
REMARK  14 active torsions:
REMARK  status: ('A' for Active; 'I' for Inactive)
REMARK    1  A    between atoms: C_1  and  C_2
REMARK    2  A    between atoms: C_2  and  C_3
REMARK    3  A    between atoms: C_6  and  C_9
REMARK    4  A    between atoms: C_9  and  C_11
REMARK    5  A    between atoms: C_9  and  N_64
REMARK    6  A    between atoms: C_11  and  N_12
REMARK    7  A    between atoms: C_13  and  C_15
REMARK    8  A    between atoms: C_18  and  C_21
REMARK    9  A    between atoms: C_21  and  N_22
REMARK   10  A    between atoms: C_23  and  C_31
REMARK   11  A    between atoms: C_24  and  N_28
REMARK   12  A    between atoms: C_25  and  C_27
REMARK   13  A    between atoms: C_32  and  N_64
REMARK   14  A    between atoms: C_33  and  N_64
REMARK                            x       y       z     vdW  Elec       q    Type
REMARK                         _______ _______ _______ _____ _____    ______ ____
ROOT
ATOM      1  N   UNL     1       1.044   5.289   5.739  0.00  0.00    -0.313 N 
ATOM      2  C   UNL     1       1.831   4.481   5.003  0.00  0.00    +0.244 C 
ATOM      3  O   UNL     1       2.680   3.801   5.545  0.00  0.00    -0.270 OA
ATOM      4  H   UNL     1       0.366   5.832   5.307  0.00  0.00    +0.149 HD
ENDROOT
BRANCH   2   5
ATOM      5  C   UNL     1       1.663   4.423   3.535  0.00  0.00    +0.037 A 
ATOM      6  C   UNL     1       2.478   3.587   2.769  0.00  0.00    +0.013 A 
ATOM      7  C   UNL     1       2.316   3.538   1.399  0.00  0.00    +0.006 A 
ATOM      8  C   UNL     1       1.349   4.314   0.786  0.00  0.00    -0.026 A 
ATOM      9  C   UNL     1       0.542   5.149   1.539  0.00  0.00    +0.006 A 
ATOM     10  C   UNL     1       0.690   5.204   2.909  0.00  0.00    +0.013 A 
BRANCH   8  11
ATOM     11  C   UNL     1       1.178   4.255  -0.711  0.00  0.00    +0.179 C 
BRANCH  11  12
ATOM     12  N   UNL     1       0.208   3.211  -1.050  0.00  0.00    -0.262 N 
ATOM     13  C   UNL     1       0.490   1.915  -1.297  0.00  0.00    +0.067 A 
ATOM     14  C   UNL     1      -0.675   1.284  -1.571  0.00  0.00    +0.169 A 
ATOM     15  C   UNL     1      -1.705   2.227  -1.488  0.00  0.00    +0.090 A 
ATOM     16  N   UNL     1      -1.177   3.383  -1.176  0.00  0.00    -0.174 NA
ATOM     17  C   UNL     1      -3.170   1.958  -1.718  0.00  0.00    +0.070 C 
ATOM     18  C   UNL     1       1.858   1.284  -1.274  0.00  0.00    +0.068 C 
BRANCH  14  19
ATOM     19  N   UNL     1      -0.833  -0.150  -1.900  0.00  0.00    +0.060 N 
ATOM     20  O   UNL     1      -0.777  -0.519  -3.059  0.00  0.00    -0.126 OA
ATOM     21  O   UNL     1      -1.018  -0.962  -1.011  0.00  0.00    -0.126 OA
ENDBRANCH  14  19
ENDBRANCH  11  12
ENDBRANCH   8  11
ENDBRANCH   2   5
BRANCH   1  22
ATOM     22  C   UNL     1       1.210   5.347   7.194  0.00  0.00    +0.094 C 
BRANCH  22  23
ATOM     23  C   UNL     1       0.200   6.333   7.784  0.00  0.00    -0.021 C 
BRANCH  23  27
ATOM     24  C   UNL     1       0.912   6.765  11.974  0.00  0.00    -0.048 A 
ATOM     25  C   UNL     1       1.959   6.883  11.079  0.00  0.00    +0.004 A 
ATOM     26  C   UNL     1       1.729   6.743   9.723  0.00  0.00    +0.002 A 
ATOM     27  C   UNL     1       0.451   6.485   9.262  0.00  0.00    -0.059 A 
ATOM     28  C   UNL     1      -0.597   6.372  10.157  0.00  0.00    +0.002 A 
ATOM     29  C   UNL     1      -0.365   6.507  11.513  0.00  0.00    +0.004 A 
BRANCH  24  31
ATOM     30  C   UNL     1       0.999   8.387  13.847  0.00  0.00    +0.009 C 
ATOM     31  C   UNL     1       1.164   6.919  13.452  0.00  0.00    +0.032 C 
ENDBRANCH  24  31
ENDBRANCH  23  27
BRANCH  23  34
ATOM     32  C   UNL     1      -0.715   8.562   7.546  0.00  0.00    -0.096 C 
ATOM     33  C   UNL     1       1.675   8.210   7.381  0.00  0.00    -0.096 C 
ATOM     34  N   UNL     1       0.344   7.633   7.097  0.00  0.00    +0.382 N 
ATOM     35  H   UNL     1       0.252   7.488   6.085  0.00  0.00    -0.082 HD
ENDBRANCH  23  34
ENDBRANCH  22  23
ENDBRANCH   1  22
TORSDOF 9
