REMARK  Name = ZINC09462777
REMARK  9 active torsions:
REMARK  status: ('A' for Active; 'I' for Inactive)
REMARK    1  A    between atoms: C_1  and  C_2
REMARK    2  A    between atoms: C_5  and  S_26
REMARK    3  A    between atoms: C_7  and  N_8
REMARK    4  A    between atoms: C_9  and  C_11
REMARK    5  A    between atoms: C_11  and  N_56
REMARK    6  A    between atoms: C_19  and  C_21
REMARK    7  A    between atoms: S_26  and  N_29
REMARK    8  A    between atoms: N_29  and  C_30
REMARK    9  A    between atoms: N_29  and  C_31
REMARK                            x       y       z     vdW  Elec       q    Type
REMARK                         _______ _______ _______ _____ _____    ______ ____
ROOT
ATOM      1  N   UNL     1       3.486  -1.745  -4.451  0.00  0.00    -0.287 N 
ATOM      2  C   UNL     1       3.536  -2.070  -3.144  0.00  0.00    +0.201 C 
ATOM      3  O   UNL     1       4.583  -2.429  -2.647  0.00  0.00    -0.278 OA
ATOM      4  H   UNL     1       2.635  -1.535  -4.866  0.00  0.00    +0.155 HD
ENDROOT
BRANCH   1  11
ATOM      5  C   UNL     1       3.284  -2.114  -7.265  0.00  0.00    +0.045 C 
ATOM      6  C   UNL     1       4.609  -1.886  -6.585  0.00  0.00    -0.029 A 
ATOM      7  C   UNL     1       5.771  -1.851  -7.330  0.00  0.00    +0.007 A 
ATOM      8  C   UNL     1       6.988  -1.640  -6.706  0.00  0.00    +0.029 A 
ATOM      9  C   UNL     1       7.044  -1.465  -5.335  0.00  0.00    +0.107 A 
ATOM     10  C   UNL     1       5.885  -1.494  -4.586  0.00  0.00    +0.052 A 
ATOM     11  C   UNL     1       4.662  -1.710  -5.208  0.00  0.00    +0.038 A 
BRANCH   9  12
ATOM     12  S   UNL     1       8.597  -1.197  -4.546  0.00  0.00    +0.060 S 
ATOM     13  O   UNL     1       8.440  -1.605  -3.194  0.00  0.00    -0.153 OA
ATOM     14  O   UNL     1       9.588  -1.751  -5.400  0.00  0.00    -0.153 OA
BRANCH  12  15
ATOM     15  N   UNL     1       8.856   0.439  -4.519  0.00  0.00    -0.183 NA
ATOM     16  C   UNL     1       8.386   1.236  -3.384  0.00  0.00    +0.131 C 
ATOM     17  C   UNL     1       9.555   1.088  -5.631  0.00  0.00    +0.131 C 
ENDBRANCH  12  15
ENDBRANCH   9  12
ENDBRANCH   1  11
BRANCH   2  18
ATOM     18  C   UNL     1       2.291  -1.987  -2.299  0.00  0.00    +0.020 C 
BRANCH  18  27
ATOM     19  C   UNL     1       3.009  -3.803  -0.865  0.00  0.00    -0.072 C 
ATOM     20  C   UNL     1       3.711  -4.064   0.478  0.00  0.00    +0.024 C 
ATOM     21  C   UNL     1       2.877  -3.449   1.555  0.00  0.00    -0.010 A 
ATOM     22  C   UNL     1       1.860  -2.558   1.387  0.00  0.00    -0.046 A 
ATOM     23  C   UNL     1       1.220  -2.120   2.544  0.00  0.00    +0.010 A 
ATOM     24  C   UNL     1       1.619  -2.578   3.753  0.00  0.00    +0.045 A 
ATOM     25  S   UNL     1       2.953  -3.681   3.308  0.00  0.00    -0.101 S 
ATOM     26  C   UNL     1       1.485  -2.099  -0.019  0.00  0.00    +0.002 C 
ATOM     27  N   UNL     1       2.634  -2.369  -0.915  0.00  0.00    +0.393 N 
ATOM     28  H   UNL     1       3.435  -1.807  -0.604  0.00  0.00    -0.080 HD
BRANCH  26  29
ATOM     29  C   UNL     1       1.214  -0.617  -0.011  0.00  0.00    -0.019 A 
ATOM     30  C   UNL     1       0.025   0.033   0.005  0.00  0.00    +0.010 A 
ATOM     31  C   UNL     1       0.016   1.415   0.009  0.00  0.00    +0.008 A 
ATOM     32  C   UNL     1       1.197   2.080  -0.003  0.00  0.00    +0.045 A 
ATOM     33  S   UNL     1       2.375   0.739  -0.021  0.00  0.00    -0.103 S 
ENDBRANCH  26  29
ENDBRANCH  18  27
ENDBRANCH   2  18
TORSDOF 6
