REMARK  Name = ZINC11425976
REMARK  8 active torsions:
REMARK  status: ('A' for Active; 'I' for Inactive)
REMARK    1  A    between atoms: C_1  and  C_2
REMARK    2  A    between atoms: C_2  and  C_3
REMARK    3  A    between atoms: C_6  and  C_15
REMARK    4  A    between atoms: C_13  and  O_14
REMARK    5  A    between atoms: C_15  and  S_16
REMARK    6  A    between atoms: S_16  and  C_17
REMARK    7  A    between atoms: C_20  and  C_23
REMARK    8  A    between atoms: N_21  and  N_22
REMARK                            x       y       z     vdW  Elec       q    Type
REMARK                         _______ _______ _______ _____ _____    ______ ____
ROOT
ATOM      1  S   UNL     1      -3.290  -0.206  -4.395  0.00  0.00    -0.080 S 
ENDROOT
BRANCH   1   2
ATOM      2  C   UNL     1      -2.310  -0.310  -5.856  0.00  0.00    +0.209 A 
ATOM      3  N   UNL     1      -1.708  -1.385  -6.315  0.00  0.00    -0.121 NA
ATOM      4  N   UNL     1      -1.080  -1.108  -7.402  0.00  0.00    -0.127 NA
ATOM      5  C   UNL     1      -1.243   0.160  -7.703  0.00  0.00    +0.183 A 
ATOM      6  N   UNL     1      -2.040   0.708  -6.725  0.00  0.00    -0.224 N 
BRANCH   5   7
ATOM      7  C   UNL     1      -0.680   0.864  -8.874  0.00  0.00    +0.039 A 
ATOM      8  C   UNL     1      -0.044   2.096  -8.713  0.00  0.00    +0.014 A 
ATOM      9  C   UNL     1       0.479   2.748  -9.810  0.00  0.00    +0.021 A 
ATOM     10  C   UNL     1       0.376   2.182 -11.070  0.00  0.00    +0.042 A 
ATOM     11  C   UNL     1      -0.252   0.960 -11.238  0.00  0.00    +0.040 A 
ATOM     12  C   UNL     1      -0.776   0.295 -10.147  0.00  0.00    +0.053 A 
ATOM     13 CL   UNL     1      -1.558  -1.240 -10.357  0.00  0.00    -0.083 Cl
ATOM     14 CL   UNL     1       1.038   3.010 -12.445  0.00  0.00    -0.083 Cl
ENDBRANCH   5   7
BRANCH   6  15
ATOM     15  N   UNL     1      -2.470   2.002  -6.639  0.00  0.00    -0.295 N 
ATOM     16  H   UNL     1      -1.778   2.584  -6.193  0.00  0.00    +0.163 HD
ATOM     17  H   UNL     1      -2.713   2.363  -7.550  0.00  0.00    +0.163 HD
ENDBRANCH   6  15
ENDBRANCH   1   2
BRANCH   1  18
ATOM     18  C   UNL     1      -3.245  -1.887  -3.715  0.00  0.00    +0.113 C 
BRANCH  18  22
ATOM     19  C   UNL     1      -1.828  -0.218   0.016  0.00  0.00    -0.005 A 
ATOM     20  C   UNL     1      -2.283  -0.748  -1.157  0.00  0.00    +0.019 A 
ATOM     21  C   UNL     1      -3.541  -1.360  -1.201  0.00  0.00    +0.022 A 
ATOM     22  C   UNL     1      -4.055  -1.937  -2.445  0.00  0.00    -0.020 A 
ATOM     23  C   UNL     1      -5.283  -2.518  -2.423  0.00  0.00    +0.097 A 
ATOM     24  C   UNL     1      -6.022  -2.552  -1.223  0.00  0.00    +0.338 A 
ATOM     25  O   UNL     1      -7.121  -3.076  -1.217  0.00  0.00    -0.245 OA
ATOM     26  O   UNL     1      -5.544  -2.022  -0.086  0.00  0.00    -0.422 OA
ATOM     27  C   UNL     1      -4.332  -1.429  -0.039  0.00  0.00    +0.143 A 
ATOM     28  C   UNL     1      -3.854  -0.886   1.143  0.00  0.00    +0.092 A 
ATOM     29  C   UNL     1      -2.604  -0.289   1.171  0.00  0.00    +0.124 A 
BRANCH  19  31
ATOM     30  C   UNL     1      -0.643   1.960  -0.002  0.00  0.00    +0.009 C 
ATOM     31  C   UNL     1      -0.473   0.441   0.063  0.00  0.00    +0.035 C 
ENDBRANCH  19  31
BRANCH  29  32
ATOM     32  O   UNL     1      -2.134   0.237   2.330  0.00  0.00    -0.506 OA
ATOM     33  H   UNL     1      -2.369   1.166   2.465  0.00  0.00    +0.292 HD
ENDBRANCH  29  32
ENDBRANCH  18  22
ENDBRANCH   1  18
TORSDOF 7
