REMARK  Name = ZINC40980614
REMARK  15 active torsions:
REMARK  status: ('A' for Active; 'I' for Inactive)
REMARK    1  A    between atoms: C_1  and  C_2
REMARK    2  A    between atoms: C_2  and  C_3
REMARK    3  A    between atoms: C_3  and  S_4
REMARK    4  A    between atoms: S_4  and  C_5
REMARK    5  A    between atoms: C_10  and  C_21
REMARK    6  A    between atoms: C_12  and  C_16
REMARK    7  A    between atoms: C_13  and  C_15
REMARK    8  A    between atoms: C_16  and  O_18
REMARK    9  A    between atoms: O_18  and  C_19
REMARK   10  A    between atoms: C_19  and  C_20
REMARK   11  A    between atoms: C_23  and  O_30
REMARK   12  A    between atoms: C_24  and  O_28
REMARK   13  A    between atoms: O_28  and  C_29
REMARK   14  A    between atoms: O_30  and  C_31
REMARK   15  A    between atoms: C_31  and  C_32
REMARK                            x       y       z     vdW  Elec       q    Type
REMARK                         _______ _______ _______ _____ _____    ______ ____
ROOT
ATOM      1  C   UNL     1      -3.139  -2.841  -0.438  0.00  0.00    +0.210 A 
ATOM      2  N   UNL     1      -4.160  -1.973  -0.378  0.00  0.00    -0.187 NA
ATOM      3  C   UNL     1      -5.273  -2.624  -0.173  0.00  0.00    +0.219 A 
ATOM      4  N   UNL     1      -4.981  -3.945  -0.093  0.00  0.00    -0.220 N 
ATOM      5  N   UNL     1      -3.603  -4.061  -0.275  0.00  0.00    -0.141 NA
ATOM      6  C   UNL     1      -5.983  -4.982   0.141  0.00  0.00    +0.179 C 
ATOM      7  C   UNL     1      -7.359  -4.395  -0.024  0.00  0.00    +0.082 C 
ATOM      8  C   UNL     1      -7.588  -3.075  -0.102  0.00  0.00    +0.020 C 
ATOM      9  N   UNL     1      -6.573  -2.152  -0.048  0.00  0.00    -0.287 N 
ATOM     10  C   UNL     1      -9.006  -2.589  -0.255  0.00  0.00    +0.061 C 
ATOM     11  H   UNL     1      -6.757  -1.208   0.075  0.00  0.00    +0.155 HD
ENDROOT
BRANCH   6  12
ATOM     12  C   UNL     1      -5.831  -5.520   1.540  0.00  0.00    -0.014 A 
ATOM     13  C   UNL     1      -5.551  -6.860   1.737  0.00  0.00    +0.055 A 
ATOM     14  C   UNL     1      -5.411  -7.357   3.022  0.00  0.00    +0.163 A 
ATOM     15  C   UNL     1      -5.552  -6.506   4.114  0.00  0.00    +0.175 A 
ATOM     16  C   UNL     1      -5.832  -5.164   3.910  0.00  0.00    +0.063 A 
ATOM     17  C   UNL     1      -5.966  -4.673   2.624  0.00  0.00    +0.025 A 
ATOM     18 BR   UNL     1      -6.026  -4.003   5.391  0.00  0.00    -0.046 Br
BRANCH  15  19
ATOM     19  O   UNL     1      -5.416  -6.990   5.378  0.00  0.00    -0.490 OA
ATOM     20  C   UNL     1      -4.104  -6.966   5.944  0.00  0.00    +0.277 C 
ENDBRANCH  15  19
BRANCH  14  21
ATOM     21  O   UNL     1      -5.136  -8.675   3.217  0.00  0.00    -0.489 OA
BRANCH  21  22
ATOM     22  C   UNL     1      -5.005  -9.490   2.050  0.00  0.00    +0.226 C 
ATOM     23  C   UNL     1      -4.698 -10.930   2.466  0.00  0.00    +0.048 C 
ENDBRANCH  21  22
ENDBRANCH  14  21
ENDBRANCH   6  12
BRANCH   7  24
ATOM     24  C   UNL     1      -8.462  -5.275  -0.101  0.00  0.00    +0.339 C 
ATOM     25  O   UNL     1      -8.657  -5.918  -1.116  0.00  0.00    -0.245 OA
BRANCH  24  26
ATOM     26  O   UNL     1      -9.298  -5.402   0.950  0.00  0.00    -0.462 OA
BRANCH  26  27
ATOM     27  C   UNL     1     -10.392  -6.309   0.803  0.00  0.00    +0.229 C 
ATOM     28  C   UNL     1     -11.223  -6.319   2.087  0.00  0.00    +0.048 C 
ENDBRANCH  26  27
ENDBRANCH  24  26
ENDBRANCH   7  24
BRANCH   1  29
ATOM     29  S   UNL     1      -1.450  -2.416  -0.703  0.00  0.00    -0.084 S 
BRANCH  29  30
ATOM     30  C   UNL     1      -1.470  -0.608  -0.850  0.00  0.00    +0.077 C 
BRANCH  30  32
ATOM     31  C   UNL     1      -0.062   1.425  -1.208  0.00  0.00    +0.004 C 
ATOM     32  C   UNL     1      -0.046  -0.100  -1.085  0.00  0.00    +0.008 C 
ENDBRANCH  30  32
ENDBRANCH  29  30
ENDBRANCH   1  29
TORSDOF 10
