REMARK  Name = ZINC06282599
REMARK  10 active torsions:
REMARK  status: ('A' for Active; 'I' for Inactive)
REMARK    1  A    between atoms: C_1  and  O_2
REMARK    2  A    between atoms: O_2  and  C_3
REMARK    3  A    between atoms: C_10  and  C_15
REMARK    4  A    between atoms: C_15  and  C_17
REMARK    5  A    between atoms: C_15  and  N_71
REMARK    6  A    between atoms: N_21  and  C_22
REMARK    7  A    between atoms: C_28  and  C_29
REMARK    8  A    between atoms: C_28  and  N_71
REMARK    9  A    between atoms: C_35  and  C_36
REMARK   10  A    between atoms: C_35  and  N_71
REMARK                            x       y       z     vdW  Elec       q    Type
REMARK                         _______ _______ _______ _____ _____    ______ ____
ROOT
ATOM      1  C   UNL     1       0.907   3.981   1.331  0.00  0.00    +0.040 C 
ENDROOT
BRANCH   1   9
ATOM      2  C   UNL     1      -1.861   6.949  -3.355  0.00  0.00    +0.121 A 
ATOM      3  C   UNL     1      -1.757   5.908  -4.274  0.00  0.00    +0.047 A 
ATOM      4  C   UNL     1      -1.162   4.717  -3.921  0.00  0.00    +0.030 A 
ATOM      5  C   UNL     1      -0.658   4.546  -2.636  0.00  0.00    +0.049 A 
ATOM      6  C   UNL     1      -0.761   5.596  -1.704  0.00  0.00    +0.002 A 
ATOM      7  C   UNL     1      -1.368   6.801  -2.075  0.00  0.00    +0.055 A 
ATOM      8  C   UNL     1      -0.233   5.400  -0.353  0.00  0.00    +0.017 A 
ATOM      9  C   UNL     1       0.349   4.213  -0.050  0.00  0.00    +0.011 A 
ATOM     10  C   UNL     1       0.427   3.192  -1.021  0.00  0.00    +0.251 A 
ATOM     11  O   UNL     1       0.950   2.131  -0.726  0.00  0.00    -0.268 OA
ATOM     12  N   UNL     1      -0.059   3.360  -2.263  0.00  0.00    -0.322 N 
ATOM     13  H   UNL     1       0.011   2.637  -2.905  0.00  0.00    +0.169 HD
BRANCH   2  15
ATOM     14  C   UNL     1      -2.940   8.207  -5.061  0.00  0.00    +0.277 C 
ATOM     15  O   UNL     1      -2.451   8.118  -3.721  0.00  0.00    -0.495 OA
ENDBRANCH   2  15
ENDBRANCH   1   9
BRANCH   1  16
ATOM     16  C   UNL     1       0.166   2.846   1.988  0.00  0.00    +0.143 A 
ATOM     17  N   UNL     1       0.199   1.583   1.638  0.00  0.00    -0.115 NA
ATOM     18  N   UNL     1      -0.565   0.927   2.442  0.00  0.00    -0.023 NA
ATOM     19  N   UNL     1      -1.084   1.739   3.296  0.00  0.00    -0.044 NA
ATOM     20  N   UNL     1      -0.653   2.930   3.053  0.00  0.00    -0.227 N 
BRANCH  20  21
ATOM     21  C   UNL     1      -0.995   4.147   3.793  0.00  0.00    +0.111 C 
ATOM     22  C   UNL     1      -0.467   4.038   5.226  0.00  0.00    +0.027 C 
ATOM     23  C   UNL     1      -0.824   5.309   5.999  0.00  0.00    +0.002 C 
ATOM     24  C   UNL     1      -2.344   5.479   6.027  0.00  0.00    +0.000 C 
ATOM     25  C   UNL     1      -2.871   5.589   4.595  0.00  0.00    +0.002 C 
ATOM     26  C   UNL     1      -2.515   4.318   3.821  0.00  0.00    +0.027 C 
ENDBRANCH  20  21
ENDBRANCH   1  16
BRANCH   1  27
ATOM     27  N   UNL     1       2.336   3.620   1.214  0.00  0.00    +0.397 N 
ATOM     28  H   UNL     1       2.426   2.814   0.584  0.00  0.00    -0.079 HD
BRANCH  27  29
ATOM     29  C   UNL     1       2.875   3.255   2.541  0.00  0.00    -0.041 C 
BRANCH  29  30
ATOM     30  C   UNL     1       2.629   1.786   2.771  0.00  0.00    -0.064 A 
ATOM     31  C   UNL     1       1.700   1.379   3.709  0.00  0.00    +0.002 A 
ATOM     32  C   UNL     1       1.471   0.032   3.917  0.00  0.00    +0.000 A 
ATOM     33  C   UNL     1       2.179  -0.909   3.192  0.00  0.00    +0.000 A 
ATOM     34  C   UNL     1       3.113  -0.502   2.258  0.00  0.00    +0.000 A 
ATOM     35  C   UNL     1       3.338   0.845   2.047  0.00  0.00    +0.002 A 
ENDBRANCH  29  30
ENDBRANCH  27  29
BRANCH  27  36
ATOM     36  C   UNL     1       3.099   4.755   0.653  0.00  0.00    -0.001 C 
BRANCH  36  37
ATOM     37  C   UNL     1       3.170   4.592  -0.843  0.00  0.00    +0.089 A 
ATOM     38  C   UNL     1       2.359   5.185  -1.738  0.00  0.00    +0.042 A 
ATOM     39  C   UNL     1       2.779   4.756  -3.018  0.00  0.00    +0.041 A 
ATOM     40  C   UNL     1       3.821   3.927  -2.829  0.00  0.00    +0.195 A 
ATOM     41  O   UNL     1       4.053   3.832  -1.510  0.00  0.00    -0.470 OA
ENDBRANCH  36  37
ENDBRANCH  27  36
ENDBRANCH   1  27
TORSDOF 9
