REMARK  Name = ZINC02275765
REMARK  14 active torsions:
REMARK  status: ('A' for Active; 'I' for Inactive)
REMARK    1  A    between atoms: C_1  and  C_2
REMARK    2  A    between atoms: C_2  and  C_3
REMARK    3  A    between atoms: C_3  and  C_4
REMARK    4  A    between atoms: C_4  and  C_5
REMARK    5  A    between atoms: C_11  and  N_15
REMARK    6  A    between atoms: N_15  and  C_16
REMARK    7  A    between atoms: C_16  and  C_17
REMARK    8  A    between atoms: C_17  and  N_66
REMARK    9  A    between atoms: C_18  and  C_19
REMARK   10  A    between atoms: C_18  and  N_66
REMARK   11  A    between atoms: C_20  and  C_21
REMARK   12  A    between atoms: C_20  and  N_66
REMARK   13  A    between atoms: C_26  and  C_29
REMARK   14  A    between atoms: C_26  and  C_30
REMARK                            x       y       z     vdW  Elec       q    Type
REMARK                         _______ _______ _______ _____ _____    ______ ____
ROOT
ATOM      1  C   UNL     1       1.238   0.678   3.611  0.00  0.00    +0.048 A 
ATOM      2  C   UNL     1       1.516   1.899   4.213  0.00  0.00    +0.003 A 
ATOM      3  C   UNL     1       0.620   2.443   5.100  0.00  0.00    -0.026 A 
ATOM      4  C   UNL     1      -0.570   1.742   5.402  0.00  0.00    +0.037 A 
ATOM      5  C   UNL     1      -1.646   2.147   6.326  0.00  0.00    +0.093 A 
ATOM      6  C   UNL     1      -2.721   1.258   6.439  0.00  0.00    +0.080 A 
ATOM      7  C   UNL     1      -3.791   1.535   7.279  0.00  0.00    +0.136 A 
ATOM      8  N   UNL     1      -3.770   2.671   7.976  0.00  0.00    -0.220 NA
ATOM      9  C   UNL     1      -2.748   3.499   7.857  0.00  0.00    +0.224 A 
ATOM     10  N   UNL     1      -1.723   3.269   7.076  0.00  0.00    -0.234 NA
ATOM     11  S   UNL     1      -2.315  -0.079   5.350  0.00  0.00    -0.064 S 
ATOM     12  C   UNL     1      -0.753   0.512   4.746  0.00  0.00    +0.111 A 
ATOM     13  N   UNL     1       0.127   0.029   3.895  0.00  0.00    -0.244 NA
ATOM     14  C   UNL     1       0.869   3.769   5.768  0.00  0.00    +0.070 C 
ATOM     15  C   UNL     1       2.346   4.144   5.633  0.00  0.00    +0.068 C 
ATOM     16  O   UNL     1       2.735   3.974   4.266  0.00  0.00    -0.369 OA
ATOM     17  C   UNL     1       2.800   2.606   3.864  0.00  0.00    +0.197 C 
ATOM     18  C   UNL     1       2.546   5.603   6.047  0.00  0.00    +0.041 C 
ATOM     19  C   UNL     1       3.191   3.232   6.525  0.00  0.00    +0.041 C 
ENDROOT
BRANCH   7  20
ATOM     20  N   UNL     1      -4.855   0.652   7.391  0.00  0.00    -0.330 N 
ATOM     21  H   UNL     1      -4.858  -0.171   6.878  0.00  0.00    +0.147 HD
BRANCH  20  22
ATOM     22  C   UNL     1      -5.975   0.964   8.283  0.00  0.00    +0.084 C 
BRANCH  22  23
ATOM     23  C   UNL     1      -7.006  -0.165   8.220  0.00  0.00    -0.060 C 
BRANCH  23  24
ATOM     24  N   UNL     1      -8.117   0.154   9.140  0.00  0.00    +0.380 N 
ATOM     25  H   UNL     1      -7.731   0.376  10.065  0.00  0.00    -0.082 HD
BRANCH  24  26
ATOM     26  C   UNL     1      -8.869   1.324   8.639  0.00  0.00    -0.082 C 
ATOM     27  C   UNL     1      -9.440   1.040   7.248  0.00  0.00    -0.017 C 
ENDBRANCH  24  26
BRANCH  24  28
ATOM     28  C   UNL     1      -9.020  -1.011   9.264  0.00  0.00    -0.082 C 
ATOM     29  C   UNL     1      -9.933  -0.798  10.473  0.00  0.00    -0.017 C 
ENDBRANCH  24  28
ENDBRANCH  23  24
ENDBRANCH  22  23
ENDBRANCH  20  22
ENDBRANCH   7  20
BRANCH   1  30
ATOM     30  C   UNL     1       2.218   0.089   2.629  0.00  0.00    +0.056 C 
BRANCH  30  31
ATOM     31  C   UNL     1       1.876   0.568   1.217  0.00  0.00    +0.006 C 
BRANCH  31  33
ATOM     32  C   UNL     1       2.529   0.450  -1.192  0.00  0.00    +0.004 C 
ATOM     33  C   UNL     1       2.871  -0.030   0.221  0.00  0.00    -0.003 C 
ENDBRANCH  31  33
ENDBRANCH  30  31
ENDBRANCH   1  30
TORSDOF 9
