REMARK  Name = ZINC22780758
REMARK  7 active torsions:
REMARK  status: ('A' for Active; 'I' for Inactive)
REMARK    1  A    between atoms: C_4  and  C_7
REMARK    2  A    between atoms: C_7  and  C_9
REMARK    3  A    between atoms: C_7  and  N_14
REMARK    4  A    between atoms: C_15  and  C_17
REMARK    5  A    between atoms: C_17  and  N_18
REMARK    6  A    between atoms: N_21  and  C_24
REMARK    7  A    between atoms: C_24  and  C_25
REMARK                            x       y       z     vdW  Elec       q    Type
REMARK                         _______ _______ _______ _____ _____    ______ ____
ROOT
ATOM      1  N   UNL     1       5.956  -3.917  -2.914  0.00  0.00    -0.292 NA
ATOM      2  C   UNL     1       6.810  -4.397  -1.819  0.00  0.00    +0.100 C 
ATOM      3  C   UNL     1       8.214  -4.680  -2.357  0.00  0.00    +0.100 C 
ATOM      4  N   UNL     1       8.132  -5.678  -3.432  0.00  0.00    -0.294 NA
ATOM      5  C   UNL     1       7.278  -5.198  -4.528  0.00  0.00    +0.100 C 
ATOM      6  C   UNL     1       5.874  -4.915  -3.990  0.00  0.00    +0.100 C 
ENDROOT
BRANCH   1   7
ATOM      7  C   UNL     1       4.619  -3.561  -2.422  0.00  0.00    +0.180 C 
BRANCH   7   9
ATOM      8  N   UNL     1       3.611  -1.865  -0.930  0.00  0.00    -0.303 N 
ATOM      9  C   UNL     1       4.721  -2.370  -1.504  0.00  0.00    +0.228 C 
ATOM     10  O   UNL     1       5.802  -1.868  -1.281  0.00  0.00    -0.274 OA
ATOM     11  H   UNL     1       2.747  -2.267  -1.108  0.00  0.00    +0.150 HD
BRANCH   8  12
ATOM     12  C   UNL     1       3.711  -0.707  -0.038  0.00  0.00    +0.140 C 
BRANCH  12  16
ATOM     13  C   UNL     1      -0.017   1.378   0.010  0.00  0.00    +0.000 A 
ATOM     14  C   UNL     1       1.171   2.086   0.002  0.00  0.00    +0.000 A 
ATOM     15  C   UNL     1       2.377   1.411  -0.013  0.00  0.00    +0.006 A 
ATOM     16  C   UNL     1       2.396   0.029  -0.020  0.00  0.00    -0.022 A 
ATOM     17  C   UNL     1       1.208  -0.679  -0.012  0.00  0.00    +0.006 A 
ATOM     18  C   UNL     1       0.002  -0.004   0.002  0.00  0.00    +0.000 A 
ENDBRANCH  12  16
BRANCH  12  19
ATOM     19  C   UNL     1       4.044  -1.175   1.356  0.00  0.00    +0.014 A 
ATOM     20  C   UNL     1       4.883  -0.621   2.264  0.00  0.00    +0.013 A 
ATOM     21  C   UNL     1       5.034  -1.230   3.496  0.00  0.00    +0.008 A 
ATOM     22  C   UNL     1       4.338  -2.363   3.759  0.00  0.00    +0.045 A 
ATOM     23  S   UNL     1       3.428  -2.598   2.241  0.00  0.00    -0.099 S 
ENDBRANCH  12  19
ENDBRANCH   8  12
ENDBRANCH   7   9
ENDBRANCH   1   7
BRANCH   4  24
ATOM     24  C   UNL     1       9.470  -6.034  -3.924  0.00  0.00    +0.137 C 
BRANCH  24  25
ATOM     25  C   UNL     1       9.367  -7.224  -4.842  0.00  0.00    +0.037 A 
ATOM     26  C   UNL     1       9.688  -7.110  -6.178  0.00  0.00    +0.093 A 
ATOM     27  C   UNL     1       9.587  -8.223  -7.013  0.00  0.00    +0.259 A 
ATOM     28  O   UNL     1       9.870  -8.127  -8.197  0.00  0.00    -0.267 OA
ATOM     29  N   UNL     1       9.172  -9.421  -6.503  0.00  0.00    -0.264 N 
ATOM     30  C   UNL     1       9.023 -10.601  -7.193  0.00  0.00    +0.104 A 
ATOM     31  C   UNL     1       8.608 -11.709  -6.580  0.00  0.00    +0.067 A 
ATOM     32  S   UNL     1       8.387 -11.138  -4.903  0.00  0.00    -0.059 S 
ATOM     33  C   UNL     1       8.874  -9.446  -5.167  0.00  0.00    +0.158 A 
ATOM     34  N   UNL     1       8.971  -8.406  -4.377  0.00  0.00    -0.338 N 
ATOM     35  H   UNL     1       8.747  -8.498  -3.438  0.00  0.00    +0.168 HD
ENDBRANCH  24  25
ENDBRANCH   4  24
TORSDOF 7
