REMARK  Name = ZINC04293621
REMARK  14 active torsions:
REMARK  status: ('A' for Active; 'I' for Inactive)
REMARK    1  A    between atoms: C_1  and  C_2
REMARK    2  A    between atoms: C_2  and  O_3
REMARK    3  A    between atoms: O_3  and  C_4
REMARK    4  A    between atoms: C_4  and  C_6
REMARK    5  A    between atoms: P_16  and  O_18
REMARK    6  A    between atoms: O_18  and  C_19
REMARK    7  A    between atoms: C_19  and  C_20
REMARK    8  A    between atoms: C_22  and  C_38
REMARK    9  A    between atoms: P_32  and  O_34
REMARK   10  A    between atoms: O_34  and  C_35
REMARK   11  A    between atoms: C_35  and  C_36
REMARK   12  A    between atoms: C_38  and  O_40
REMARK   13  A    between atoms: O_40  and  C_41
REMARK   14  A    between atoms: C_41  and  C_42
REMARK                            x       y       z     vdW  Elec       q    Type
REMARK                         _______ _______ _______ _____ _____    ______ ____
ROOT
ATOM      1  C   UNL     1       0.933   4.166  -0.170  0.00  0.00    +0.196 C 
ATOM      2  C   UNL     1       0.529   4.559   1.247  0.00  0.00    +0.083 C 
ATOM      3  C   UNL     1       1.221   3.845   2.373  0.00  0.00    +0.003 A 
ATOM      4  C   UNL     1       0.931   4.330   3.650  0.00  0.00    +0.027 A 
ATOM      5  C   UNL     1       1.480   3.758   4.776  0.00  0.00    +0.041 A 
ATOM      6  C   UNL     1       2.336   2.679   4.644  0.00  0.00    +0.023 A 
ATOM      7  C   UNL     1       2.634   2.200   3.390  0.00  0.00    +0.048 A 
ATOM      8  C   UNL     1       2.088   2.786   2.239  0.00  0.00    +0.134 A 
ATOM      9  O   UNL     1       2.517   2.237   1.079  0.00  0.00    -0.423 OA
ATOM     10  P   UNL     1       1.674   2.503  -0.252  0.00  0.00    +0.400 P 
ATOM     11  O   UNL     1       2.566   2.417  -1.429  0.00  0.00    -0.243 OA
ATOM     12 CL   UNL     1       1.101   4.387   6.349  0.00  0.00    -0.084 Cl
ATOM     13  C   UNL     1       1.126   5.947   0.962  0.00  0.00    +0.196 C 
ATOM     14  C   UNL     1       1.982   5.288  -0.138  0.00  0.00    +0.083 C 
ATOM     15  C   UNL     1       2.091   6.038  -1.425  0.00  0.00    +0.003 A 
ATOM     16  C   UNL     1       2.982   5.484  -2.346  0.00  0.00    +0.027 A 
ATOM     17  C   UNL     1       3.163   6.039  -3.593  0.00  0.00    +0.041 A 
ATOM     18  C   UNL     1       2.449   7.172  -3.945  0.00  0.00    +0.023 A 
ATOM     19  C   UNL     1       1.579   7.731  -3.040  0.00  0.00    +0.048 A 
ATOM     20  C   UNL     1       1.396   7.176  -1.765  0.00  0.00    +0.134 A 
ATOM     21  O   UNL     1       0.527   7.853  -0.984  0.00  0.00    -0.423 OA
ATOM     22  P   UNL     1      -0.098   7.117   0.289  0.00  0.00    +0.400 P 
ATOM     23  O   UNL     1      -1.317   6.381  -0.113  0.00  0.00    -0.243 OA
ATOM     24 CL   UNL     1       4.277   5.324  -4.716  0.00  0.00    -0.084 Cl
ENDROOT
BRANCH   1  25
ATOM     25  C   UNL     1      -0.153   4.377  -1.193  0.00  0.00    +0.328 C 
ATOM     26  O   UNL     1       0.116   4.856  -2.269  0.00  0.00    -0.249 OA
BRANCH  25  27
ATOM     27  O   UNL     1      -1.419   4.034  -0.908  0.00  0.00    -0.464 OA
BRANCH  27  29
ATOM     28  C   UNL     1      -3.786   3.816  -1.438  0.00  0.00    +0.048 C 
ATOM     29  C   UNL     1      -2.413   4.266  -1.941  0.00  0.00    +0.229 C 
ENDBRANCH  27  29
ENDBRANCH  25  27
ENDBRANCH   1  25
BRANCH  13  30
ATOM     30  C   UNL     1       1.920   6.517   2.109  0.00  0.00    +0.328 C 
ATOM     31  O   UNL     1       3.118   6.369   2.147  0.00  0.00    -0.249 OA
BRANCH  30  32
ATOM     32  O   UNL     1       1.295   7.190   3.089  0.00  0.00    -0.464 OA
BRANCH  32  33
ATOM     33  C   UNL     1       2.123   7.711   4.162  0.00  0.00    +0.229 C 
ATOM     34  C   UNL     1       1.241   8.442   5.177  0.00  0.00    +0.048 C 
ENDBRANCH  32  33
ENDBRANCH  30  32
ENDBRANCH  13  30
BRANCH  10  35
ATOM     35  O   UNL     1       0.507   1.401  -0.379  0.00  0.00    -0.299 OA
BRANCH  35  36
ATOM     36  C   UNL     1       0.770   0.008  -0.565  0.00  0.00    +0.168 C 
ATOM     37  C   UNL     1      -0.554  -0.754  -0.645  0.00  0.00    +0.035 C 
ENDBRANCH  35  36
ENDBRANCH  10  35
BRANCH  22  38
ATOM     38  O   UNL     1      -0.473   8.208   1.412  0.00  0.00    -0.299 OA
BRANCH  38  39
ATOM     39  C   UNL     1      -1.484   9.201   1.226  0.00  0.00    +0.168 C 
ATOM     40  C   UNL     1      -1.582  10.070   2.481  0.00  0.00    +0.035 C 
ENDBRANCH  38  39
ENDBRANCH  22  38
TORSDOF 10
