REMARK  Name = ZINC34831327
REMARK  12 active torsions:
REMARK  status: ('A' for Active; 'I' for Inactive)
REMARK    1  A    between atoms: C_1  and  C_2
REMARK    2  A    between atoms: C_2  and  N_3
REMARK    3  A    between atoms: N_6  and  C_9
REMARK    4  A    between atoms: C_10  and  C_22
REMARK    5  A    between atoms: C_11  and  C_21
REMARK    6  A    between atoms: N_13  and  C_14
REMARK    7  A    between atoms: C_22  and  N_23
REMARK    8  A    between atoms: N_23  and  C_24
REMARK    9  A    between atoms: C_24  and  C_25
REMARK   10  A    between atoms: C_25  and  C_26
REMARK   11  A    between atoms: C_25  and  C_27
REMARK   12  A    between atoms: C_28  and  C_30
REMARK                            x       y       z     vdW  Elec       q    Type
REMARK                         _______ _______ _______ _____ _____    ______ ____
ROOT
ATOM      1  C   UNL     1       4.096  -3.565  -2.595  0.00  0.00    +0.130 A 
ATOM      2  C   UNL     1       3.462  -4.768  -2.660  0.00  0.00    +0.032 A 
ATOM      3  C   UNL     1       4.368  -5.704  -3.166  0.00  0.00    +0.067 A 
ATOM      4  N   UNL     1       5.504  -5.097  -3.399  0.00  0.00    -0.170 NA
ATOM      5  N   UNL     1       5.364  -3.747  -3.055  0.00  0.00    -0.218 N 
ATOM      6  C   UNL     1       4.085  -7.165  -3.404  0.00  0.00    +0.068 C 
ENDROOT
BRANCH   1  10
ATOM      7  N   UNL     1       3.364   0.310  -1.365  0.00  0.00    +0.382 N 
ATOM      8  C   UNL     1       3.595  -0.014  -2.778  0.00  0.00    -0.060 C 
ATOM      9  C   UNL     1       2.992  -1.387  -3.091  0.00  0.00    +0.088 C 
ATOM     10  N   UNL     1       3.547  -2.367  -2.145  0.00  0.00    -0.318 N 
ATOM     11  C   UNL     1       3.505  -2.046  -0.710  0.00  0.00    +0.088 C 
ATOM     12  C   UNL     1       4.084  -0.642  -0.509  0.00  0.00    -0.060 C 
ATOM     13  H   UNL     1       2.376   0.258  -1.168  0.00  0.00    -0.082 HD
BRANCH   7  15
ATOM     14  C   UNL     1       3.012   2.676  -1.890  0.00  0.00    -0.017 C 
ATOM     15  C   UNL     1       3.845   1.671  -1.092  0.00  0.00    -0.082 C 
ENDBRANCH   7  15
ENDBRANCH   1  10
BRANCH   5  16
ATOM     16  C   UNL     1       6.353  -2.760  -3.162  0.00  0.00    +0.070 A 
ATOM     17  C   UNL     1       6.056  -1.539  -3.754  0.00  0.00    +0.028 A 
ATOM     18  C   UNL     1       7.032  -0.567  -3.859  0.00  0.00    +0.005 A 
ATOM     19  C   UNL     1       8.305  -0.808  -3.375  0.00  0.00    +0.038 A 
ATOM     20  C   UNL     1       8.605  -2.024  -2.785  0.00  0.00    +0.125 A 
ATOM     21  C   UNL     1       7.629  -2.999  -2.672  0.00  0.00    +0.066 A 
ATOM     22  F   UNL     1       9.850  -2.257  -2.314  0.00  0.00    -0.205 F 
ENDBRANCH   5  16
BRANCH   2  23
ATOM     23  C   UNL     1       2.036  -5.042  -2.257  0.00  0.00    +0.148 C 
BRANCH  23  24
ATOM     24  N   UNL     1       1.179  -5.018  -3.445  0.00  0.00    -0.297 N 
ATOM     25  C   UNL     1       0.500  -3.898  -3.764  0.00  0.00    +0.219 C 
ATOM     26  O   UNL     1       0.650  -2.890  -3.106  0.00  0.00    -0.275 OA
BRANCH  25  27
ATOM     27  C   UNL     1      -0.445  -3.898  -4.938  0.00  0.00    +0.075 C 
ATOM     28  C   UNL     1       0.355  -3.774  -6.236  0.00  0.00    +0.013 C 
ATOM     29  C   UNL     1      -0.604  -3.774  -7.428  0.00  0.00    +0.001 C 
ATOM     30  C   UNL     1      -1.568  -2.592  -7.307  0.00  0.00    +0.000 C 
ATOM     31  C   UNL     1      -2.368  -2.716  -6.009  0.00  0.00    +0.001 C 
ATOM     32  C   UNL     1      -1.408  -2.716  -4.817  0.00  0.00    +0.013 C 
ENDBRANCH  25  27
BRANCH  24  33
ATOM     33  C   UNL     1       1.061  -6.211  -4.287  0.00  0.00    +0.111 C 
BRANCH  33  34
ATOM     34  C   UNL     1      -0.149  -7.033  -3.839  0.00  0.00    +0.000 C 
ATOM     35  C   UNL     1      -0.347  -8.212  -4.794  0.00  0.00    +0.009 C 
ATOM     36  C   UNL     1       0.088  -7.559  -2.422  0.00  0.00    +0.009 C 
ENDBRANCH  33  34
ENDBRANCH  24  33
ENDBRANCH  23  24
ENDBRANCH   2  23
TORSDOF 8
