REMARK  Name = ZINC12902164
REMARK  15 active torsions:
REMARK  status: ('A' for Active; 'I' for Inactive)
REMARK    1  A    between atoms: C_1  and  C_2
REMARK    2  A    between atoms: C_3  and  C_21
REMARK    3  A    between atoms: C_9  and  O_19
REMARK    4  A    between atoms: C_15  and  C_17
REMARK    5  A    between atoms: C_15  and  C_18
REMARK    6  A    between atoms: O_19  and  C_20
REMARK    7  A    between atoms: C_21  and  C_22
REMARK    8  A    between atoms: N_24  and  C_25
REMARK    9  A    between atoms: C_25  and  C_27
REMARK   10  A    between atoms: C_25  and  C_28
REMARK   11  A    between atoms: C_28  and  O_29
REMARK   12  A    between atoms: O_29  and  C_30
REMARK   13  A    between atoms: C_30  and  C_32
REMARK   14  A    between atoms: C_35  and  O_38
REMARK   15  A    between atoms: O_38  and  C_39
REMARK                            x       y       z     vdW  Elec       q    Type
REMARK                         _______ _______ _______ _____ _____    ______ ____
ROOT
ATOM      1  C   UNL     1       2.486   4.058  -0.000  0.00  0.00    +0.045 C 
ATOM      2  C   UNL     1       1.194   3.283   0.007  0.00  0.00    -0.026 A 
ATOM      3  C   UNL     1       1.192   1.945   0.244  0.00  0.00    +0.049 A 
ATOM      4  C   UNL     1      -0.025   1.235   0.248  0.00  0.00    +0.341 A 
ATOM      5  O   UNL     1      -0.019   0.035   0.461  0.00  0.00    -0.245 OA
ATOM      6  O   UNL     1      -1.193   1.859   0.016  0.00  0.00    -0.421 OA
ATOM      7  C   UNL     1      -1.233   3.189  -0.219  0.00  0.00    +0.149 A 
ATOM      8  C   UNL     1      -0.042   3.936  -0.233  0.00  0.00    +0.063 A 
ATOM      9  C   UNL     1      -0.089   5.318  -0.484  0.00  0.00    +0.134 A 
ATOM     10  C   UNL     1      -1.305   5.926  -0.712  0.00  0.00    +0.092 A 
ATOM     11  C   UNL     1      -2.486   5.182  -0.697  0.00  0.00    +0.131 A 
ATOM     12  C   UNL     1      -2.449   3.820  -0.454  0.00  0.00    +0.038 A 
ATOM     13  C   UNL     1      -3.707   2.988  -0.438  0.00  0.00    +0.046 C 
ATOM     14  C   UNL     1      -4.926   3.900  -0.275  0.00  0.00    +0.052 C 
ATOM     15  C   UNL     1      -4.799   5.054  -1.277  0.00  0.00    +0.105 C 
ATOM     16  O   UNL     1      -3.656   5.833  -0.923  0.00  0.00    -0.486 OA
ATOM     17  C   UNL     1      -6.055   5.926  -1.221  0.00  0.00    +0.055 C 
ATOM     18  C   UNL     1      -4.623   4.494  -2.690  0.00  0.00    +0.055 C 
ENDROOT
BRANCH   9  19
ATOM     19  O   UNL     1       1.054   6.049  -0.502  0.00  0.00    -0.494 OA
ATOM     20  C   UNL     1       0.926   7.448  -0.764  0.00  0.00    +0.277 C 
ENDBRANCH   9  19
BRANCH   3  21
ATOM     21  C   UNL     1       2.488   1.222   0.502  0.00  0.00    +0.138 C 
BRANCH  21  22
ATOM     22  C   UNL     1       3.060   0.734  -0.804  0.00  0.00    +0.218 C 
ATOM     23  O   UNL     1       2.472   0.952  -1.842  0.00  0.00    -0.275 OA
ATOM     24  N   UNL     1       4.224   0.055  -0.819  0.00  0.00    -0.309 N 
ATOM     25  H   UNL     1       4.694  -0.119   0.011  0.00  0.00    +0.149 HD
BRANCH  24  26
ATOM     26  C   UNL     1       4.780  -0.419  -2.089  0.00  0.00    +0.107 C 
ATOM     27  C   UNL     1       5.594   0.702  -2.739  0.00  0.00    +0.031 C 
BRANCH  26  28
ATOM     28  C   UNL     1       5.686  -1.624  -1.831  0.00  0.00    +0.254 C 
BRANCH  28  29
ATOM     29  O   UNL     1       6.832  -1.208  -1.042  0.00  0.00    -0.459 OA
BRANCH  29  30
ATOM     30  C   UNL     1       7.734  -2.157  -0.725  0.00  0.00    +0.339 C 
ATOM     31  O   UNL     1       7.568  -3.301  -1.098  0.00  0.00    -0.245 OA
BRANCH  30  32
ATOM     32  C   UNL     1       8.923  -1.807   0.074  0.00  0.00    +0.059 A 
ATOM     33  C   UNL     1       9.119  -0.490   0.499  0.00  0.00    +0.018 A 
ATOM     34  C   UNL     1      10.228  -0.169   1.250  0.00  0.00    +0.046 A 
ATOM     35  C   UNL     1      11.157  -1.149   1.575  0.00  0.00    +0.120 A 
ATOM     36  C   UNL     1      10.969  -2.459   1.150  0.00  0.00    +0.046 A 
ATOM     37  C   UNL     1       9.861  -2.790   0.404  0.00  0.00    +0.018 A 
BRANCH  35  38
ATOM     38  O   UNL     1      12.251  -0.828   2.311  0.00  0.00    -0.495 OA
ATOM     39  C   UNL     1      12.382   0.537   2.716  0.00  0.00    +0.277 C 
ENDBRANCH  35  38
ENDBRANCH  30  32
ENDBRANCH  29  30
ENDBRANCH  28  29
ENDBRANCH  26  28
ENDBRANCH  24  26
ENDBRANCH  21  22
ENDBRANCH   3  21
TORSDOF 9
