REMARK  Name = ZINC17085254
REMARK  11 active torsions:
REMARK  status: ('A' for Active; 'I' for Inactive)
REMARK    1  A    between atoms: C_1  and  C_2
REMARK    2  A    between atoms: C_2  and  C_3
REMARK    3  A    between atoms: C_3  and  C_4
REMARK    4  A    between atoms: C_4  and  N_5
REMARK    5  A    between atoms: C_8  and  C_19
REMARK    6  A    between atoms: N_12  and  C_13
REMARK    7  A    between atoms: C_19  and  C_20
REMARK    8  A    between atoms: N_22  and  C_23
REMARK    9  A    between atoms: C_26  and  O_32
REMARK   10  A    between atoms: C_28  and  N_29
REMARK   11  A    between atoms: O_32  and  C_33
REMARK                            x       y       z     vdW  Elec       q    Type
REMARK                         _______ _______ _______ _____ _____    ______ ____
ROOT
ATOM      1  N   UNL     1      -3.627   7.063   1.670  0.00  0.00    -0.250 N 
ATOM      2  C   UNL     1      -3.536   6.376   0.544  0.00  0.00    +0.235 C 
ATOM      3  O   UNL     1      -4.425   6.368  -0.280  0.00  0.00    -0.274 OA
ATOM      4  C   UNL     1      -2.245   5.598   0.346  0.00  0.00    +0.149 C 
ATOM      5  S   UNL     1      -1.362   6.023   1.899  0.00  0.00    -0.077 S 
ATOM      6  C   UNL     1      -2.619   7.075   2.610  0.00  0.00    +0.164 C 
ATOM      7  N   UNL     1      -2.589   7.711   3.758  0.00  0.00    -0.226 NA
ENDROOT
BRANCH   7   8
ATOM      8  C   UNL     1      -1.492   7.606   4.571  0.00  0.00    +0.067 A 
ATOM      9  C   UNL     1      -0.910   6.359   4.806  0.00  0.00    +0.028 A 
ATOM     10  C   UNL     1       0.198   6.261   5.622  0.00  0.00    +0.002 A 
ATOM     11  C   UNL     1       0.727   7.394   6.215  0.00  0.00    +0.000 A 
ATOM     12  C   UNL     1       0.152   8.632   5.990  0.00  0.00    +0.002 A 
ATOM     13  C   UNL     1      -0.953   8.745   5.172  0.00  0.00    +0.028 A 
ENDBRANCH   7   8
BRANCH   1  14
ATOM     14  C   UNL     1      -4.843   7.838   1.928  0.00  0.00    +0.115 C 
BRANCH  14  15
ATOM     15  C   UNL     1      -4.675   9.252   1.368  0.00  0.00    +0.019 C 
BRANCH  15  17
ATOM     16  C   UNL     1      -5.777  11.475   1.078  0.00  0.00    +0.004 C 
ATOM     17  C   UNL     1      -5.945  10.061   1.637  0.00  0.00    -0.002 C 
ENDBRANCH  15  17
ENDBRANCH  14  15
ENDBRANCH   1  14
BRANCH   4  18
ATOM     18  C   UNL     1      -2.513   4.094   0.255  0.00  0.00    +0.120 C 
BRANCH  18  19
ATOM     19  C   UNL     1      -1.205   3.357   0.124  0.00  0.00    +0.219 C 
ATOM     20  O   UNL     1      -0.161   3.974   0.105  0.00  0.00    -0.275 OA
ATOM     21  N   UNL     1      -1.195   2.013   0.028  0.00  0.00    -0.284 N 
ATOM     22  H   UNL     1      -2.032   1.524  -0.021  0.00  0.00    +0.155 HD
BRANCH  21  23
ATOM     23  C   UNL     1       0.023   1.322  -0.001  0.00  0.00    +0.064 A 
ATOM     24  C   UNL     1       1.122   1.878  -0.642  0.00  0.00    +0.029 A 
ATOM     25  C   UNL     1       2.321   1.193  -0.675  0.00  0.00    +0.047 A 
ATOM     26  C   UNL     1       2.427  -0.050  -0.068  0.00  0.00    +0.122 A 
ATOM     27  C   UNL     1       1.330  -0.606   0.572  0.00  0.00    +0.080 A 
ATOM     28  C   UNL     1       0.130   0.078   0.606  0.00  0.00    +0.151 A 
BRANCH  28  29
ATOM     29  N   UNL     1      -1.041  -0.516   1.290  0.00  0.00    +0.058 N 
ATOM     30  O   UNL     1      -0.924  -1.564   1.898  0.00  0.00    -0.126 OA
ATOM     31  O   UNL     1      -2.122   0.044   1.243  0.00  0.00    -0.126 OA
ENDBRANCH  28  29
BRANCH  26  32
ATOM     32  O   UNL     1       3.608  -0.723  -0.102  0.00  0.00    -0.495 OA
ATOM     33  C   UNL     1       4.696  -0.092  -0.778  0.00  0.00    +0.277 C 
ENDBRANCH  26  32
ENDBRANCH  21  23
ENDBRANCH  18  19
ENDBRANCH   4  18
TORSDOF 9
