REMARK  Name = ZINC12497338
REMARK  15 active torsions:
REMARK  status: ('A' for Active; 'I' for Inactive)
REMARK    1  A    between atoms: C_1  and  C_2
REMARK    2  A    between atoms: C_2  and  C_3
REMARK    3  A    between atoms: C_3  and  C_34
REMARK    4  A    between atoms: C_8  and  C_10
REMARK    5  A    between atoms: C_12  and  O_20
REMARK    6  A    between atoms: C_13  and  O_18
REMARK    7  A    between atoms: C_14  and  O_16
REMARK    8  A    between atoms: O_16  and  C_17
REMARK    9  A    between atoms: O_18  and  C_19
REMARK   10  A    between atoms: O_20  and  C_21
REMARK   11  A    between atoms: N_24  and  C_27
REMARK   12  A    between atoms: C_30  and  C_33
REMARK   13  A    between atoms: C_34  and  O_36
REMARK   14  A    between atoms: O_36  and  C_37
REMARK   15  A    between atoms: C_37  and  C_38
REMARK                            x       y       z     vdW  Elec       q    Type
REMARK                         _______ _______ _______ _____ _____    ______ ____
ROOT
ATOM      1  C   UNL     1      -0.737   1.612   3.709  0.00  0.00    +0.043 C 
ATOM      2  C   UNL     1       0.260   1.701   4.794  0.00  0.00    +0.086 C 
ATOM      3  C   UNL     1       1.058   3.002   4.376  0.00  0.00    +0.077 C 
ATOM      4  C   UNL     1      -0.147   3.911   4.146  0.00  0.00    -0.026 C 
ATOM      5  C   UNL     1       1.861   3.104   5.644  0.00  0.00    +0.229 C 
ATOM      6  O   UNL     1       2.203   4.117   6.215  0.00  0.00    -0.275 OA
ATOM      7  N   UNL     1       2.124   1.816   6.015  0.00  0.00    -0.210 N 
ATOM      8  C   UNL     1       1.314   0.906   5.381  0.00  0.00    +0.229 C 
ATOM      9  O   UNL     1       1.453  -0.297   5.327  0.00  0.00    -0.275 OA
ATOM     10  N   UNL     1      -1.207   3.030   3.615  0.00  0.00    +0.395 N 
ATOM     11  H   UNL     1      -2.064   3.148   4.167  0.00  0.00    -0.083 HD
ATOM     12  H   UNL     1      -1.395   3.268   2.634  0.00  0.00    -0.083 HD
ENDROOT
BRANCH   7  13
ATOM     13  C   UNL     1       3.113   1.461   6.944  0.00  0.00    +0.044 A 
ATOM     14  C   UNL     1       3.313   0.127   7.271  0.00  0.00    +0.024 A 
ATOM     15  C   UNL     1       4.292  -0.219   8.182  0.00  0.00    +0.005 A 
ATOM     16  C   UNL     1       5.065   0.762   8.776  0.00  0.00    -0.050 A 
ATOM     17  C   UNL     1       4.864   2.092   8.455  0.00  0.00    +0.005 A 
ATOM     18  C   UNL     1       3.891   2.444   7.541  0.00  0.00    +0.024 A 
ATOM     19  C   UNL     1       6.128   0.381   9.773  0.00  0.00    +0.044 C 
ENDBRANCH   7  13
BRANCH   4  20
ATOM     20  C   UNL     1      -0.602   4.516   5.449  0.00  0.00    -0.053 A 
ATOM     21  C   UNL     1      -1.511   3.841   6.242  0.00  0.00    +0.051 A 
ATOM     22  C   UNL     1      -1.928   4.393   7.444  0.00  0.00    +0.165 A 
ATOM     23  C   UNL     1      -1.439   5.630   7.847  0.00  0.00    +0.204 A 
ATOM     24  C   UNL     1      -0.528   6.307   7.044  0.00  0.00    +0.165 A 
ATOM     25  C   UNL     1      -0.112   5.746   5.846  0.00  0.00    +0.051 A 
BRANCH  24  26
ATOM     26  O   UNL     1      -0.046   7.517   7.433  0.00  0.00    -0.491 OA
ATOM     27  C   UNL     1       0.886   8.156   6.559  0.00  0.00    +0.277 C 
ENDBRANCH  24  26
BRANCH  23  28
ATOM     28  O   UNL     1      -1.850   6.176   9.023  0.00  0.00    -0.488 OA
ATOM     29  C   UNL     1      -3.007   7.013   8.980  0.00  0.00    +0.277 C 
ENDBRANCH  23  28
BRANCH  22  30
ATOM     30  O   UNL     1      -2.819   3.726   8.226  0.00  0.00    -0.491 OA
ATOM     31  C   UNL     1      -3.280   2.460   7.750  0.00  0.00    +0.277 C 
ENDBRANCH  22  30
ENDBRANCH   4  20
BRANCH   1  33
ATOM     32  C   UNL     1      -2.929   0.663   2.979  0.00  0.00    +0.003 C 
ATOM     33  C   UNL     1      -1.881   0.672   4.094  0.00  0.00    -0.004 C 
ENDBRANCH   1  33
BRANCH   1  34
ATOM     34  C   UNL     1      -0.091   1.171   2.421  0.00  0.00    +0.297 C 
ATOM     35  O   UNL     1       0.930   0.527   2.446  0.00  0.00    -0.252 OA
BRANCH  34  36
ATOM     36  O   UNL     1      -0.652   1.494   1.244  0.00  0.00    -0.466 OA
BRANCH  36  37
ATOM     37  C   UNL     1       0.024   1.036   0.044  0.00  0.00    +0.228 C 
ATOM     38  C   UNL     1      -0.757   1.496  -1.188  0.00  0.00    +0.048 C 
ENDBRANCH  36  37
ENDBRANCH  34  36
ENDBRANCH   1  34
TORSDOF 9
