REMARK  Name = ZINC25702719
REMARK  8 active torsions:
REMARK  status: ('A' for Active; 'I' for Inactive)
REMARK    1  A    between atoms: C_1  and  N_2
REMARK    2  A    between atoms: N_2  and  C_3
REMARK    3  A    between atoms: N_2  and  S_4
REMARK    4  A    between atoms: S_4  and  C_7
REMARK    5  A    between atoms: C_9  and  N_14
REMARK    6  A    between atoms: N_14  and  S_15
REMARK    7  A    between atoms: S_15  and  C_18
REMARK    8  A    between atoms: C_20  and  C_26
REMARK                            x       y       z     vdW  Elec       q    Type
REMARK                         _______ _______ _______ _____ _____    ______ ____
ROOT
ATOM      1  N   UNL     1      -2.252   7.391   1.388  0.00  0.00    -0.098 NA
ENDROOT
BRANCH   1   4
ATOM      2  C   UNL     1      -0.011  10.130   2.380  0.00  0.00    +0.126 A 
ATOM      3  C   UNL     1      -1.150   9.361   2.242  0.00  0.00    +0.056 A 
ATOM      4  C   UNL     1      -1.101   8.170   1.529  0.00  0.00    +0.076 A 
ATOM      5  C   UNL     1       0.097   7.753   0.962  0.00  0.00    +0.028 A 
ATOM      6  C   UNL     1       1.231   8.528   1.097  0.00  0.00    +0.024 A 
ATOM      7  C   UNL     1       1.179   9.715   1.808  0.00  0.00    +0.067 A 
ATOM      8 CL   UNL     1       2.609  10.683   1.984  0.00  0.00    -0.082 Cl
BRANCH   2   9
ATOM      9  S   UNL     1      -0.073  11.641   3.283  0.00  0.00    +0.062 S 
ATOM     10  O   UNL     1      -1.408  11.781   3.749  0.00  0.00    -0.153 OA
ATOM     11  O   UNL     1       1.044  11.635   4.162  0.00  0.00    -0.153 OA
BRANCH   9  13
ATOM     12  C   UNL     1      -0.933  13.388   1.406  0.00  0.00    +0.131 C 
ATOM     13  N   UNL     1       0.182  12.869   2.202  0.00  0.00    -0.183 NA
ATOM     14  C   UNL     1       1.523  13.437   2.042  0.00  0.00    +0.131 C 
ENDBRANCH   9  13
ENDBRANCH   2   9
ENDBRANCH   1   4
BRANCH   1  15
ATOM     15  S   UNL     1      -2.650   6.762  -0.091  0.00  0.00    +0.093 S 
ATOM     16  O   UNL     1      -3.905   6.115   0.067  0.00  0.00    -0.148 OA
ATOM     17  O   UNL     1      -1.497   6.082  -0.567  0.00  0.00    -0.148 OA
BRANCH  15  18
ATOM     18  C   UNL     1      -2.917   8.122  -1.180  0.00  0.00    +0.129 A 
ATOM     19  C   UNL     1      -2.092   8.303  -2.269  0.00  0.00    +0.047 A 
ATOM     20  C   UNL     1      -2.302   9.383  -3.129  0.00  0.00    +0.083 A 
ATOM     21  C   UNL     1      -3.355  10.269  -2.884  0.00  0.00    +0.057 A 
ATOM     22  C   UNL     1      -4.177  10.074  -1.792  0.00  0.00    +0.042 A 
ATOM     23  C   UNL     1      -3.959   9.003  -0.942  0.00  0.00    +0.069 A 
ATOM     24 CL   UNL     1      -4.998   8.763   0.429  0.00  0.00    -0.081 Cl
ATOM     25 CL   UNL     1      -3.629  11.612  -3.950  0.00  0.00    -0.083 Cl
BRANCH  20  26
ATOM     26  C   UNL     1      -1.419   9.586  -4.294  0.00  0.00    +0.388 C 
ATOM     27  O   UNL     1      -1.607  10.524  -5.043  0.00  0.00    -0.241 OA
ATOM     28  O   UNL     1      -0.404   8.730  -4.527  0.00  0.00    -0.241 OA
ENDBRANCH  20  26
ENDBRANCH  15  18
ENDBRANCH   1  15
TORSDOF 6
