REMARK  Name = ZINC39302179
REMARK  5 active torsions:
REMARK  status: ('A' for Active; 'I' for Inactive)
REMARK    1  A    between atoms: N_11  and  C_12
REMARK    2  A    between atoms: C_12  and  C_13
REMARK    3  A    between atoms: C_13  and  N_14
REMARK    4  A    between atoms: C_15  and  C_17
REMARK    5  A    between atoms: C_23  and  C_25
REMARK                            x       y       z     vdW  Elec       q    Type
REMARK                         _______ _______ _______ _____ _____    ______ ____
ROOT
ATOM      1  C   UNL     1       8.982   0.245   2.530  0.00  0.00    +0.091 C 
ATOM      2  C   UNL     1       9.235   1.579   1.824  0.00  0.00    +0.040 C 
ATOM      3  C   UNL     1      10.655   2.017   2.039  0.00  0.00    -0.030 C 
ATOM      4  C   UNL     1      11.428   1.541   2.962  0.00  0.00    -0.030 C 
ATOM      5  C   UNL     1      11.016   0.479   3.939  0.00  0.00    +0.040 C 
ATOM      6  C   UNL     1       9.493   0.350   3.973  0.00  0.00    +0.091 C 
ENDROOT
BRANCH   6   7
ATOM      7  C   UNL     1       9.102  -0.887   4.739  0.00  0.00    +0.220 C 
ATOM      8  O   UNL     1       8.895  -1.926   4.150  0.00  0.00    -0.275 OA
ATOM      9  N   UNL     1       8.981  -0.838   6.081  0.00  0.00    -0.298 N 
ATOM     10  C   UNL     1       9.123   0.437   6.799  0.00  0.00    +0.126 C 
ATOM     11  C   UNL     1       7.864   0.666   7.644  0.00  0.00    +0.125 C 
ATOM     12  N   UNL     1       7.588  -0.554   8.415  0.00  0.00    -0.314 N 
ATOM     13  C   UNL     1       7.446  -1.829   7.698  0.00  0.00    +0.125 C 
ATOM     14  C   UNL     1       8.699  -2.057   6.852  0.00  0.00    +0.126 C 
ATOM     15  C   UNL     1       7.464  -0.504   9.799  0.00  0.00    +0.099 A 
ATOM     16  C   UNL     1       7.467   0.727  10.447  0.00  0.00    +0.042 A 
ATOM     17  C   UNL     1       7.343   0.763  11.824  0.00  0.00    +0.005 A 
ATOM     18  C   UNL     1       7.219  -0.439  12.510  0.00  0.00    +0.018 A 
ATOM     19  C   UNL     1       7.223  -1.624  11.803  0.00  0.00    +0.084 A 
ATOM     20  N   UNL     1       7.338  -1.627  10.488  0.00  0.00    -0.350 N 
ATOM     21  H   UNL     1       7.334  -2.474  10.015  0.00  0.00    +0.166 HD
ENDBRANCH   6   7
BRANCH   1  23
ATOM     22  N   UNL     1       6.838  -0.179   1.372  0.00  0.00    -0.313 N 
ATOM     23  C   UNL     1       7.505  -0.052   2.536  0.00  0.00    +0.217 C 
ATOM     24  O   UNL     1       6.915  -0.177   3.589  0.00  0.00    -0.275 OA
ATOM     25  H   UNL     1       7.309  -0.079   0.530  0.00  0.00    +0.149 HD
BRANCH  22  26
ATOM     26  C   UNL     1       5.402  -0.468   1.378  0.00  0.00    +0.126 C 
BRANCH  26  27
ATOM     27  C   UNL     1       4.894  -0.561  -0.063  0.00  0.00    +0.145 C 
BRANCH  27  38
ATOM     28  C   UNL     1       0.025   1.459  -0.025  0.00  0.00    +0.002 A 
ATOM     29  C   UNL     1       1.219   2.159  -0.028  0.00  0.00    +0.002 A 
ATOM     30  C   UNL     1       2.423   1.483  -0.039  0.00  0.00    +0.028 A 
ATOM     31  C   UNL     1       2.436   0.097  -0.046  0.00  0.00    +0.070 A 
ATOM     32  C   UNL     1       1.232  -0.610  -0.044  0.00  0.00    +0.067 A 
ATOM     33  C   UNL     1       0.028   0.078  -0.033  0.00  0.00    +0.028 A 
ATOM     34  N   UNL     1       1.559  -1.964  -0.052  0.00  0.00    -0.306 N 
ATOM     35  H   UNL     1       0.928  -2.700  -0.053  0.00  0.00    +0.170 HD
ATOM     36  C   UNL     1       2.901  -2.076  -0.060  0.00  0.00    +0.328 A 
ATOM     37  O   UNL     1       3.516  -3.125  -0.069  0.00  0.00    -0.247 OA
ATOM     38  N   UNL     1       3.458  -0.850  -0.057  0.00  0.00    -0.291 N 
ENDBRANCH  27  38
ENDBRANCH  26  27
ENDBRANCH  22  26
ENDBRANCH   1  23
TORSDOF 5
