REMARK  Name = ZINC32944172
REMARK  10 active torsions:
REMARK  status: ('A' for Active; 'I' for Inactive)
REMARK    1  A    between atoms: C_1  and  C_2
REMARK    2  A    between atoms: C_5  and  C_37
REMARK    3  A    between atoms: C_6  and  C_8
REMARK    4  A    between atoms: C_9  and  C_10
REMARK    5  A    between atoms: C_11  and  S_16
REMARK    6  A    between atoms: C_12  and  C_15
REMARK    7  A    between atoms: S_16  and  N_19
REMARK    8  A    between atoms: C_23  and  C_26
REMARK    9  A    between atoms: N_28  and  C_29
REMARK   10  A    between atoms: C_34  and  C_35
REMARK                            x       y       z     vdW  Elec       q    Type
REMARK                         _______ _______ _______ _____ _____    ______ ____
ROOT
ATOM      1  S   UNL     1      -5.304   9.328  -0.326  0.00  0.00    +0.066 S 
ATOM      2  O   UNL     1      -6.202  10.111   0.448  0.00  0.00    -0.153 OA
ATOM      3  O   UNL     1      -4.135   9.875  -0.920  0.00  0.00    -0.153 OA
ENDROOT
BRANCH   1   5
ATOM      4  C   UNL     1      -5.808   8.184  -2.858  0.00  0.00    +0.187 A 
ATOM      5  C   UNL     1      -6.250   8.621  -1.633  0.00  0.00    +0.174 A 
ATOM      6  C   UNL     1      -7.636   8.378  -1.669  0.00  0.00    +0.107 A 
ATOM      7  N   UNL     1      -7.893   7.847  -2.832  0.00  0.00    -0.081 NA
ATOM      8  O   UNL     1      -6.897   7.727  -3.506  0.00  0.00    -0.353 OA
ATOM      9  C   UNL     1      -8.630   8.675  -0.576  0.00  0.00    +0.071 C 
BRANCH   4  11
ATOM     10  C   UNL     1      -4.153   7.739  -4.590  0.00  0.00    +0.012 C 
ATOM     11  C   UNL     1      -4.430   8.207  -3.358  0.00  0.00    +0.051 C 
BRANCH  10  17
ATOM     12  C   UNL     1       0.664   8.835  -3.911  0.00  0.00    +0.044 C 
ATOM     13  C   UNL     1      -0.446   8.289  -4.771  0.00  0.00    -0.050 A 
ATOM     14  C   UNL     1      -0.165   7.807  -6.038  0.00  0.00    +0.003 A 
ATOM     15  C   UNL     1      -1.178   7.304  -6.835  0.00  0.00    +0.004 A 
ATOM     16  C   UNL     1      -2.477   7.278  -6.371  0.00  0.00    -0.043 A 
ATOM     17  C   UNL     1      -2.769   7.763  -5.093  0.00  0.00    -0.022 A 
ATOM     18  C   UNL     1      -1.741   8.276  -4.296  0.00  0.00    +0.011 A 
ATOM     19  C   UNL     1      -3.579   6.729  -7.240  0.00  0.00    +0.044 C 
ENDBRANCH  10  17
ENDBRANCH   4  11
ENDBRANCH   1   5
BRANCH   1  20
ATOM     20  N   UNL     1      -4.804   8.083   0.645  0.00  0.00    -0.176 NA
ATOM     21  C   UNL     1      -5.628   7.640   1.778  0.00  0.00    +0.109 C 
ATOM     22  C   UNL     1      -5.863   6.131   1.656  0.00  0.00    +0.018 C 
ATOM     23  C   UNL     1      -4.515   5.416   1.541  0.00  0.00    +0.015 C 
ATOM     24  C   UNL     1      -3.787   5.895   0.283  0.00  0.00    +0.091 C 
ATOM     25  C   UNL     1      -3.528   7.401   0.390  0.00  0.00    +0.122 C 
BRANCH  24  26
ATOM     26  C   UNL     1      -2.474   5.166   0.153  0.00  0.00    +0.222 C 
ATOM     27  O   UNL     1      -1.433   5.789   0.147  0.00  0.00    -0.275 OA
ATOM     28  N   UNL     1      -2.457   3.823   0.045  0.00  0.00    -0.285 N 
ATOM     29  H   UNL     1      -3.402   3.266  -0.041  0.00  0.00    +0.155 HD
BRANCH  28  30
ATOM     30  C   UNL     1      -1.237   3.137   0.041  0.00  0.00    +0.036 A 
ATOM     31  C   UNL     1      -0.119   3.702   0.642  0.00  0.00    +0.025 A 
ATOM     32  C   UNL     1       1.083   3.023   0.636  0.00  0.00    +0.022 A 
ATOM     33  C   UNL     1       1.175   1.781   0.033  0.00  0.00    +0.041 A 
ATOM     34  C   UNL     1       0.063   1.216  -0.566  0.00  0.00    +0.025 A 
ATOM     35  C   UNL     1      -1.141   1.893  -0.568  0.00  0.00    -0.028 A 
ATOM     36  C   UNL     1      -2.350   1.280  -1.226  0.00  0.00    +0.046 C 
ATOM     37 CL   UNL     1       2.688   0.929   0.029  0.00  0.00    -0.084 Cl
ENDBRANCH  28  30
ENDBRANCH  24  26
ENDBRANCH   1  20
TORSDOF 6
