REMARK  Name = ZINC35427354
REMARK  5 active torsions:
REMARK  status: ('A' for Active; 'I' for Inactive)
REMARK    1  A    between atoms: C_1  and  C_2
REMARK    2  A    between atoms: C_5  and  C_37
REMARK    3  A    between atoms: C_6  and  N_8
REMARK    4  A    between atoms: C_23  and  C_25
REMARK    5  A    between atoms: N_33  and  C_36
REMARK                            x       y       z     vdW  Elec       q    Type
REMARK                         _______ _______ _______ _____ _____    ______ ____
ROOT
ATOM      1  N   UNL     1       0.027  -1.741   2.354  0.00  0.00    -0.269 N 
ATOM      2  C   UNL     1       0.097  -1.440   3.665  0.00  0.00    +0.308 C 
ATOM      3  O   UNL     1      -0.016  -0.286   4.031  0.00  0.00    -0.252 OA
ATOM      4  N   UNL     1       0.293  -2.418   4.572  0.00  0.00    -0.268 N 
ATOM      5  C   UNL     1       0.442  -3.827   4.168  0.00  0.00    +0.148 C 
ATOM      6  C   UNL     1       1.498  -4.558   4.968  0.00  0.00    +0.004 A 
ATOM      7  C   UNL     1       2.723  -4.982   4.420  0.00  0.00    -0.034 A 
ATOM      8  C   UNL     1       3.585  -5.651   5.234  0.00  0.00    -0.021 A 
ATOM      9  S   UNL     1       2.738  -5.708   6.791  0.00  0.00    -0.077 S 
ATOM     10  C   UNL     1       1.289  -4.833   6.284  0.00  0.00    +0.090 A 
ATOM     11  N   UNL     1       0.157  -4.446   6.991  0.00  0.00    -0.312 N 
ATOM     12  C   UNL     1      -0.638  -5.124   7.850  0.00  0.00    +0.092 A 
ATOM     13  C   UNL     1      -1.654  -4.308   8.213  0.00  0.00    +0.020 A 
ATOM     14  C   UNL     1      -1.459  -3.071   7.561  0.00  0.00    +0.025 A 
ATOM     15  C   UNL     1      -0.333  -3.170   6.840  0.00  0.00    +0.049 A 
ATOM     16  C   UNL     1       0.376  -2.126   6.024  0.00  0.00    +0.155 C 
ATOM     17  C   UNL     1       4.924  -6.198   4.866  0.00  0.00    -0.036 C 
ATOM     18  N   UNL     1       5.025  -6.225   3.394  0.00  0.00    +0.381 N 
ATOM     19  C   UNL     1       4.635  -4.917   2.853  0.00  0.00    -0.074 C 
ATOM     20  C   UNL     1       3.120  -4.724   2.969  0.00  0.00    +0.018 C 
ATOM     21  C   UNL     1       6.409  -6.523   3.004  0.00  0.00    -0.096 C 
ATOM     22  H   UNL     1       0.043  -2.668   2.067  0.00  0.00    +0.156 HD
ATOM     23  H   UNL     1       4.411  -6.937   3.028  0.00  0.00    -0.082 HD
ENDROOT
BRANCH   1  29
ATOM     24  C   UNL     1       0.658   2.983   1.146  0.00  0.00    +0.044 C 
ATOM     25  C   UNL     1       0.230   1.582   0.792  0.00  0.00    -0.049 A 
ATOM     26  C   UNL     1      -0.259   1.307  -0.472  0.00  0.00    +0.004 A 
ATOM     27  C   UNL     1      -0.653   0.023  -0.800  0.00  0.00    +0.005 A 
ATOM     28  C   UNL     1      -0.559  -0.990   0.134  0.00  0.00    -0.029 A 
ATOM     29  C   UNL     1      -0.069  -0.717   1.405  0.00  0.00    +0.038 A 
ATOM     30  C   UNL     1       0.331   0.572   1.729  0.00  0.00    +0.027 A 
ATOM     31  C   UNL     1      -0.989  -2.389  -0.224  0.00  0.00    +0.045 C 
ENDBRANCH   1  29
BRANCH  16  32
ATOM     32  C   UNL     1       1.826  -2.078   6.433  0.00  0.00    -0.020 A 
ATOM     33  C   UNL     1       2.802  -1.820   5.488  0.00  0.00    +0.006 A 
ATOM     34  C   UNL     1       4.132  -1.776   5.862  0.00  0.00    +0.002 A 
ATOM     35  C   UNL     1       4.487  -1.990   7.181  0.00  0.00    +0.020 A 
ATOM     36  C   UNL     1       3.510  -2.248   8.127  0.00  0.00    +0.041 A 
ATOM     37  C   UNL     1       2.179  -2.286   7.752  0.00  0.00    +0.025 A 
ATOM     38 CL   UNL     1       3.955  -2.517   9.783  0.00  0.00    -0.084 Cl
ENDBRANCH  16  32
TORSDOF 2
