REMARK  Name = ZINC13571497
REMARK  9 active torsions:
REMARK  status: ('A' for Active; 'I' for Inactive)
REMARK    1  A    between atoms: C_1  and  C_2
REMARK    2  A    between atoms: C_2  and  C_3
REMARK    3  A    between atoms: C_3  and  C_4
REMARK    4  A    between atoms: C_4  and  N_5
REMARK    5  A    between atoms: C_11  and  C_15
REMARK    6  A    between atoms: C_18  and  O_23
REMARK    7  A    between atoms: C_19  and  O_21
REMARK    8  A    between atoms: O_21  and  C_22
REMARK    9  A    between atoms: O_23  and  C_24
REMARK                            x       y       z     vdW  Elec       q    Type
REMARK                         _______ _______ _______ _____ _____    ______ ____
ROOT
ATOM      1  N   UNL     1       6.746  -0.577   9.164  0.00  0.00    -0.248 N 
ATOM      2  C   UNL     1       5.654  -0.927   8.454  0.00  0.00    +0.259 C 
ATOM      3  O   UNL     1       5.354  -2.097   8.304  0.00  0.00    -0.269 OA
ATOM      4  C   UNL     1       4.833   0.146   7.863  0.00  0.00    +0.119 C 
ATOM      5  C   UNL     1       3.701  -0.136   7.123  0.00  0.00    +0.038 C 
ATOM      6  C   UNL     1       2.783   0.882   6.471  0.00  0.00    +0.077 C 
ATOM      7  C   UNL     1       1.532   0.032   6.141  0.00  0.00    +0.108 C 
ATOM      8  N   UNL     1       2.099  -1.334   6.071  0.00  0.00    -0.235 NA
ATOM      9  N   UNL     1       3.216  -1.363   6.854  0.00  0.00    -0.283 N 
ATOM     10  C   UNL     1       5.277   1.533   8.092  0.00  0.00    +0.276 C 
ATOM     11  O   UNL     1       4.654   2.472   7.632  0.00  0.00    -0.268 OA
ATOM     12  N   UNL     1       6.388   1.733   8.830  0.00  0.00    -0.153 NA
ATOM     13  C   UNL     1       7.087   0.708   9.337  0.00  0.00    +0.167 C 
ATOM     14  S   UNL     1       8.489   1.058  10.254  0.00  0.00    -0.016 S 
ATOM     15  H   UNL     1       1.426  -2.022   6.374  0.00  0.00    +0.145 HD
ATOM     16  H   UNL     1       3.623  -2.327   7.194  0.00  0.00    +0.166 HD
ENDROOT
BRANCH   7  17
ATOM     17  C   UNL     1       0.938   0.439   4.817  0.00  0.00    -0.025 A 
ATOM     18  C   UNL     1       1.534   0.028   3.639  0.00  0.00    +0.009 A 
ATOM     19  C   UNL     1       0.990   0.393   2.422  0.00  0.00    +0.050 A 
ATOM     20  C   UNL     1      -0.148   1.182   2.380  0.00  0.00    +0.162 A 
ATOM     21  C   UNL     1      -0.748   1.595   3.566  0.00  0.00    +0.162 A 
ATOM     22  C   UNL     1      -0.201   1.221   4.783  0.00  0.00    +0.054 A 
BRANCH  21  23
ATOM     23  O   UNL     1      -1.869   2.365   3.531  0.00  0.00    -0.491 OA
ATOM     24  C   UNL     1      -2.430   2.752   4.787  0.00  0.00    +0.277 C 
ENDBRANCH  21  23
BRANCH  20  25
ATOM     25  O   UNL     1      -0.682   1.547   1.184  0.00  0.00    -0.491 OA
ATOM     26  C   UNL     1      -0.013   1.086   0.008  0.00  0.00    +0.277 C 
ENDBRANCH  20  25
ENDBRANCH   7  17
BRANCH   1  27
ATOM     27  C   UNL     1       7.577  -1.625   9.761  0.00  0.00    +0.116 C 
BRANCH  27  28
ATOM     28  C   UNL     1       8.665  -2.040   8.768  0.00  0.00    +0.019 C 
BRANCH  28  30
ATOM     29  C   UNL     1      10.620  -3.550   8.398  0.00  0.00    +0.004 C 
ATOM     30  C   UNL     1       9.533  -3.135   9.391  0.00  0.00    -0.002 C 
ENDBRANCH  28  30
ENDBRANCH  27  28
ENDBRANCH   1  27
TORSDOF 6
