REMARK  Name = ZINC20917847
REMARK  10 active torsions:
REMARK  status: ('A' for Active; 'I' for Inactive)
REMARK    1  A    between atoms: C_1  and  C_2
REMARK    2  A    between atoms: C_5  and  C_8
REMARK    3  A    between atoms: N_9  and  N_10
REMARK    4  A    between atoms: C_14  and  S_17
REMARK    5  A    between atoms: N_15  and  N_16
REMARK    6  A    between atoms: S_17  and  C_18
REMARK    7  A    between atoms: C_18  and  C_19
REMARK    8  A    between atoms: C_19  and  C_20
REMARK    9  A    between atoms: N_22  and  C_23
REMARK   10  A    between atoms: C_28  and  C_29
REMARK                            x       y       z     vdW  Elec       q    Type
REMARK                         _______ _______ _______ _____ _____    ______ ____
ROOT
ATOM      1  N   UNL     1      -0.014   1.383   0.054  0.00  0.00    -0.204 N 
ATOM      2  C   UNL     1       0.004  -0.004   0.039  0.00  0.00    +0.254 A 
ATOM      3  N   UNL     1      -1.046  -0.789   0.040  0.00  0.00    -0.109 NA
ATOM      4  N   UNL     1      -0.595  -2.115   0.020  0.00  0.00    -0.119 NA
ATOM      5  C   UNL     1       0.716  -2.097   0.016  0.00  0.00    +0.210 A 
ATOM      6  N   UNL     1       1.121  -0.793   0.027  0.00  0.00    -0.211 N 
ATOM      7  H   UNL     1       0.931   1.946   0.061  0.00  0.00    +0.177 HD
ENDROOT
BRANCH   6   8
ATOM      8  N   UNL     1       2.414  -0.353   0.027  0.00  0.00    -0.294 N 
ATOM      9  H   UNL     1       3.242  -1.078   0.017  0.00  0.00    +0.163 HD
ATOM     10  H   UNL     1       2.629   0.726   0.038  0.00  0.00    +0.163 HD
ENDBRANCH   6   8
BRANCH   1  12
ATOM     11  C   UNL     1      -1.254   3.366   0.072  0.00  0.00    +0.138 C 
ATOM     12  N   UNL     1      -1.237   2.067   0.059  0.00  0.00    -0.188 NA
BRANCH  11  17
ATOM     13  C   UNL     1      -6.272   6.175   0.094  0.00  0.00    +0.044 C 
ATOM     14  C   UNL     1      -4.957   5.439   0.088  0.00  0.00    -0.050 A 
ATOM     15  C   UNL     1      -3.770   6.150   0.097  0.00  0.00    +0.004 A 
ATOM     16  C   UNL     1      -2.563   5.483   0.092  0.00  0.00    +0.010 A 
ATOM     17  C   UNL     1      -2.541   4.086   0.078  0.00  0.00    -0.005 A 
ATOM     18  C   UNL     1      -3.743   3.375   0.063  0.00  0.00    +0.010 A 
ATOM     19  C   UNL     1      -4.943   4.055   0.073  0.00  0.00    +0.004 A 
ENDBRANCH  11  17
ENDBRANCH   1  12
BRANCH   5  20
ATOM     20  S   UNL     1       1.771  -3.509  -0.002  0.00  0.00    -0.084 S 
BRANCH  20  21
ATOM     21  C   UNL     1       0.624  -4.914  -0.012  0.00  0.00    +0.086 C 
BRANCH  21  22
ATOM     22  C   UNL     1       1.419  -6.221  -0.027  0.00  0.00    +0.107 C 
BRANCH  22  23
ATOM     23  C   UNL     1       0.466  -7.388  -0.036  0.00  0.00    +0.218 C 
ATOM     24  O   UNL     1      -0.731  -7.194  -0.030  0.00  0.00    -0.275 OA
ATOM     25  N   UNL     1       0.944  -8.649  -0.050  0.00  0.00    -0.285 N 
ATOM     26  H   UNL     1       2.025  -8.826  -0.147  0.00  0.00    +0.155 HD
BRANCH  25  27
ATOM     27  C   UNL     1       0.064  -9.732   0.058  0.00  0.00    +0.036 A 
ATOM     28  C   UNL     1      -1.168  -9.568   0.677  0.00  0.00    +0.023 A 
ATOM     29  C   UNL     1      -2.036 -10.637   0.778  0.00  0.00    +0.002 A 
ATOM     30  C   UNL     1      -1.674 -11.873   0.273  0.00  0.00    +0.000 A 
ATOM     31  C   UNL     1      -0.446 -12.041  -0.338  0.00  0.00    +0.005 A 
ATOM     32  C   UNL     1       0.425 -10.974  -0.447  0.00  0.00    -0.029 A 
ATOM     33  C   UNL     1       1.764 -11.157  -1.113  0.00  0.00    +0.045 C 
ENDBRANCH  25  27
ENDBRANCH  22  23
ENDBRANCH  21  22
ENDBRANCH  20  21
ENDBRANCH   5  20
TORSDOF 8
