REMARK  Name = ZINC06413883
REMARK  3 active torsions:
REMARK  status: ('A' for Active; 'I' for Inactive)
REMARK    1  A    between atoms: N_8  and  N_9
REMARK    2  A    between atoms: N_9  and  C_10
REMARK    3  A    between atoms: C_18  and  O_20
REMARK                            x       y       z     vdW  Elec       q    Type
REMARK                         _______ _______ _______ _____ _____    ______ ____
ROOT
ATOM      1  C   UNL     1      -0.022   1.329   0.539  0.00  0.00    +0.032 A 
ATOM      2  C   UNL     1       1.167   2.011   0.712  0.00  0.00    +0.043 A 
ATOM      3  C   UNL     1       2.378   1.343   0.606  0.00  0.00    +0.042 A 
ATOM      4  C   UNL     1       2.417  -0.007   0.329  0.00  0.00    +0.068 A 
ATOM      5  C   UNL     1       1.225  -0.719   0.150  0.00  0.00    +0.095 A 
ATOM      6  C   UNL     1      -0.000  -0.031   0.259  0.00  0.00    +0.035 A 
ATOM      7  C   UNL     1      -1.049  -1.048   0.020  0.00  0.00    +0.152 C 
ATOM      8  N   UNL     1      -2.353  -0.878   0.019  0.00  0.00    -0.181 NA
ATOM      9  C   UNL     1      -0.298  -2.293  -0.216  0.00  0.00    +0.241 C 
ATOM     10  N   UNL     1       0.980  -2.026  -0.128  0.00  0.00    -0.210 NA
ATOM     11 CL   UNL     1       3.944  -0.823   0.200  0.00  0.00    -0.081 Cl
ATOM     12 CL   UNL     1       1.145   3.712   1.062  0.00  0.00    -0.083 Cl
ENDROOT
BRANCH   8  13
ATOM     13  N   UNL     1      -2.849   0.307   0.128  0.00  0.00    -0.264 N 
ATOM     14  H   UNL     1      -2.264   1.081   0.126  0.00  0.00    +0.168 HD
BRANCH  13  15
ATOM     15  C   UNL     1      -4.298   0.486   0.252  0.00  0.00    +0.112 C 
ATOM     16  C   UNL     1      -4.687   0.477   1.740  0.00  0.00    +0.048 C 
ATOM     17  C   UNL     1      -6.156   0.977   1.859  0.00  0.00    +0.168 C 
ATOM     18  S   UNL     1      -6.146   2.350   0.630  0.00  0.00    -0.029 S 
ATOM     19  O   UNL     1      -7.325   2.272  -0.159  0.00  0.00    -0.174 OA
ATOM     20  O   UNL     1      -5.829   3.564   1.296  0.00  0.00    -0.174 OA
ATOM     21  C   UNL     1      -4.707   1.834  -0.391  0.00  0.00    +0.189 C 
ENDBRANCH  13  15
ENDBRANCH   8  13
BRANCH   9  22
ATOM     22  O   UNL     1      -0.839  -3.507  -0.481  0.00  0.00    -0.491 OA
ATOM     23  H   UNL     1      -0.186  -4.209  -0.609  0.00  0.00    +0.294 HD
ENDBRANCH   9  22
TORSDOF 3
