REMARK  Name = ZINC04236477
REMARK  7 active torsions:
REMARK  status: ('A' for Active; 'I' for Inactive)
REMARK    1  A    between atoms: C_4  and  C_7
REMARK    2  A    between atoms: C_10  and  C_13
REMARK    3  A    between atoms: C_13  and  N_63
REMARK    4  A    between atoms: C_14  and  N_63
REMARK    5  A    between atoms: C_24  and  O_26
REMARK    6  A    between atoms: O_26  and  C_27
REMARK    7  A    between atoms: N_29  and  C_30
REMARK                            x       y       z     vdW  Elec       q    Type
REMARK                         _______ _______ _______ _____ _____    ______ ____
ROOT
ATOM      1  C   UNL     1       4.112   4.978  -1.423  0.00  0.00    -0.013 C 
ATOM      2  C   UNL     1       5.309   4.003  -1.405  0.00  0.00    +0.147 C 
ATOM      3  O   UNL     1       6.278   4.589  -2.287  0.00  0.00    -0.372 OA
ATOM      4  C   UNL     1       5.535   5.124  -3.402  0.00  0.00    +0.188 C 
ATOM      5  C   UNL     1       4.248   5.725  -2.768  0.00  0.00    +0.139 C 
ATOM      6  O   UNL     1       4.580   7.103  -2.500  0.00  0.00    -0.372 OA
ATOM      7  C   UNL     1       5.353   7.543  -3.636  0.00  0.00    +0.207 C 
ATOM      8  C   UNL     1       6.279   6.352  -3.969  0.00  0.00    +0.235 C 
ENDROOT
BRANCH   1   9
ATOM      9  N   UNL     1       2.839   4.235  -1.381  0.00  0.00    +0.387 N 
ATOM     10  H   UNL     1       2.111   4.783  -1.853  0.00  0.00    -0.085 HD
ATOM     11  H   UNL     1       2.956   3.335  -1.862  0.00  0.00    -0.085 HD
BRANCH   9  12
ATOM     12  C   UNL     1       2.435   3.990   0.016  0.00  0.00    -0.046 C 
BRANCH  12  16
ATOM     13  C   UNL     1      -1.257   1.835   0.045  0.00  0.00    -0.018 A 
ATOM     14  C   UNL     1      -0.046   1.146   0.039  0.00  0.00    +0.009 A 
ATOM     15  C   UNL     1       1.143   1.847   0.028  0.00  0.00    +0.002 A 
ATOM     16  C   UNL     1       1.134   3.230   0.029  0.00  0.00    -0.064 A 
ATOM     17  C   UNL     1      -0.066   3.919   0.041  0.00  0.00    +0.002 A 
ATOM     18  C   UNL     1      -1.261   3.228   0.053  0.00  0.00    +0.009 A 
BRANCH  13  22
ATOM     19  C   UNL     1      -4.929  -0.309   0.061  0.00  0.00    +0.000 A 
ATOM     20  C   UNL     1      -4.939   1.074   0.062  0.00  0.00    +0.001 A 
ATOM     21  C   UNL     1      -3.750   1.775   0.057  0.00  0.00    +0.008 A 
ATOM     22  C   UNL     1      -2.539   1.086   0.051  0.00  0.00    -0.018 A 
ATOM     23  C   UNL     1      -2.535  -0.307   0.043  0.00  0.00    +0.008 A 
ATOM     24  C   UNL     1      -3.730  -0.998   0.055  0.00  0.00    +0.001 A 
ENDBRANCH  13  22
ENDBRANCH  12  16
ENDBRANCH   9  12
ENDBRANCH   1   9
BRANCH   8  25
ATOM     25  O   UNL     1       7.566   6.512  -3.316  0.00  0.00    -0.442 OA
BRANCH  25  26
ATOM     26  C   UNL     1       8.553   7.072  -4.041  0.00  0.00    +0.405 C 
ATOM     27  O   UNL     1       8.345   7.418  -5.187  0.00  0.00    -0.226 OA
ATOM     28  N   UNL     1       9.773   7.249  -3.495  0.00  0.00    -0.251 N 
ATOM     29  H   UNL     1       9.922   7.034  -2.561  0.00  0.00    +0.158 HD
BRANCH  28  30
ATOM     30  C   UNL     1      10.822   7.742  -4.274  0.00  0.00    +0.044 A 
ATOM     31  C   UNL     1      10.577   8.672  -5.261  0.00  0.00    +0.024 A 
ATOM     32  C   UNL     1      11.615   9.169  -6.043  0.00  0.00    +0.002 A 
ATOM     33  C   UNL     1      12.898   8.752  -5.856  0.00  0.00    +0.008 A 
ATOM     34  C   UNL     1      13.190   7.805  -4.861  0.00  0.00    -0.016 A 
ATOM     35  C   UNL     1      12.142   7.296  -4.054  0.00  0.00    +0.003 A 
ATOM     36  C   UNL     1      12.436   6.354  -3.055  0.00  0.00    +0.010 A 
ATOM     37  C   UNL     1      13.722   5.947  -2.871  0.00  0.00    +0.001 A 
ATOM     38  C   UNL     1      14.754   6.452  -3.659  0.00  0.00    +0.001 A 
ATOM     39  C   UNL     1      14.505   7.356  -4.645  0.00  0.00    +0.008 A 
ENDBRANCH  28  30
ENDBRANCH  25  26
ENDBRANCH   8  25
TORSDOF 7
