REMARK  Name = ZINC39638620
REMARK  10 active torsions:
REMARK  status: ('A' for Active; 'I' for Inactive)
REMARK    1  A    between atoms: C_1  and  C_2
REMARK    2  A    between atoms: C_2  and  O_3
REMARK    3  A    between atoms: O_3  and  C_4
REMARK    4  A    between atoms: C_9  and  C_10
REMARK    5  A    between atoms: C_10  and  N_11
REMARK    6  A    between atoms: C_12  and  C_14
REMARK    7  A    between atoms: C_25  and  C_27
REMARK    8  A    between atoms: C_27  and  C_29
REMARK    9  A    between atoms: C_27  and  O_30
REMARK   10  A    between atoms: O_30  and  C_31
REMARK                            x       y       z     vdW  Elec       q    Type
REMARK                         _______ _______ _______ _____ _____    ______ ____
ROOT
ATOM      1  C   UNL     1       5.324   0.454  -3.291  0.00  0.00    +0.100 C 
ATOM      2  C   UNL     1       6.287  -0.728  -3.034  0.00  0.00    +0.121 C 
ATOM      3  N   UNL     1       7.062  -0.860  -4.290  0.00  0.00    -0.297 N 
ATOM      4  C   UNL     1       7.314   0.538  -4.716  0.00  0.00    +0.115 C 
ATOM      5  C   UNL     1       6.004   1.284  -4.393  0.00  0.00    -0.004 C 
ATOM      6  C   UNL     1       6.308   2.689  -3.884  0.00  0.00    -0.010 C 
ATOM      7  C   UNL     1       6.930   3.514  -5.015  0.00  0.00    -0.082 C 
ATOM      8  N   UNL     1       6.000   3.572  -6.149  0.00  0.00    +0.379 N 
ATOM      9  C   UNL     1       5.785   2.225  -6.691  0.00  0.00    -0.082 C 
ATOM     10  C   UNL     1       5.115   1.347  -5.631  0.00  0.00    -0.010 C 
ATOM     11  C   UNL     1       7.451  -1.994  -4.905  0.00  0.00    +0.256 C 
ATOM     12  O   UNL     1       7.084  -3.070  -4.482  0.00  0.00    -0.272 OA
ATOM     13  H   UNL     1       5.118   3.953  -5.839  0.00  0.00    -0.086 HD
ATOM     14  H   UNL     1       6.385   4.166  -6.868  0.00  0.00    -0.086 HD
ENDROOT
BRANCH   1  16
ATOM     15  N   UNL     1       2.865   0.639  -3.484  0.00  0.00    -0.311 N 
ATOM     16  C   UNL     1       3.987  -0.053  -3.766  0.00  0.00    +0.218 C 
ATOM     17  O   UNL     1       3.920  -1.084  -4.401  0.00  0.00    -0.275 OA
ATOM     18  H   UNL     1       2.919   1.464  -2.976  0.00  0.00    +0.149 HD
BRANCH  15  19
ATOM     19  C   UNL     1       1.565   0.146  -3.945  0.00  0.00    +0.143 C 
BRANCH  19  25
ATOM     20  C   UNL     1       0.252   2.265  -4.212  0.00  0.00    +0.125 A 
ATOM     21  C   UNL     1      -0.750   3.135  -3.804  0.00  0.00    +0.046 A 
ATOM     22  C   UNL     1      -1.511   2.837  -2.691  0.00  0.00    +0.004 A 
ATOM     23  C   UNL     1      -1.276   1.674  -1.982  0.00  0.00    +0.001 A 
ATOM     24  C   UNL     1      -0.278   0.806  -2.386  0.00  0.00    +0.009 A 
ATOM     25  C   UNL     1       0.482   1.096  -3.502  0.00  0.00    +0.011 A 
BRANCH  20  26
ATOM     26  O   UNL     1       1.001   2.556  -5.307  0.00  0.00    -0.492 OA
BRANCH  26  28
ATOM     27  C   UNL     1       1.648   3.931  -7.187  0.00  0.00    +0.048 C 
ATOM     28  C   UNL     1       0.708   3.777  -5.989  0.00  0.00    +0.225 C 
ENDBRANCH  26  28
ENDBRANCH  20  26
ENDBRANCH  19  25
ENDBRANCH  15  19
ENDBRANCH   1  16
BRANCH  11  29
ATOM     29  C   UNL     1       8.340  -1.925  -6.120  0.00  0.00    +0.256 C 
ATOM     30  C   UNL     1       9.730  -1.436  -5.707  0.00  0.00    +0.062 C 
BRANCH  29  31
ATOM     31  O   UNL     1       8.447  -3.224  -6.706  0.00  0.00    -0.480 OA
BRANCH  31  32
ATOM     32  C   UNL     1       8.746  -3.281  -8.030  0.00  0.00    +0.122 A 
ATOM     33  C   UNL     1       8.743  -4.500  -8.692  0.00  0.00    +0.045 A 
ATOM     34  C   UNL     1       9.047  -4.555 -10.038  0.00  0.00    +0.004 A 
ATOM     35  C   UNL     1       9.353  -3.396 -10.727  0.00  0.00    +0.000 A 
ATOM     36  C   UNL     1       9.357  -2.179 -10.070  0.00  0.00    +0.004 A 
ATOM     37  C   UNL     1       9.048  -2.118  -8.725  0.00  0.00    +0.045 A 
ENDBRANCH  31  32
ENDBRANCH  29  31
ENDBRANCH  11  29
TORSDOF 8
