REMARK  Name = ZINC39012094
REMARK  8 active torsions:
REMARK  status: ('A' for Active; 'I' for Inactive)
REMARK    1  A    between atoms: C_1  and  C_2
REMARK    2  A    between atoms: C_7  and  N_8
REMARK    3  A    between atoms: C_9  and  C_11
REMARK    4  A    between atoms: C_11  and  S_12
REMARK    5  A    between atoms: S_12  and  C_13
REMARK    6  A    between atoms: C_17  and  C_21
REMARK    7  A    between atoms: N_19  and  N_20
REMARK    8  A    between atoms: C_24  and  C_27
REMARK                            x       y       z     vdW  Elec       q    Type
REMARK                         _______ _______ _______ _____ _____    ______ ____
ROOT
ATOM      1  C   UNL     1      -0.388  -0.088   7.729  0.00  0.00    +0.214 C 
ATOM      2  N   UNL     1      -1.573   0.793   7.625  0.00  0.00    -0.228 NA
ATOM      3  N   UNL     1      -1.140   2.063   8.229  0.00  0.00    -0.234 NA
ATOM      4  C   UNL     1       0.271   2.186   7.779  0.00  0.00    +0.185 C 
ATOM      5  N   UNL     1       0.790   0.799   7.826  0.00  0.00    -0.197 NA
ATOM      6  H   UNL     1      -1.843   0.924   6.662  0.00  0.00    +0.143 HD
ATOM      7  H   UNL     1      -1.697   2.833   7.890  0.00  0.00    +0.143 HD
ENDROOT
BRANCH   4   8
ATOM      8  C   UNL     1       1.060   3.089   8.729  0.00  0.00    +0.187 C 
ATOM      9  C   UNL     1       0.433   4.470   8.800  0.00  0.00    +0.034 C 
ATOM     10  C   UNL     1       1.401   5.287   8.342  0.00  0.00    +0.091 C 
ATOM     11  N   UNL     1       2.508   4.572   8.012  0.00  0.00    -0.154 NA
ATOM     12  N   UNL     1       2.406   3.354   8.196  0.00  0.00    -0.176 NA
BRANCH  10  13
ATOM     13  C   UNL     1       1.275   6.760   8.214  0.00  0.00    +0.002 A 
ATOM     14  C   UNL     1       0.092   7.395   8.588  0.00  0.00    +0.013 A 
ATOM     15  C   UNL     1      -0.021   8.765   8.469  0.00  0.00    +0.039 A 
ATOM     16  C   UNL     1       1.040   9.509   7.978  0.00  0.00    +0.123 A 
ATOM     17  C   UNL     1       2.218   8.882   7.605  0.00  0.00    +0.039 A 
ATOM     18  C   UNL     1       2.341   7.513   7.726  0.00  0.00    +0.013 A 
ATOM     19  F   UNL     1       0.925  10.850   7.862  0.00  0.00    -0.205 F 
ENDBRANCH  10  13
ENDBRANCH   4   8
BRANCH   5  20
ATOM     20  N   UNL     1       1.524   0.558   9.059  0.00  0.00    -0.264 NA
ATOM     21  H   UNL     1       1.847  -0.396   9.106  0.00  0.00    +0.137 HD
ATOM     22  H   UNL     1       2.291   1.206   9.155  0.00  0.00    +0.137 HD
ENDBRANCH   5  20
BRANCH   1  23
ATOM     23  S   UNL     1      -0.259  -1.133   6.252  0.00  0.00    -0.115 S 
BRANCH  23  24
ATOM     24  C   UNL     1      -0.168   0.052   4.882  0.00  0.00    +0.168 C 
BRANCH  24  26
ATOM     25  N   UNL     1       0.025  -0.015   2.417  0.00  0.00    -0.285 N 
ATOM     26  C   UNL     1      -0.056  -0.694   3.578  0.00  0.00    +0.227 C 
ATOM     27  O   UNL     1      -0.040  -1.907   3.573  0.00  0.00    -0.275 OA
ATOM     28  H   UNL     1       0.078   0.954   2.425  0.00  0.00    +0.155 HD
BRANCH  25  35
ATOM     29  C   UNL     1      -1.264   1.184   0.181  0.00  0.00    +0.045 C 
ATOM     30  C   UNL     1      -0.584  -0.158   0.084  0.00  0.00    -0.029 A 
ATOM     31  C   UNL     1      -0.568  -0.840  -1.117  0.00  0.00    +0.005 A 
ATOM     32  C   UNL     1       0.055  -2.071  -1.206  0.00  0.00    +0.000 A 
ATOM     33  C   UNL     1       0.666  -2.622  -0.095  0.00  0.00    +0.002 A 
ATOM     34  C   UNL     1       0.655  -1.945   1.108  0.00  0.00    +0.023 A 
ATOM     35  C   UNL     1       0.034  -0.706   1.201  0.00  0.00    +0.036 A 
ENDBRANCH  25  35
ENDBRANCH  24  26
ENDBRANCH  23  24
ENDBRANCH   1  23
TORSDOF 7
