REMARK  Name = ZINC63480065
REMARK  5 active torsions:
REMARK  status: ('A' for Active; 'I' for Inactive)
REMARK    1  A    between atoms: C_1  and  C_2
REMARK    2  A    between atoms: C_5  and  N_9
REMARK    3  A    between atoms: C_7  and  C_8
REMARK    4  A    between atoms: C_14  and  C_31
REMARK    5  A    between atoms: C_31  and  C_32
REMARK                            x       y       z     vdW  Elec       q    Type
REMARK                         _______ _______ _______ _____ _____    ______ ____
ROOT
ATOM      1  N   UNL     1       0.059  -4.172  -0.021  0.00  0.00    -0.210 N 
ATOM      2  C   UNL     1       0.167  -4.901   1.096  0.00  0.00    +0.232 C 
ATOM      3  O   UNL     1       0.262  -4.452   2.218  0.00  0.00    -0.274 OA
ATOM      4  C   UNL     1       0.150  -6.370   0.742  0.00  0.00    +0.107 C 
ATOM      5  C   UNL     1       1.534  -6.983   1.038  0.00  0.00    +0.072 C 
ATOM      6  N   UNL     1       2.329  -6.748  -0.196  0.00  0.00    -0.295 NA
ATOM      7  C   UNL     1       1.365  -6.964  -1.292  0.00  0.00    +0.136 C 
ATOM      8  C   UNL     1       0.022  -6.364  -0.808  0.00  0.00    +0.123 C 
ATOM      9  C   UNL     1      -0.036  -4.891  -1.145  0.00  0.00    +0.233 C 
ATOM     10  O   UNL     1      -0.148  -4.433  -2.262  0.00  0.00    -0.274 OA
ATOM     11  C   UNL     1       1.831  -6.327  -2.570  0.00  0.00    +0.003 A 
ATOM     12  C   UNL     1       2.137  -5.034  -2.929  0.00  0.00    +0.008 A 
ATOM     13  C   UNL     1       2.551  -4.752  -4.218  0.00  0.00    +0.000 A 
ATOM     14  C   UNL     1       2.657  -5.773  -5.146  0.00  0.00    +0.002 A 
ATOM     15  C   UNL     1       2.349  -7.070  -4.791  0.00  0.00    +0.023 A 
ATOM     16  C   UNL     1       1.931  -7.362  -3.495  0.00  0.00    +0.039 A 
ATOM     17  N   UNL     1       1.568  -8.575  -2.905  0.00  0.00    -0.283 N 
ATOM     18  C   UNL     1       1.221  -8.427  -1.613  0.00  0.00    +0.243 C 
ATOM     19  O   UNL     1       0.863  -9.303  -0.854  0.00  0.00    -0.273 OA
ATOM     20  H   UNL     1       2.695  -5.808  -0.217  0.00  0.00    +0.124 HD
ATOM     21  H   UNL     1       1.565  -9.425  -3.373  0.00  0.00    +0.155 HD
ENDROOT
BRANCH   1  26
ATOM     22  C   UNL     1      -0.017   1.503   0.012  0.00  0.00    +0.044 C 
ATOM     23  C   UNL     1       0.003  -0.004   0.003  0.00  0.00    -0.047 A 
ATOM     24  C   UNL     1      -1.131  -0.707  -0.360  0.00  0.00    +0.005 A 
ATOM     25  C   UNL     1      -1.116  -2.088  -0.369  0.00  0.00    +0.024 A 
ATOM     26  C   UNL     1       0.040  -2.771  -0.013  0.00  0.00    +0.044 A 
ATOM     27  C   UNL     1       1.177  -2.062   0.351  0.00  0.00    +0.027 A 
ATOM     28  C   UNL     1       1.157  -0.681   0.353  0.00  0.00    -0.046 A 
ATOM     29  C   UNL     1       2.392   0.089   0.744  0.00  0.00    +0.044 C 
ENDBRANCH   1  26
BRANCH   5  30
ATOM     30  C   UNL     1       2.183  -6.280   2.233  0.00  0.00    +0.052 C 
BRANCH  30  31
ATOM     31  C   UNL     1       3.475  -6.971   2.582  0.00  0.00    -0.040 C 
ATOM     32  C   UNL     1       4.718  -6.628   2.173  0.00  0.00    -0.001 A 
ATOM     33  C   UNL     1       5.218  -5.549   1.313  0.00  0.00    +0.010 A 
ATOM     34  C   UNL     1       6.548  -5.459   1.080  0.00  0.00    +0.001 A 
ATOM     35  C   UNL     1       7.457  -6.368   1.638  0.00  0.00    +0.002 A 
ATOM     36  C   UNL     1       7.073  -7.386   2.438  0.00  0.00    +0.026 A 
ATOM     37  C   UNL     1       5.698  -7.574   2.751  0.00  0.00    +0.043 A 
ATOM     38  N   UNL     1       5.086  -8.469   3.488  0.00  0.00    -0.380 N 
ATOM     39  C   UNL     1       3.646  -8.187   3.466  0.00  0.00    +0.144 C 
ATOM     40  H   UNL     1       5.513  -9.194   3.970  0.00  0.00    +0.160 HD
ENDBRANCH  30  31
ENDBRANCH   5  30
TORSDOF 3
