REMARK  Name = ZINC39154748
REMARK  9 active torsions:
REMARK  status: ('A' for Active; 'I' for Inactive)
REMARK    1  A    between atoms: C_1  and  C_2
REMARK    2  A    between atoms: C_2  and  O_3
REMARK    3  A    between atoms: O_3  and  C_4
REMARK    4  A    between atoms: C_4  and  C_6
REMARK    5  A    between atoms: C_8  and  N_17
REMARK    6  A    between atoms: C_18  and  C_20
REMARK    7  A    between atoms: C_20  and  S_21
REMARK    8  A    between atoms: S_21  and  C_22
REMARK    9  A    between atoms: C_26  and  C_29
REMARK                            x       y       z     vdW  Elec       q    Type
REMARK                         _______ _______ _______ _____ _____    ______ ____
ROOT
ATOM      1  N   UNL     1      -2.737  -1.643  -2.344  0.00  0.00    -0.301 N 
ATOM      2  C   UNL     1      -3.025  -2.073  -3.588  0.00  0.00    +0.224 C 
ATOM      3  O   UNL     1      -4.038  -2.708  -3.791  0.00  0.00    -0.275 OA
ATOM      4  H   UNL     1      -1.926  -1.135  -2.181  0.00  0.00    +0.150 HD
ENDROOT
BRANCH   1   6
ATOM      5  C   UNL     1      -2.881  -2.427   0.017  0.00  0.00    +0.155 C 
ATOM      6  C   UNL     1      -3.649  -1.941  -1.236  0.00  0.00    +0.153 C 
ATOM      7  S   UNL     1      -4.638  -3.460  -1.564  0.00  0.00    -0.106 S 
ATOM      8  C   UNL     1      -3.614  -4.627  -0.699  0.00  0.00    -0.013 C 
ATOM      9  C   UNL     1      -2.771  -3.930   0.050  0.00  0.00    -0.044 C 
ATOM     10  C   UNL     1      -1.727  -4.632   0.916  0.00  0.00    +0.032 C 
ATOM     11  C   UNL     1      -2.142  -6.088   1.122  0.00  0.00    +0.005 C 
ATOM     12  C   UNL     1      -2.421  -6.737  -0.238  0.00  0.00    +0.005 C 
ATOM     13  C   UNL     1      -3.701  -6.123  -0.811  0.00  0.00    +0.042 C 
BRANCH   5  14
ATOM     14  C   UNL     1      -1.496  -1.832   0.006  0.00  0.00    +0.317 C 
ATOM     15  O   UNL     1      -0.528  -2.555  -0.007  0.00  0.00    -0.250 OA
BRANCH  14  16
ATOM     16  O   UNL     1      -1.339  -0.499   0.012  0.00  0.00    -0.464 OA
BRANCH  16  18
ATOM     17  C   UNL     1      -0.019   1.526   0.010  0.00  0.00    +0.048 C 
ATOM     18  C   UNL     1       0.002  -0.004   0.002  0.00  0.00    +0.229 C 
ENDBRANCH  16  18
ENDBRANCH  14  16
ENDBRANCH   5  14
ENDBRANCH   1   6
BRANCH   2  19
ATOM     19  C   UNL     1      -2.087  -1.766  -4.727  0.00  0.00    +0.173 C 
BRANCH  19  20
ATOM     20  S   UNL     1      -2.746  -2.475  -6.261  0.00  0.00    -0.075 S 
BRANCH  20  21
ATOM     21  C   UNL     1      -1.553  -2.036  -7.481  0.00  0.00    +0.213 A 
ATOM     22  N   UNL     1      -1.738  -2.410  -8.742  0.00  0.00    -0.180 NA
ATOM     23  C   UNL     1      -0.839  -2.079  -9.660  0.00  0.00    +0.300 A 
ATOM     24  O   UNL     1      -1.003  -2.447 -10.953  0.00  0.00    -0.263 OA
ATOM     25  C   UNL     1       0.287  -1.337  -9.261  0.00  0.00    +0.159 A 
ATOM     26  N   UNL     1       0.413  -0.994  -7.985  0.00  0.00    -0.141 NA
ATOM     27  N   UNL     1      -0.485  -1.331  -7.127  0.00  0.00    -0.122 NA
BRANCH  25  28
ATOM     28  C   UNL     1       1.318  -0.944 -10.252  0.00  0.00    +0.008 A 
ATOM     29  C   UNL     1       1.630  -1.795 -11.311  0.00  0.00    +0.011 A 
ATOM     30  C   UNL     1       2.590  -1.424 -12.231  0.00  0.00    +0.020 A 
ATOM     31  C   UNL     1       3.243  -0.210 -12.102  0.00  0.00    +0.041 A 
ATOM     32  C   UNL     1       2.937   0.638 -11.051  0.00  0.00    +0.020 A 
ATOM     33  C   UNL     1       1.975   0.280 -10.130  0.00  0.00    +0.011 A 
ATOM     34 CL   UNL     1       4.451   0.249 -13.261  0.00  0.00    -0.084 Cl
ENDBRANCH  25  28
ENDBRANCH  20  21
ENDBRANCH  19  20
ENDBRANCH   2  19
TORSDOF 8
