REMARK  Name = ZINC08036192
REMARK  6 active torsions:
REMARK  status: ('A' for Active; 'I' for Inactive)
REMARK    1  A    between atoms: C_2  and  C_3
REMARK    2  A    between atoms: C_3  and  C_4
REMARK    3  A    between atoms: C_10  and  C_15
REMARK    4  A    between atoms: C_13  and  O_14
REMARK    5  A    between atoms: C_16  and  C_17
REMARK    6  A    between atoms: C_20  and  N_23
REMARK                            x       y       z     vdW  Elec       q    Type
REMARK                         _______ _______ _______ _____ _____    ______ ____
ROOT
ATOM      1  C   UNL     1      -5.978  -0.717   0.057  0.00  0.00    -0.000 A 
ATOM      2  C   UNL     1      -5.999  -2.109   0.050  0.00  0.00    +0.008 A 
ATOM      3  C   UNL     1      -4.841  -2.826   0.034  0.00  0.00    +0.010 A 
ATOM      4  C   UNL     1      -3.607  -2.158   0.026  0.00  0.00    +0.004 A 
ATOM      5  C   UNL     1      -2.390  -2.872   0.010  0.00  0.00    +0.012 A 
ATOM      6  C   UNL     1      -1.226  -2.164   0.002  0.00  0.00    +0.028 A 
ATOM      7  C   UNL     1      -1.263  -0.757   0.010  0.00  0.00    +0.065 A 
ATOM      8  N   UNL     1      -2.409  -0.098   0.030  0.00  0.00    -0.244 NA
ATOM      9  C   UNL     1      -3.578  -0.742   0.033  0.00  0.00    +0.113 A 
ATOM     10  C   UNL     1      -4.797  -0.031   0.049  0.00  0.00    +0.146 A 
ENDROOT
BRANCH  10  11
ATOM     11  O   UNL     1      -4.796   1.327   0.056  0.00  0.00    -0.504 OA
ATOM     12  H   UNL     1      -4.805   1.725  -0.826  0.00  0.00    +0.292 HD
ENDBRANCH  10  11
BRANCH   7  13
ATOM     13  C   UNL     1       0.002  -0.004   0.002  0.00  0.00    +0.028 C 
ATOM     14  C   UNL     1      -0.016   1.339   0.009  0.00  0.00    +0.010 C 
BRANCH  14  15
ATOM     15  C   UNL     1       1.250   2.094   0.001  0.00  0.00    -0.025 A 
ATOM     16  C   UNL     1       2.471   1.415  -0.008  0.00  0.00    +0.010 A 
ATOM     17  C   UNL     1       3.652   2.127  -0.020  0.00  0.00    +0.033 A 
ATOM     18  C   UNL     1       3.629   3.511  -0.013  0.00  0.00    +0.126 A 
ATOM     19  C   UNL     1       2.424   4.190   0.002  0.00  0.00    +0.033 A 
ATOM     20  C   UNL     1       1.235   3.491   0.009  0.00  0.00    +0.010 A 
BRANCH  18  21
ATOM     21  N   UNL     1       4.901   4.268  -0.021  0.00  0.00    +0.056 N 
ATOM     22  O   UNL     1       4.885   5.486  -0.015  0.00  0.00    -0.126 OA
ATOM     23  O   UNL     1       5.964   3.674  -0.035  0.00  0.00    -0.126 OA
ENDBRANCH  18  21
ENDBRANCH  14  15
ENDBRANCH   7  13
BRANCH   1  24
ATOM     24  C   UNL     1      -7.279   0.045   0.074  0.00  0.00    +0.065 C 
BRANCH  24  26
ATOM     25  C   UNL     1      -8.836   0.067  -1.806  0.00  0.00    +0.004 C 
ATOM     26  C   UNL     1      -7.664   0.413  -1.336  0.00  0.00    -0.030 C 
ENDBRANCH  24  26
ENDBRANCH   1  24
TORSDOF 6
