REMARK  Name = ZINC14965085
REMARK  8 active torsions:
REMARK  status: ('A' for Active; 'I' for Inactive)
REMARK    1  A    between atoms: C_1  and  N_2
REMARK    2  A    between atoms: N_2  and  C_3
REMARK    3  A    between atoms: C_3  and  C_5
REMARK    4  A    between atoms: C_3  and  C_13
REMARK    5  A    between atoms: C_5  and  C_6
REMARK    6  A    between atoms: C_18  and  C_19
REMARK    7  A    between atoms: C_18  and  N_63
REMARK    8  A    between atoms: C_28  and  C_30
REMARK                            x       y       z     vdW  Elec       q    Type
REMARK                         _______ _______ _______ _____ _____    ______ ____
ROOT
ATOM      1  C   UNL     1       4.823   1.367   0.156  0.00  0.00    +0.083 C 
ENDROOT
BRANCH   1   2
ATOM      2  C   UNL     1       4.793   0.191   1.134  0.00  0.00    +0.006 C 
ATOM      3  C   UNL     1       3.818  -0.874   0.625  0.00  0.00    -0.013 C 
ATOM      4  C   UNL     1       3.745  -2.019   1.638  0.00  0.00    -0.078 C 
ATOM      5  C   UNL     1       4.244  -0.509   3.467  0.00  0.00    -0.078 C 
ATOM      6  C   UNL     1       4.331   0.681   2.509  0.00  0.00    -0.013 C 
ATOM      7  N   UNL     1       3.271  -1.486   2.933  0.00  0.00    +0.382 N 
ATOM      8  H   UNL     1       2.370  -1.013   2.789  0.00  0.00    -0.081 HD
BRANCH   7   9
ATOM      9  C   UNL     1       3.084  -2.591   3.896  0.00  0.00    -0.043 C 
BRANCH   9  10
ATOM     10  C   UNL     1       1.936  -3.449   3.432  0.00  0.00    -0.060 A 
ATOM     11  C   UNL     1       0.647  -3.156   3.840  0.00  0.00    +0.005 A 
ATOM     12  C   UNL     1      -0.410  -3.938   3.413  0.00  0.00    +0.050 A 
ATOM     13  C   UNL     1      -0.179  -5.024   2.584  0.00  0.00    +0.166 A 
ATOM     14  C   UNL     1       1.119  -5.322   2.178  0.00  0.00    +0.166 A 
ATOM     15  C   UNL     1       2.174  -4.531   2.606  0.00  0.00    +0.051 A 
ATOM     16  O   UNL     1       1.083  -6.426   1.376  0.00  0.00    -0.453 OA
ATOM     17  C   UNL     1      -0.195  -7.041   1.625  0.00  0.00    +0.466 C 
ATOM     18  O   UNL     1      -1.029  -5.941   2.036  0.00  0.00    -0.453 OA
ENDBRANCH   9  10
ENDBRANCH   7   9
ENDBRANCH   1   2
BRANCH   1  20
ATOM     19  C   UNL     1       6.453   0.234  -1.425  0.00  0.00    +0.132 C 
ATOM     20  N   UNL     1       5.159   0.879  -1.184  0.00  0.00    -0.297 N 
ATOM     21  C   UNL     1       4.279   1.023  -2.194  0.00  0.00    +0.253 C 
ATOM     22  O   UNL     1       3.216   1.583  -2.000  0.00  0.00    -0.269 OA
BRANCH  21  23
ATOM     23  C   UNL     1       4.602   0.505  -3.527  0.00  0.00    +0.074 A 
ATOM     24  C   UNL     1       3.797   0.429  -4.653  0.00  0.00    +0.021 A 
ATOM     25  C   UNL     1       4.356  -0.112  -5.785  0.00  0.00    +0.008 A 
ATOM     26  C   UNL     1       5.649  -0.529  -5.752  0.00  0.00    +0.046 A 
ATOM     27  S   UNL     1       6.133  -0.191  -4.122  0.00  0.00    -0.092 S 
ENDBRANCH  21  23
ENDBRANCH   1  20
BRANCH   1  28
ATOM     28  C   UNL     1       5.876   2.380   0.609  0.00  0.00    +0.060 C 
BRANCH  28  29
ATOM     29  C   UNL     1       5.821   3.594  -0.283  0.00  0.00    -0.010 A 
ATOM     30  C   UNL     1       6.674   3.696  -1.365  0.00  0.00    +0.006 A 
ATOM     31  C   UNL     1       6.620   4.806  -2.187  0.00  0.00    +0.000 A 
ATOM     32  C   UNL     1       5.720   5.822  -1.920  0.00  0.00    +0.003 A 
ATOM     33  C   UNL     1       4.870   5.725  -0.835  0.00  0.00    +0.038 A 
ATOM     34  C   UNL     1       4.920   4.610  -0.015  0.00  0.00    +0.127 A 
ATOM     35  F   UNL     1       4.089   4.514   1.046  0.00  0.00    -0.205 F 
ENDBRANCH  28  29
ENDBRANCH   1  28
TORSDOF 7
