REMARK  Name = ZINC20677381
REMARK  5 active torsions:
REMARK  status: ('A' for Active; 'I' for Inactive)
REMARK    1  A    between atoms: C_1  and  N_2
REMARK    2  A    between atoms: N_2  and  C_3
REMARK    3  A    between atoms: N_2  and  C_4
REMARK    4  A    between atoms: C_4  and  C_5
REMARK    5  A    between atoms: C_5  and  N_6
REMARK                            x       y       z     vdW  Elec       q    Type
REMARK                         _______ _______ _______ _____ _____    ______ ____
ROOT
ATOM      1  N   UNL     1      -8.655  -0.350  -1.678  0.00  0.00    -0.328 N 
ATOM      2  C   UNL     1      -7.301  -0.177  -1.917  0.00  0.00    +0.159 A 
ATOM      3  C   UNL     1      -6.425   0.148  -0.890  0.00  0.00    +0.083 A 
ATOM      4  C   UNL     1      -5.058   0.318  -1.154  0.00  0.00    +0.115 A 
ATOM      5  C   UNL     1      -4.217   0.663   0.007  0.00  0.00    +0.039 A 
ATOM      6  C   UNL     1      -2.816   0.889   0.017  0.00  0.00    -0.029 A 
ATOM      7  C   UNL     1      -2.200   1.203   1.185  0.00  0.00    -0.004 A 
ATOM      8  C   UNL     1      -2.951   1.293   2.365  0.00  0.00    +0.126 A 
ATOM      9  N   UNL     1      -4.256   1.079   2.353  0.00  0.00    -0.225 NA
ATOM     10  C   UNL     1      -4.885   0.778   1.236  0.00  0.00    +0.113 A 
ATOM     11  S   UNL     1      -6.585   0.436   0.849  0.00  0.00    -0.063 S 
ATOM     12  N   UNL     1      -2.318   1.609   3.559  0.00  0.00    -0.315 N 
ATOM     13  C   UNL     1      -2.456   0.518   4.533  0.00  0.00    +0.106 C 
ATOM     14  C   UNL     1      -1.627   0.837   5.779  0.00  0.00    +0.019 C 
ATOM     15  C   UNL     1      -2.116   2.154   6.388  0.00  0.00    +0.003 C 
ATOM     16  C   UNL     1      -2.008   3.264   5.338  0.00  0.00    +0.019 C 
ATOM     17  C   UNL     1      -2.826   2.875   4.105  0.00  0.00    +0.106 C 
ATOM     18  C   UNL     1      -0.716   1.474   1.276  0.00  0.00    +0.039 C 
ATOM     19  C   UNL     1       0.000   0.924   0.044  0.00  0.00    +0.005 C 
ATOM     20  C   UNL     1      -0.717   1.439  -1.210  0.00  0.00    +0.005 C 
ATOM     21  C   UNL     1      -2.085   0.762  -1.292  0.00  0.00    +0.036 C 
ATOM     22  N   UNL     1      -4.686   0.145  -2.441  0.00  0.00    -0.128 NA
ATOM     23  N   UNL     1      -5.537  -0.155  -3.348  0.00  0.00    -0.041 NA
ATOM     24  N   UNL     1      -6.793  -0.318  -3.143  0.00  0.00    -0.113 NA
ATOM     25  H   UNL     1      -9.054  -0.230  -0.660  0.00  0.00    +0.147 HD
ENDROOT
BRANCH   1  26
ATOM     26  C   UNL     1      -9.556  -0.694  -2.781  0.00  0.00    +0.084 C 
BRANCH  26  27
ATOM     27  C   UNL     1     -10.985  -0.826  -2.250  0.00  0.00    -0.061 C 
BRANCH  27  29
ATOM     28  C   UNL     1     -11.587  -2.507  -3.885  0.00  0.00    -0.097 C 
ATOM     29  N   UNL     1     -11.889  -1.171  -3.356  0.00  0.00    +0.377 N 
ATOM     30  C   UNL     1     -13.293  -1.074  -2.938  0.00  0.00    -0.097 C 
ATOM     31  H   UNL     1     -11.726  -0.442  -4.165  0.00  0.00    -0.083 HD
ENDBRANCH  27  29
ENDBRANCH  26  27
ENDBRANCH   1  26
TORSDOF 3
