REMARK  Name = ZINC22910896
REMARK  11 active torsions:
REMARK  status: ('A' for Active; 'I' for Inactive)
REMARK    1  A    between atoms: C_1  and  C_2
REMARK    2  A    between atoms: C_2  and  C_3
REMARK    3  A    between atoms: C_2  and  N_4
REMARK    4  A    between atoms: C_5  and  C_7
REMARK    5  A    between atoms: C_7  and  N_8
REMARK    6  A    between atoms: N_11  and  C_14
REMARK    7  A    between atoms: C_14  and  C_15
REMARK    8  A    between atoms: N_23  and  C_26
REMARK    9  A    between atoms: C_26  and  C_27
REMARK   10  A    between atoms: C_27  and  S_28
REMARK   11  A    between atoms: S_28  and  C_29
REMARK                            x       y       z     vdW  Elec       q    Type
REMARK                         _______ _______ _______ _____ _____    ______ ____
ROOT
ATOM      1  C   UNL     1       3.612   1.857  -0.020  0.00  0.00    +0.032 A 
ATOM      2  C   UNL     1       2.481   1.108  -0.015  0.00  0.00    +0.020 A 
ATOM      3  C   UNL     1       1.188   1.795   0.000  0.00  0.00    -0.001 A 
ATOM      4  C   UNL     1      -0.013   1.076   0.008  0.00  0.00    +0.013 A 
ATOM      5  C   UNL     1      -1.202   1.745   0.017  0.00  0.00    +0.039 A 
ATOM      6  C   UNL     1      -1.232   3.136   0.029  0.00  0.00    +0.125 A 
ATOM      7  C   UNL     1      -0.059   3.864   0.022  0.00  0.00    +0.064 A 
ATOM      8  C   UNL     1       1.163   3.203   0.008  0.00  0.00    +0.055 A 
ATOM      9  N   UNL     1       2.350   3.905   0.001  0.00  0.00    -0.307 N 
ATOM     10  C   UNL     1       3.532   3.265  -0.012  0.00  0.00    +0.256 A 
ATOM     11  O   UNL     1       4.561   3.918  -0.018  0.00  0.00    -0.267 OA
ATOM     12  F   UNL     1      -2.419   3.780   0.043  0.00  0.00    -0.205 F 
ENDROOT
BRANCH   1  13
ATOM     13  C   UNL     1       4.959   1.181  -0.034  0.00  0.00    +0.125 C 
BRANCH  13  17
ATOM     14  N   UNL     1       6.478  -0.283  -3.694  0.00  0.00    +0.387 N 
ATOM     15  C   UNL     1       7.328   0.623  -2.909  0.00  0.00    -0.063 C 
ATOM     16  C   UNL     1       6.843   0.642  -1.457  0.00  0.00    +0.066 C 
ATOM     17  N   UNL     1       5.439   1.076  -1.418  0.00  0.00    -0.301 NA
ATOM     18  C   UNL     1       4.589   0.171  -2.204  0.00  0.00    +0.066 C 
ATOM     19  C   UNL     1       5.074   0.151  -3.655  0.00  0.00    -0.063 C 
ATOM     20  H   UNL     1       6.536  -1.283  -3.241  0.00  0.00    -0.081 HD
BRANCH  14  21
ATOM     21  C   UNL     1       6.958  -0.388  -5.079  0.00  0.00    +0.019 C 
BRANCH  21  23
ATOM     22  N   UNL     1       6.500  -1.780  -7.072  0.00  0.00    -0.315 N 
ATOM     23  C   UNL     1       6.223  -1.499  -5.783  0.00  0.00    +0.197 C 
ATOM     24  O   UNL     1       5.381  -2.140  -5.190  0.00  0.00    -0.278 OA
ATOM     25  H   UNL     1       7.263  -1.198  -7.609  0.00  0.00    +0.149 HD
BRANCH  22  27
ATOM     26  C   UNL     1       4.463  -2.326  -8.310  0.00  0.00    +0.027 C 
ATOM     27  C   UNL     1       5.786  -2.860  -7.756  0.00  0.00    +0.067 C 
ATOM     28  C   UNL     1       6.644  -3.390  -8.907  0.00  0.00    +0.027 C 
ENDBRANCH  22  27
ENDBRANCH  21  23
ENDBRANCH  14  21
ENDBRANCH  13  17
ENDBRANCH   1  13
BRANCH   9  29
ATOM     29  C   UNL     1       2.322   5.370   0.009  0.00  0.00    +0.136 C 
BRANCH  29  30
ATOM     30  C   UNL     1       2.324   5.872   1.454  0.00  0.00    +0.096 C 
BRANCH  30  31
ATOM     31  S   UNL     1       2.290   7.686   1.463  0.00  0.00    -0.123 S 
BRANCH  31  32
ATOM     32  C   UNL     1       2.296   8.104   3.175  0.00  0.00    +0.008 A 
ATOM     33  C   UNL     1       2.318   7.100   4.136  0.00  0.00    +0.015 A 
ATOM     34  C   UNL     1       2.329   7.432   5.477  0.00  0.00    +0.001 A 
ATOM     35  C   UNL     1       2.307   8.759   5.863  0.00  0.00    +0.000 A 
ATOM     36  C   UNL     1       2.279   9.760   4.909  0.00  0.00    +0.001 A 
ATOM     37  C   UNL     1       2.274   9.437   3.567  0.00  0.00    +0.015 A 
ENDBRANCH  31  32
ENDBRANCH  30  31
ENDBRANCH  29  30
ENDBRANCH   9  29
TORSDOF 9
