REMARK  Name = ZINC12956258
REMARK  6 active torsions:
REMARK  status: ('A' for Active; 'I' for Inactive)
REMARK    1  A    between atoms: C_3  and  N_14
REMARK    2  A    between atoms: C_4  and  N_11
REMARK    3  A    between atoms: C_6  and  C_7
REMARK    4  A    between atoms: N_18  and  C_21
REMARK    5  A    between atoms: C_21  and  N_23
REMARK    6  A    between atoms: N_23  and  C_24
REMARK                            x       y       z     vdW  Elec       q    Type
REMARK                         _______ _______ _______ _____ _____    ______ ____
ROOT
ATOM      1  N   UNL     1       0.229   0.857  -0.178  0.00  0.00    -0.327 N 
ATOM      2  C   UNL     1       0.504  -0.567  -0.372  0.00  0.00    +0.107 C 
ATOM      3  C   UNL     1       0.698  -0.963  -1.779  0.00  0.00    +0.038 C 
ATOM      4  C   UNL     1       1.933  -0.231  -2.364  0.00  0.00    +0.108 C 
ATOM      5  N   UNL     1       1.638   1.179  -2.501  0.00  0.00    -0.311 N 
ATOM      6  C   UNL     1       1.881   2.158  -1.422  0.00  0.00    +0.125 C 
ATOM      7  C   UNL     1       1.464   1.602  -0.048  0.00  0.00    +0.124 C 
ENDROOT
BRANCH   1  10
ATOM      8  C   UNL     1      -0.980   0.914   3.292  0.00  0.00    +0.014 A 
ATOM      9  C   UNL     1      -0.162   0.705   2.199  0.00  0.00    +0.026 A 
ATOM     10  C   UNL     1      -0.598   1.061   0.929  0.00  0.00    +0.060 A 
ATOM     11  C   UNL     1      -1.861   1.615   0.761  0.00  0.00    +0.148 A 
ATOM     12  C   UNL     1      -2.676   1.816   1.858  0.00  0.00    +0.047 A 
ATOM     13  C   UNL     1      -2.236   1.466   3.122  0.00  0.00    +0.057 A 
BRANCH  13  14
ATOM     14  C   UNL     1      -3.129   1.687   4.316  0.00  0.00    +0.417 C 
ATOM     15  F   UNL     1      -3.914   0.548   4.528  0.00  0.00    -0.166 F 
ATOM     16  F   UNL     1      -2.342   1.928   5.447  0.00  0.00    -0.166 F 
ATOM     17  F   UNL     1      -3.958   2.788   4.081  0.00  0.00    -0.166 F 
ENDBRANCH  13  14
BRANCH  11  18
ATOM     18  N   UNL     1      -2.332   1.990  -0.591  0.00  0.00    +0.058 N 
ATOM     19  O   UNL     1      -3.399   2.562  -0.727  0.00  0.00    -0.126 OA
ATOM     20  O   UNL     1      -1.653   1.727  -1.567  0.00  0.00    -0.126 OA
ENDBRANCH  11  18
ENDBRANCH   1  10
BRANCH   5  21
ATOM     21  C   UNL     1       1.119   1.618  -3.665  0.00  0.00    +0.137 C 
ATOM     22  S   UNL     1       0.697   0.499  -4.890  0.00  0.00    -0.018 S 
BRANCH  21  23
ATOM     23  N   UNL     1       0.932   2.938  -3.864  0.00  0.00    -0.296 N 
ATOM     24  H   UNL     1       1.211   3.574  -3.187  0.00  0.00    +0.154 HD
BRANCH  23  25
ATOM     25  C   UNL     1       0.336   3.390  -5.047  0.00  0.00    +0.047 A 
ATOM     26  C   UNL     1      -0.722   2.686  -5.606  0.00  0.00    +0.027 A 
ATOM     27  C   UNL     1      -1.309   3.133  -6.773  0.00  0.00    +0.040 A 
ATOM     28  C   UNL     1      -0.842   4.284  -7.387  0.00  0.00    +0.125 A 
ATOM     29  C   UNL     1       0.213   4.987  -6.833  0.00  0.00    +0.055 A 
ATOM     30  C   UNL     1       0.799   4.547  -5.662  0.00  0.00    +0.042 A 
ATOM     31 BR   UNL     1       2.236   5.513  -4.900  0.00  0.00    -0.048 Br
ATOM     32  F   UNL     1      -1.418   4.720  -8.529  0.00  0.00    -0.205 F 
ENDBRANCH  23  25
ENDBRANCH  21  23
ENDBRANCH   5  21
TORSDOF 6
