REMARK  Name = ZINC35752364
REMARK  10 active torsions:
REMARK  status: ('A' for Active; 'I' for Inactive)
REMARK    1  A    between atoms: C_1  and  C_2
REMARK    2  A    between atoms: C_6  and  C_8
REMARK    3  A    between atoms: C_8  and  N_9
REMARK    4  A    between atoms: C_10  and  C_29
REMARK    5  A    between atoms: C_12  and  C_17
REMARK    6  A    between atoms: C_20  and  N_23
REMARK    7  A    between atoms: C_24  and  C_26
REMARK    8  A    between atoms: C_26  and  C_27
REMARK    9  A    between atoms: C_26  and  C_28
REMARK   10  A    between atoms: N_31  and  C_32
REMARK                            x       y       z     vdW  Elec       q    Type
REMARK                         _______ _______ _______ _____ _____    ______ ____
ROOT
ATOM      1  N   UNL     1       1.201  -3.058   2.888  0.00  0.00    -0.248 N 
ATOM      2  C   UNL     1       2.112  -4.213   2.771  0.00  0.00    +0.211 C 
ATOM      3  C   UNL     1       3.490  -3.574   3.066  0.00  0.00    +0.238 C 
ATOM      4  O   UNL     1       3.124  -2.417   3.843  0.00  0.00    -0.440 OA
ATOM      5  C   UNL     1       1.875  -2.063   3.494  0.00  0.00    +0.405 C 
ATOM      6  O   UNL     1       1.403  -0.964   3.707  0.00  0.00    -0.226 OA
ENDROOT
BRANCH   3   7
ATOM      7  C   UNL     1       4.357  -4.509   3.869  0.00  0.00    -0.005 A 
ATOM      8  C   UNL     1       4.169  -4.622   5.234  0.00  0.00    +0.009 A 
ATOM      9  C   UNL     1       4.962  -5.479   5.973  0.00  0.00    +0.024 A 
ATOM     10  C   UNL     1       5.948  -6.227   5.343  0.00  0.00    +0.033 A 
ATOM     11  C   UNL     1       6.133  -6.112   3.971  0.00  0.00    +0.024 A 
ATOM     12  C   UNL     1       5.334  -5.257   3.238  0.00  0.00    +0.009 A 
BRANCH  10  13
ATOM     13  N   UNL     1       6.753  -7.096   6.088  0.00  0.00    -0.285 N 
ATOM     14  C   UNL     1       6.243  -7.734   7.161  0.00  0.00    +0.220 C 
ATOM     15  O   UNL     1       5.064  -7.628   7.425  0.00  0.00    -0.275 OA
ATOM     16  H   UNL     1       7.678  -7.239   5.834  0.00  0.00    +0.155 HD
BRANCH  14  17
ATOM     17  C   UNL     1       7.138  -8.578   8.031  0.00  0.00    +0.069 C 
ATOM     18  C   UNL     1       8.252  -7.707   8.614  0.00  0.00    +0.017 C 
ATOM     19  C   UNL     1       6.316  -9.186   9.169  0.00  0.00    +0.017 C 
ENDBRANCH  14  17
ENDBRANCH  10  13
ENDBRANCH   3   7
BRANCH   2  20
ATOM     20  C   UNL     1       2.071  -4.791   1.380  0.00  0.00    +0.242 C 
ATOM     21  O   UNL     1       1.743  -4.093   0.443  0.00  0.00    -0.273 OA
ATOM     22  N   UNL     1       2.398  -6.082   1.176  0.00  0.00    -0.284 N 
ATOM     23  H   UNL     1       2.586  -6.660   1.932  0.00  0.00    +0.155 HD
BRANCH  22  24
ATOM     24  C   UNL     1       2.468  -6.589  -0.126  0.00  0.00    +0.036 A 
ATOM     25  C   UNL     1       2.119  -7.910  -0.378  0.00  0.00    +0.023 A 
ATOM     26  C   UNL     1       2.188  -8.409  -1.664  0.00  0.00    +0.005 A 
ATOM     27  C   UNL     1       2.603  -7.595  -2.702  0.00  0.00    +0.038 A 
ATOM     28  C   UNL     1       2.952  -6.278  -2.455  0.00  0.00    +0.125 A 
ATOM     29  C   UNL     1       2.879  -5.772  -1.170  0.00  0.00    +0.061 A 
ATOM     30  F   UNL     1       3.358  -5.485  -3.471  0.00  0.00    -0.205 F 
ENDBRANCH  22  24
ENDBRANCH   2  20
BRANCH   1  31
ATOM     31  C   UNL     1      -0.187  -3.002   2.422  0.00  0.00    +0.147 C 
BRANCH  31  37
ATOM     32  C   UNL     1      -2.893  -6.375   4.942  0.00  0.00    +0.044 C 
ATOM     33  C   UNL     1      -2.409  -4.959   4.766  0.00  0.00    -0.050 A 
ATOM     34  C   UNL     1      -2.813  -3.974   5.648  0.00  0.00    +0.003 A 
ATOM     35  C   UNL     1      -2.369  -2.676   5.486  0.00  0.00    +0.001 A 
ATOM     36  C   UNL     1      -1.519  -2.361   4.442  0.00  0.00    +0.005 A 
ATOM     37  C   UNL     1      -1.113  -3.345   3.561  0.00  0.00    -0.030 A 
ATOM     38  C   UNL     1      -1.555  -4.645   3.725  0.00  0.00    +0.008 A 
ENDBRANCH  31  37
ENDBRANCH   1  31
TORSDOF 7
