REMARK  Name = ZINC12225999
REMARK  9 active torsions:
REMARK  status: ('A' for Active; 'I' for Inactive)
REMARK    1  A    between atoms: C_1  and  C_2
REMARK    2  A    between atoms: C_2  and  C_3
REMARK    3  A    between atoms: C_3  and  N_4
REMARK    4  A    between atoms: N_4  and  C_5
REMARK    5  A    between atoms: C_5  and  C_6
REMARK    6  A    between atoms: C_17  and  C_19
REMARK    7  A    between atoms: C_19  and  C_20
REMARK    8  A    between atoms: C_25  and  O_26
REMARK    9  A    between atoms: O_26  and  C_27
REMARK                            x       y       z     vdW  Elec       q    Type
REMARK                         _______ _______ _______ _____ _____    ______ ____
ROOT
ATOM      1  N   UNL     1      -1.209   1.251   5.497  0.00  0.00    -0.294 N 
ATOM      2  C   UNL     1      -0.922   2.084   4.477  0.00  0.00    +0.220 C 
ATOM      3  O   UNL     1       0.203   2.515   4.344  0.00  0.00    -0.275 OA
ENDROOT
BRANCH   1   4
ATOM      4  C   UNL     1      -2.568   0.731   5.658  0.00  0.00    +0.108 C 
BRANCH   4   6
ATOM      5  C   UNL     1      -4.127  -1.127   5.053  0.00  0.00    +0.005 C 
ATOM      6  C   UNL     1      -2.707  -0.583   4.885  0.00  0.00    +0.016 C 
ENDBRANCH   4   6
ENDBRANCH   1   4
BRANCH   1   7
ATOM      7  C   UNL     1      -0.160   0.867   6.446  0.00  0.00    +0.182 C 
BRANCH   7   8
ATOM      8  C   UNL     1      -0.131   1.851   7.588  0.00  0.00    +0.128 A 
ATOM      9  N   UNL     1       0.781   1.664   8.578  0.00  0.00    -0.309 N 
ATOM     10  H   UNL     1       1.394   0.913   8.544  0.00  0.00    +0.170 HD
ATOM     11  C   UNL     1       0.825   2.536   9.613  0.00  0.00    +0.266 A 
ATOM     12  O   UNL     1       1.631   2.396  10.518  0.00  0.00    -0.267 OA
ATOM     13  C   UNL     1      -0.079   3.599   9.616  0.00  0.00    +0.102 A 
ATOM     14  C   UNL     1      -1.013   3.770   8.579  0.00  0.00    +0.085 A 
ATOM     15  N   UNL     1      -0.972   2.834   7.574  0.00  0.00    -0.232 NA
ATOM     16  C   UNL     1      -1.861   4.878   8.707  0.00  0.00    +0.036 A 
ATOM     17  C   UNL     1      -1.750   5.699   9.773  0.00  0.00    +0.048 A 
ATOM     18  S   UNL     1      -0.415   4.961  10.701  0.00  0.00    -0.090 S 
ENDBRANCH   7   8
ENDBRANCH   1   7
BRANCH   2  19
ATOM     19  C   UNL     1      -2.001   2.479   3.501  0.00  0.00    +0.134 C 
BRANCH  19  20
ATOM     20  C   UNL     1      -1.425   3.409   2.465  0.00  0.00    +0.003 A 
ATOM     21  C   UNL     1      -1.531   4.776   2.627  0.00  0.00    +0.008 A 
ATOM     22  C   UNL     1      -1.003   5.630   1.677  0.00  0.00    +0.001 A 
ATOM     23  C   UNL     1      -0.367   5.117   0.561  0.00  0.00    +0.004 A 
ATOM     24  C   UNL     1      -0.253   3.751   0.396  0.00  0.00    +0.046 A 
ATOM     25  C   UNL     1      -0.787   2.892   1.346  0.00  0.00    +0.124 A 
BRANCH  25  26
ATOM     26  O   UNL     1      -0.682   1.547   1.184  0.00  0.00    -0.495 OA
ATOM     27  C   UNL     1      -0.013   1.086   0.008  0.00  0.00    +0.277 C 
ENDBRANCH  25  26
ENDBRANCH  19  20
ENDBRANCH   2  19
TORSDOF 7
