REMARK  Name = ZINC08830118
REMARK  8 active torsions:
REMARK  status: ('A' for Active; 'I' for Inactive)
REMARK    1  A    between atoms: C_4  and  N_27
REMARK    2  A    between atoms: C_5  and  C_7
REMARK    3  A    between atoms: C_8  and  C_9
REMARK    4  A    between atoms: N_10  and  N_11
REMARK    5  A    between atoms: C_12  and  C_14
REMARK    6  A    between atoms: C_14  and  N_54
REMARK    7  A    between atoms: C_19  and  C_20
REMARK    8  A    between atoms: C_19  and  N_56
REMARK                            x       y       z     vdW  Elec       q    Type
REMARK                         _______ _______ _______ _____ _____    ______ ____
ROOT
ATOM      1  N   UNL     1      -0.513   4.377  -4.743  0.00  0.00    -0.209 N 
ATOM      2  C   UNL     1      -0.033   4.136  -3.507  0.00  0.00    +0.216 C 
ATOM      3  O   UNL     1       1.056   3.620  -3.369  0.00  0.00    -0.276 OA
ATOM      4  H   UNL     1      -1.384   4.789  -4.853  0.00  0.00    +0.177 HD
ENDROOT
BRANCH   1   6
ATOM      5  C   UNL     1      -0.218   4.264  -7.063  0.00  0.00    +0.130 C 
ATOM      6  N   UNL     1       0.246   4.031  -5.869  0.00  0.00    -0.188 NA
BRANCH   5   8
ATOM      7  C   UNL     1       0.070   4.155  -9.440  0.00  0.00    +0.012 C 
ATOM      8  C   UNL     1       0.550   3.914  -8.203  0.00  0.00    +0.022 C 
BRANCH   7  13
ATOM      9  C   UNL     1       2.690   2.578 -11.612  0.00  0.00    +0.001 A 
ATOM     10  C   UNL     1       2.368   3.110 -12.849  0.00  0.00    +0.002 A 
ATOM     11  C   UNL     1       1.300   3.981 -12.979  0.00  0.00    +0.033 A 
ATOM     12  C   UNL     1       0.544   4.321 -11.877  0.00  0.00    +0.133 A 
ATOM     13  C   UNL     1       0.867   3.793 -10.623  0.00  0.00    +0.005 A 
ATOM     14  C   UNL     1       1.948   2.913 -10.499  0.00  0.00    +0.010 A 
BRANCH  12  15
ATOM     15  N   UNL     1      -0.601   5.248 -12.019  0.00  0.00    +0.057 N 
ATOM     16  O   UNL     1      -0.798   5.815 -13.079  0.00  0.00    -0.126 OA
ATOM     17  O   UNL     1      -1.347   5.443 -11.076  0.00  0.00    -0.126 OA
ENDBRANCH  12  15
ENDBRANCH   7  13
ENDBRANCH   5   8
ENDBRANCH   1   6
BRANCH   2  18
ATOM     18  C   UNL     1      -0.850   4.507  -2.296  0.00  0.00    +0.020 C 
BRANCH  18  23
ATOM     19  C   UNL     1      -0.213   2.515  -1.074  0.00  0.00    -0.097 C 
ATOM     20  C   UNL     1       0.543   2.011   0.157  0.00  0.00    -0.097 C 
ATOM     21  C   UNL     1      -0.072   4.021   1.357  0.00  0.00    -0.097 C 
ATOM     22  C   UNL     1      -0.827   4.526   0.126  0.00  0.00    -0.097 C 
ATOM     23  N   UNL     1      -0.171   3.993  -1.087  0.00  0.00    +0.383 N 
ATOM     24  H   UNL     1       0.808   4.300  -1.098  0.00  0.00    -0.081 HD
ATOM     25  N   UNL     1      -0.113   2.544   1.370  0.00  0.00    +0.380 N 
ATOM     26  H   UNL     1      -1.093   2.237   1.382  0.00  0.00    -0.082 HD
BRANCH  25  27
ATOM     27  C   UNL     1       0.566   2.030   2.579  0.00  0.00    -0.043 C 
BRANCH  27  28
ATOM     28  C   UNL     1       0.067   2.784   3.785  0.00  0.00    -0.064 A 
ATOM     29  C   UNL     1       0.725   3.923   4.209  0.00  0.00    +0.003 A 
ATOM     30  C   UNL     1       0.264   4.618   5.311  0.00  0.00    +0.020 A 
ATOM     31  C   UNL     1      -0.849   4.166   5.997  0.00  0.00    +0.041 A 
ATOM     32  C   UNL     1      -1.504   3.023   5.576  0.00  0.00    +0.020 A 
ATOM     33  C   UNL     1      -1.046   2.332   4.470  0.00  0.00    +0.003 A 
ATOM     34 CL   UNL     1      -1.424   5.035   7.386  0.00  0.00    -0.084 Cl
ENDBRANCH  27  28
ENDBRANCH  25  27
ENDBRANCH  18  23
ENDBRANCH   2  18
TORSDOF 8
