REMARK  Name = ZINC11515962
REMARK  7 active torsions:
REMARK  status: ('A' for Active; 'I' for Inactive)
REMARK    1  A    between atoms: C_1  and  N_2
REMARK    2  A    between atoms: N_2  and  C_3
REMARK    3  A    between atoms: C_3  and  C_4
REMARK    4  A    between atoms: C_11  and  C_13
REMARK    5  A    between atoms: C_13  and  N_56
REMARK    6  A    between atoms: N_16  and  C_19
REMARK    7  A    between atoms: C_22  and  N_29
REMARK                            x       y       z     vdW  Elec       q    Type
REMARK                         _______ _______ _______ _____ _____    ______ ____
ROOT
ATOM      1  C   UNL     1      -0.375  -2.122   1.072  0.00  0.00    -0.059 C 
ATOM      2  C   UNL     1      -0.461  -0.596   1.143  0.00  0.00    +0.086 C 
ATOM      3  N   UNL     1       0.008  -0.021  -0.125  0.00  0.00    -0.333 N 
ATOM      4  C   UNL     1      -0.804  -0.503  -1.251  0.00  0.00    +0.086 C 
ATOM      5  C   UNL     1      -0.719  -2.029  -1.322  0.00  0.00    -0.059 C 
ATOM      6  N   UNL     1      -1.214  -2.595  -0.050  0.00  0.00    +0.387 N 
ATOM      7  H   UNL     1      -2.180  -2.281   0.101  0.00  0.00    -0.081 HD
ENDROOT
BRANCH   3   8
ATOM      8  C   UNL     1       0.012   1.371  -0.072  0.00  0.00    +0.038 A 
ATOM      9  C   UNL     1      -1.159   2.064   0.157  0.00  0.00    +0.026 A 
ATOM     10  C   UNL     1      -1.163   3.454   0.217  0.00  0.00    +0.035 A 
ATOM     11  C   UNL     1      -0.018   4.172   0.042  0.00  0.00    +0.135 A 
ATOM     12  C   UNL     1       1.193   3.505  -0.198  0.00  0.00    +0.032 A 
ATOM     13  C   UNL     1       1.211   2.088  -0.256  0.00  0.00    +0.008 A 
ATOM     14  C   UNL     1       2.437   1.446  -0.499  0.00  0.00    +0.030 A 
ATOM     15  C   UNL     1       3.553   2.210  -0.667  0.00  0.00    +0.111 A 
ATOM     16  N   UNL     1       3.509   3.534  -0.608  0.00  0.00    -0.263 NA
ATOM     17  C   UNL     1       2.400   4.199  -0.386  0.00  0.00    +0.121 A 
BRANCH  11  18
ATOM     18  N   UNL     1      -0.052   5.650   0.104  0.00  0.00    +0.057 N 
ATOM     19  O   UNL     1      -0.775   6.209   0.909  0.00  0.00    -0.126 OA
ATOM     20  O   UNL     1       0.643   6.308  -0.649  0.00  0.00    -0.126 OA
ENDBRANCH  11  18
ENDBRANCH   3   8
BRANCH   6  21
ATOM     21  C   UNL     1      -1.192  -4.072  -0.110  0.00  0.00    +0.019 C 
BRANCH  21  24
ATOM     22  C   UNL     1      -1.240  -6.857   0.409  0.00  0.00    +0.132 C 
ATOM     23  N   UNL     1      -1.929  -5.946   1.326  0.00  0.00    -0.302 N 
ATOM     24  C   UNL     1      -1.915  -4.619   1.093  0.00  0.00    +0.199 C 
ATOM     25  O   UNL     1      -2.486  -3.864   1.853  0.00  0.00    -0.278 OA
BRANCH  23  26
ATOM     26  C   UNL     1      -2.632  -6.478   2.496  0.00  0.00    +0.142 C 
BRANCH  26  27
ATOM     27  C   UNL     1      -4.061  -6.783   2.128  0.00  0.00    -0.030 A 
ATOM     28  C   UNL     1      -5.035  -5.814   2.278  0.00  0.00    +0.006 A 
ATOM     29  C   UNL     1      -6.345  -6.092   1.936  0.00  0.00    +0.015 A 
ATOM     30  C   UNL     1      -6.683  -7.343   1.453  0.00  0.00    +0.018 A 
ATOM     31  C   UNL     1      -5.708  -8.315   1.308  0.00  0.00    +0.015 A 
ATOM     32  C   UNL     1      -4.398  -8.034   1.645  0.00  0.00    +0.006 A 
ATOM     33 BR   UNL     1      -8.476  -7.727   0.991  0.00  0.00    -0.050 Br
ENDBRANCH  26  27
ENDBRANCH  23  26
ENDBRANCH  21  24
ENDBRANCH   6  21
TORSDOF 6
