REMARK  Name = ZINC12644198
REMARK  11 active torsions:
REMARK  status: ('A' for Active; 'I' for Inactive)
REMARK    1  A    between atoms: C_1  and  C_2
REMARK    2  A    between atoms: C_2  and  C_4
REMARK    3  A    between atoms: C_2  and  N_53
REMARK    4  A    between atoms: C_7  and  S_16
REMARK    5  A    between atoms: N_8  and  C_9
REMARK    6  A    between atoms: S_16  and  C_17
REMARK    7  A    between atoms: C_17  and  C_19
REMARK    8  A    between atoms: C_17  and  C_20
REMARK    9  A    between atoms: N_22  and  C_23
REMARK   10  A    between atoms: C_31  and  N_53
REMARK   11  A    between atoms: C_32  and  N_53
REMARK                            x       y       z     vdW  Elec       q    Type
REMARK                         _______ _______ _______ _____ _____    ______ ____
ROOT
ATOM      1  C   UNL     1      -6.797  -4.524  -1.479  0.00  0.00    +0.125 A 
ATOM      2  N   UNL     1      -7.169  -3.380  -0.976  0.00  0.00    -0.135 NA
ATOM      3  N   UNL     1      -6.140  -2.653  -0.723  0.00  0.00    -0.122 NA
ATOM      4  C   UNL     1      -5.045  -3.294  -1.062  0.00  0.00    +0.197 A 
ATOM      5  N   UNL     1      -5.430  -4.511  -1.552  0.00  0.00    -0.275 N 
ENDROOT
BRANCH   5   6
ATOM      6  C   UNL     1      -4.597  -5.534  -2.030  0.00  0.00    +0.050 A 
ATOM      7  C   UNL     1      -4.654  -5.910  -3.365  0.00  0.00    +0.028 A 
ATOM      8  C   UNL     1      -3.830  -6.914  -3.835  0.00  0.00    +0.022 A 
ATOM      9  C   UNL     1      -2.956  -7.552  -2.974  0.00  0.00    +0.041 A 
ATOM     10  C   UNL     1      -2.901  -7.183  -1.641  0.00  0.00    +0.022 A 
ATOM     11  C   UNL     1      -3.719  -6.176  -1.168  0.00  0.00    +0.028 A 
ATOM     12 CL   UNL     1      -1.925  -8.818  -3.566  0.00  0.00    -0.084 Cl
ENDBRANCH   5   6
BRANCH   1  14
ATOM     13  C   UNL     1      -8.235  -6.371  -0.661  0.00  0.00    -0.005 C 
ATOM     14  C   UNL     1      -7.705  -5.650  -1.902  0.00  0.00    -0.003 C 
BRANCH  14  17
ATOM     15  C   UNL     1      -8.355  -4.328  -3.823  0.00  0.00    -0.096 C 
ATOM     16  C   UNL     1      -9.739  -6.180  -3.103  0.00  0.00    -0.096 C 
ATOM     17  N   UNL     1      -8.846  -5.090  -2.656  0.00  0.00    +0.382 N 
ATOM     18  H   UNL     1      -9.373  -4.458  -2.042  0.00  0.00    -0.082 HD
ENDBRANCH  14  17
ENDBRANCH   1  14
BRANCH   4  19
ATOM     19  S   UNL     1      -3.393  -2.700  -0.907  0.00  0.00    -0.073 S 
BRANCH  19  20
ATOM     20  C   UNL     1      -3.711  -1.065  -0.200  0.00  0.00    +0.137 C 
ATOM     21  C   UNL     1      -4.331  -1.222   1.190  0.00  0.00    +0.029 C 
BRANCH  20  22
ATOM     22  C   UNL     1      -2.415  -0.305  -0.089  0.00  0.00    +0.230 C 
ATOM     23  O   UNL     1      -1.359  -0.902  -0.097  0.00  0.00    -0.274 OA
ATOM     24  N   UNL     1      -2.428   1.039   0.020  0.00  0.00    -0.282 N 
ATOM     25  H   UNL     1      -3.272   1.510   0.107  0.00  0.00    +0.155 HD
BRANCH  24  26
ATOM     26  C   UNL     1      -1.224   1.755   0.006  0.00  0.00    +0.069 A 
ATOM     27  C   UNL     1      -0.102   1.217  -0.610  0.00  0.00    +0.027 A 
ATOM     28  C   UNL     1       1.082   1.927  -0.626  0.00  0.00    +0.022 A 
ATOM     29  C   UNL     1       1.154   3.172  -0.025  0.00  0.00    +0.044 A 
ATOM     30  C   UNL     1       0.040   3.709   0.594  0.00  0.00    +0.060 A 
ATOM     31  C   UNL     1      -1.149   3.003   0.614  0.00  0.00    +0.146 A 
ATOM     32  F   UNL     1      -2.238   3.528   1.218  0.00  0.00    -0.203 F 
ATOM     33 CL   UNL     1       2.645   4.060  -0.048  0.00  0.00    -0.083 Cl
ENDBRANCH  24  26
ENDBRANCH  20  22
ENDBRANCH  19  20
ENDBRANCH   4  19
TORSDOF 7
