REMARK  Name = ZINC10166916
REMARK  10 active torsions:
REMARK  status: ('A' for Active; 'I' for Inactive)
REMARK    1  A    between atoms: C_1  and  C_2
REMARK    2  A    between atoms: C_2  and  C_3
REMARK    3  A    between atoms: C_8  and  O_31
REMARK    4  A    between atoms: C_9  and  C_11
REMARK    5  A    between atoms: C_11  and  C_13
REMARK    6  A    between atoms: C_11  and  N_20
REMARK    7  A    between atoms: C_23  and  C_26
REMARK    8  A    between atoms: C_26  and  O_28
REMARK    9  A    between atoms: O_28  and  C_29
REMARK   10  A    between atoms: C_29  and  C_30
REMARK                            x       y       z     vdW  Elec       q    Type
REMARK                         _______ _______ _______ _____ _____    ______ ____
ROOT
ATOM      1  C   UNL     1       4.172  -2.393  -5.702  0.00  0.00    +0.005 C 
ENDROOT
BRANCH   1   8
ATOM      2  C   UNL     1       0.707  -0.490  -1.238  0.00  0.00    +0.152 A 
ATOM      3  N   UNL     1       0.124  -0.743  -2.408  0.00  0.00    -0.205 NA
ATOM      4  C   UNL     1       1.025  -1.146  -3.261  0.00  0.00    +0.199 A 
ATOM      5  N   UNL     1       2.247  -1.167  -2.660  0.00  0.00    -0.173 N 
ATOM      6  N   UNL     1       1.988  -0.724  -1.336  0.00  0.00    -0.147 NA
ATOM      7  C   UNL     1       3.316  -1.572  -3.422  0.00  0.00    +0.225 A 
ATOM      8  C   UNL     1       3.147  -1.926  -4.701  0.00  0.00    +0.045 A 
ATOM      9  S   UNL     1       1.388  -1.698  -4.910  0.00  0.00    -0.050 S 
BRANCH   2  11
ATOM     10  C   UNL     1      -0.019   1.526   0.010  0.00  0.00    +0.012 C 
ATOM     11  C   UNL     1       0.002  -0.004   0.002  0.00  0.00    +0.075 C 
ENDBRANCH   2  11
BRANCH   7  12
ATOM     12  O   UNL     1       4.559  -1.612  -2.870  0.00  0.00    -0.492 OA
ATOM     13  H   UNL     1       4.587  -1.339  -1.943  0.00  0.00    +0.294 HD
ENDBRANCH   7  12
ENDBRANCH   1   8
BRANCH   1  14
ATOM     14  C   UNL     1       3.884  -3.821  -6.088  0.00  0.00    -0.056 A 
ATOM     15  C   UNL     1       2.903  -4.099  -7.021  0.00  0.00    +0.005 A 
ATOM     16  C   UNL     1       2.638  -5.409  -7.376  0.00  0.00    +0.038 A 
ATOM     17  C   UNL     1       3.355  -6.441  -6.796  0.00  0.00    +0.123 A 
ATOM     18  C   UNL     1       4.337  -6.161  -5.861  0.00  0.00    +0.038 A 
ATOM     19  C   UNL     1       4.604  -4.850  -5.512  0.00  0.00    +0.005 A 
ATOM     20  F   UNL     1       3.096  -7.721  -7.141  0.00  0.00    -0.205 F 
ENDBRANCH   1  14
BRANCH   1  21
ATOM     21  N   UNL     1       4.112  -1.541  -6.898  0.00  0.00    +0.387 N 
ATOM     22  C   UNL     1       5.104  -2.002  -7.876  0.00  0.00    -0.077 C 
ATOM     23  C   UNL     1       4.990  -1.170  -9.155  0.00  0.00    -0.004 C 
ATOM     24  C   UNL     1       5.245   0.303  -8.823  0.00  0.00    +0.094 C 
ATOM     25  C   UNL     1       4.252   0.753  -7.748  0.00  0.00    -0.004 C 
ATOM     26  C   UNL     1       4.393  -0.150  -6.521  0.00  0.00    -0.077 C 
ATOM     27  H   UNL     1       3.190  -1.598  -7.304  0.00  0.00    -0.080 HD
BRANCH  24  28
ATOM     28  C   UNL     1       5.058   1.139 -10.063  0.00  0.00    +0.310 C 
ATOM     29  O   UNL     1       4.752   0.611 -11.107  0.00  0.00    -0.251 OA
BRANCH  28  30
ATOM     30  O   UNL     1       5.230   2.469 -10.009  0.00  0.00    -0.465 OA
BRANCH  30  31
ATOM     31  C   UNL     1       5.037   3.198 -11.222  0.00  0.00    +0.229 C 
ATOM     32  C   UNL     1       5.276   4.688 -10.966  0.00  0.00    +0.048 C 
ENDBRANCH  30  31
ENDBRANCH  28  30
ENDBRANCH  24  28
ENDBRANCH   1  21
TORSDOF 8
