REMARK  Name = ZINC08739829
REMARK  5 active torsions:
REMARK  status: ('A' for Active; 'I' for Inactive)
REMARK    1  A    between atoms: C_1  and  N_53
REMARK    2  A    between atoms: C_3  and  C_25
REMARK    3  A    between atoms: C_5  and  C_17
REMARK    4  A    between atoms: C_17  and  C_19
REMARK    5  A    between atoms: C_28  and  N_31
REMARK                            x       y       z     vdW  Elec       q    Type
REMARK                         _______ _______ _______ _____ _____    ______ ____
ROOT
ATOM      1  C   UNL     1       3.406  -6.445  -0.065  0.00  0.00    -0.094 C 
ATOM      2  C   UNL     1       3.704  -4.499   1.370  0.00  0.00    -0.068 C 
ATOM      3  C   UNL     1       3.102  -3.071   1.405  0.00  0.00    +0.012 C 
ATOM      4  C   UNL     1       2.573  -2.882  -0.037  0.00  0.00    +0.068 C 
ATOM      5  C   UNL     1       2.391  -4.305  -0.579  0.00  0.00    +0.050 C 
ATOM      6  C   UNL     1       3.224  -4.525  -1.812  0.00  0.00    -0.027 A 
ATOM      7  C   UNL     1       4.577  -4.467  -2.061  0.00  0.00    +0.004 A 
ATOM      8  C   UNL     1       5.058  -4.724  -3.333  0.00  0.00    +0.000 A 
ATOM      9  C   UNL     1       4.177  -5.041  -4.351  0.00  0.00    +0.002 A 
ATOM     10  C   UNL     1       2.821  -5.100  -4.105  0.00  0.00    +0.023 A 
ATOM     11  C   UNL     1       2.328  -4.842  -2.828  0.00  0.00    +0.036 A 
ATOM     12  N   UNL     1       1.021  -4.838  -2.338  0.00  0.00    -0.286 N 
ATOM     13  C   UNL     1       0.971  -4.533  -1.028  0.00  0.00    +0.212 C 
ATOM     14  O   UNL     1      -0.026  -4.458  -0.341  0.00  0.00    -0.277 OA
ATOM     15  H   UNL     1       0.240  -5.033  -2.878  0.00  0.00    +0.155 HD
ATOM     16  N   UNL     1       2.766  -5.216   0.496  0.00  0.00    +0.391 N 
ATOM     17  H   UNL     1       1.932  -5.486   1.031  0.00  0.00    -0.080 HD
ENDROOT
BRANCH   3  18
ATOM     18  C   UNL     1       4.166  -2.051   1.720  0.00  0.00    -0.045 A 
ATOM     19  C   UNL     1       5.325  -2.006   0.968  0.00  0.00    +0.006 A 
ATOM     20  C   UNL     1       6.299  -1.068   1.254  0.00  0.00    +0.033 A 
ATOM     21  C   UNL     1       6.118  -0.181   2.299  0.00  0.00    +0.126 A 
ATOM     22  C   UNL     1       4.962  -0.230   3.055  0.00  0.00    +0.033 A 
ATOM     23  C   UNL     1       3.986  -1.165   2.766  0.00  0.00    +0.006 A 
BRANCH  21  24
ATOM     24  N   UNL     1       7.163   0.821   2.609  0.00  0.00    +0.056 N 
ATOM     25  O   UNL     1       7.004   1.602   3.530  0.00  0.00    -0.126 OA
ATOM     26  O   UNL     1       8.182   0.863   1.943  0.00  0.00    -0.126 OA
ENDBRANCH  21  24
ENDBRANCH   3  18
BRANCH   4  27
ATOM     27  C   UNL     1       1.254  -2.154  -0.021  0.00  0.00    +0.166 C 
ATOM     28  O   UNL     1       0.537  -2.220   0.955  0.00  0.00    -0.292 OA
BRANCH  27  29
ATOM     29  C   UNL     1       0.835  -1.364  -1.189  0.00  0.00    +0.018 A 
ATOM     30  C   UNL     1      -0.389  -0.687  -1.178  0.00  0.00    +0.011 A 
ATOM     31  C   UNL     1      -0.775   0.052  -2.276  0.00  0.00    +0.001 A 
ATOM     32  C   UNL     1       0.046   0.125  -3.389  0.00  0.00    +0.000 A 
ATOM     33  C   UNL     1       1.259  -0.542  -3.408  0.00  0.00    +0.001 A 
ATOM     34  C   UNL     1       1.658  -1.285  -2.317  0.00  0.00    +0.011 A 
ENDBRANCH  27  29
ENDBRANCH   4  27
TORSDOF 4
