REMARK  Name = ZINC35093572
REMARK  13 active torsions:
REMARK  status: ('A' for Active; 'I' for Inactive)
REMARK    1  A    between atoms: C_1  and  C_2
REMARK    2  A    between atoms: C_2  and  C_3
REMARK    3  A    between atoms: C_6  and  N_9
REMARK    4  A    between atoms: C_19  and  C_20
REMARK    5  A    between atoms: C_20  and  C_22
REMARK    6  A    between atoms: C_20  and  N_24
REMARK    7  A    between atoms: C_22  and  C_23
REMARK    8  A    between atoms: N_24  and  C_25
REMARK    9  A    between atoms: C_25  and  C_26
REMARK   10  A    between atoms: C_26  and  N_27
REMARK   11  A    between atoms: N_27  and  C_28
REMARK   12  A    between atoms: N_27  and  C_29
REMARK   13  A    between atoms: N_32  and  C_33
REMARK                            x       y       z     vdW  Elec       q    Type
REMARK                         _______ _______ _______ _____ _____    ______ ____
ROOT
ATOM      1  C   UNL     1       4.610  -1.632  -3.317  0.00  0.00    +0.144 C 
ENDROOT
BRANCH   1  12
ATOM      2  N   UNL     1       3.049  -3.139  -4.485  0.00  0.00    -0.263 N 
ATOM      3  C   UNL     1       2.293  -3.508  -5.545  0.00  0.00    +0.266 A 
ATOM      4  O   UNL     1       1.620  -4.522  -5.518  0.00  0.00    -0.267 OA
ATOM      5  C   UNL     1       2.315  -2.637  -6.729  0.00  0.00    +0.065 A 
ATOM      6  C   UNL     1       1.572  -2.928  -7.871  0.00  0.00    +0.015 A 
ATOM      7  C   UNL     1       1.629  -2.077  -8.953  0.00  0.00    +0.001 A 
ATOM      8  C   UNL     1       2.420  -0.936  -8.912  0.00  0.00    +0.002 A 
ATOM      9  C   UNL     1       3.162  -0.631  -7.794  0.00  0.00    +0.028 A 
ATOM     10  C   UNL     1       3.120  -1.477  -6.684  0.00  0.00    +0.078 A 
ATOM     11  N   UNL     1       3.834  -1.214  -5.561  0.00  0.00    -0.231 NA
ATOM     12  C   UNL     1       3.791  -1.999  -4.528  0.00  0.00    +0.138 A 
BRANCH   2  16
ATOM     13  C   UNL     1       3.094  -5.503  -1.053  0.00  0.00    -0.047 A 
ATOM     14  C   UNL     1       3.706  -5.952  -2.209  0.00  0.00    +0.005 A 
ATOM     15  C   UNL     1       3.693  -5.171  -3.348  0.00  0.00    +0.026 A 
ATOM     16  C   UNL     1       3.064  -3.933  -3.332  0.00  0.00    +0.051 A 
ATOM     17  C   UNL     1       2.450  -3.485  -2.170  0.00  0.00    +0.026 A 
ATOM     18  C   UNL     1       2.462  -4.273  -1.036  0.00  0.00    +0.005 A 
BRANCH  13  20
ATOM     19  C   UNL     1       1.884  -7.274   0.192  0.00  0.00    +0.009 C 
ATOM     20  C   UNL     1       3.110  -6.358   0.188  0.00  0.00    +0.032 C 
ENDBRANCH  13  20
ENDBRANCH   2  16
ENDBRANCH   1  12
BRANCH   1  21
ATOM     21  N   UNL     1       6.034  -1.682  -3.656  0.00  0.00    -0.277 N 
ATOM     22  C   UNL     1       6.856  -2.520  -2.994  0.00  0.00    +0.307 C 
ATOM     23  O   UNL     1       6.415  -3.234  -2.114  0.00  0.00    -0.252 OA
ATOM     24  N   UNL     1       8.166  -2.565  -3.306  0.00  0.00    -0.269 N 
ATOM     25  H   UNL     1       8.506  -2.043  -4.049  0.00  0.00    +0.156 HD
BRANCH  24  26
ATOM     26  C   UNL     1       9.036  -3.367  -2.558  0.00  0.00    +0.036 A 
ATOM     27  C   UNL     1      10.336  -2.943  -2.313  0.00  0.00    +0.023 A 
ATOM     28  C   UNL     1      11.192  -3.735  -1.575  0.00  0.00    +0.003 A 
ATOM     29  C   UNL     1      10.758  -4.951  -1.080  0.00  0.00    +0.020 A 
ATOM     30  C   UNL     1       9.464  -5.377  -1.322  0.00  0.00    +0.043 A 
ATOM     31  C   UNL     1       8.600  -4.585  -2.055  0.00  0.00    +0.043 A 
ATOM     32 CL   UNL     1       8.923  -6.904  -0.699  0.00  0.00    -0.083 Cl
ENDBRANCH  24  26
BRANCH  21  33
ATOM     33  C   UNL     1       6.565  -0.821  -4.716  0.00  0.00    +0.091 C 
BRANCH  33  34
ATOM     34  C   UNL     1       7.017   0.510  -4.113  0.00  0.00    -0.060 C 
BRANCH  34  35
ATOM     35  N   UNL     1       7.549   1.374  -5.175  0.00  0.00    +0.377 N 
ATOM     36  C   UNL     1       6.472   1.718  -6.112  0.00  0.00    -0.097 C 
ATOM     37  C   UNL     1       8.093   2.602  -4.582  0.00  0.00    -0.097 C 
ATOM     38  H   UNL     1       8.282   0.886  -5.670  0.00  0.00    -0.083 HD
ENDBRANCH  34  35
ENDBRANCH  33  34
ENDBRANCH  21  33
ENDBRANCH   1  21
BRANCH   1  39
ATOM     39  C   UNL     1       4.243  -0.218  -2.862  0.00  0.00    +0.027 C 
ATOM     40  C   UNL     1       4.971   0.103  -1.556  0.00  0.00    +0.006 C 
ENDBRANCH   1  39
TORSDOF 9
