REMARK  Name = ZINC40822934
REMARK  9 active torsions:
REMARK  status: ('A' for Active; 'I' for Inactive)
REMARK    1  A    between atoms: C_1  and  C_2
REMARK    2  A    between atoms: C_2  and  C_3
REMARK    3  A    between atoms: C_3  and  C_4
REMARK    4  A    between atoms: C_4  and  C_5
REMARK    5  A    between atoms: C_8  and  N_11
REMARK    6  A    between atoms: C_12  and  C_14
REMARK    7  A    between atoms: C_15  and  C_34
REMARK    8  A    between atoms: N_23  and  N_24
REMARK    9  A    between atoms: C_25  and  C_27
REMARK                            x       y       z     vdW  Elec       q    Type
REMARK                         _______ _______ _______ _____ _____    ______ ____
ROOT
ATOM      1  C   UNL     1      -8.822  -4.565  -1.095  0.00  0.00    +0.193 A 
ATOM      2  C   UNL     1      -9.615  -4.743  -2.194  0.00  0.00    +0.009 A 
ATOM      3  C   UNL     1     -10.873  -5.122  -1.710  0.00  0.00    +0.042 A 
ATOM      4  C   UNL     1     -10.795  -5.158  -0.338  0.00  0.00    +0.115 A 
ATOM      5  O   UNL     1      -9.554  -4.828   0.012  0.00  0.00    -0.454 OA
ATOM      6  C   UNL     1     -11.964  -5.522   0.541  0.00  0.00    +0.075 C 
ATOM      7  C   UNL     1     -13.267  -5.326  -0.238  0.00  0.00    +0.014 C 
ATOM      8  C   UNL     1     -13.216  -6.076  -1.573  0.00  0.00    +0.058 C 
ATOM      9  C   UNL     1     -12.124  -5.451  -2.429  0.00  0.00    +0.070 C 
ATOM     10  N   UNL     1     -12.279  -5.222  -3.697  0.00  0.00    -0.184 NA
ATOM     11  C   UNL     1      -9.216  -4.567  -3.636  0.00  0.00    +0.048 C 
ENDROOT
BRANCH   1  13
ATOM     12  N   UNL     1      -6.734  -4.026   0.045  0.00  0.00    -0.279 N 
ATOM     13  C   UNL     1      -7.411  -4.162  -1.113  0.00  0.00    +0.284 C 
ATOM     14  O   UNL     1      -6.852  -3.951  -2.173  0.00  0.00    -0.266 OA
ATOM     15  H   UNL     1      -7.156  -4.267   0.884  0.00  0.00    +0.155 HD
BRANCH  12  19
ATOM     16  C   UNL     1      -2.833  -2.569   0.016  0.00  0.00    -0.047 A 
ATOM     17  C   UNL     1      -3.211  -3.510   0.956  0.00  0.00    +0.005 A 
ATOM     18  C   UNL     1      -4.504  -3.995   0.969  0.00  0.00    +0.023 A 
ATOM     19  C   UNL     1      -5.425  -3.537   0.035  0.00  0.00    +0.034 A 
ATOM     20  C   UNL     1      -5.042  -2.591  -0.908  0.00  0.00    +0.023 A 
ATOM     21  C   UNL     1      -3.748  -2.107  -0.911  0.00  0.00    +0.005 A 
BRANCH  16  22
ATOM     22  C   UNL     1      -1.421  -2.041   0.006  0.00  0.00    +0.035 C 
BRANCH  22  23
ATOM     23  C   UNL     1      -1.330  -0.810   0.910  0.00  0.00    +0.004 C 
BRANCH  23  25
ATOM     24  C   UNL     1       0.194   0.957   1.803  0.00  0.00    +0.004 C 
ATOM     25  C   UNL     1       0.103  -0.274   0.899  0.00  0.00    -0.003 C 
ENDBRANCH  23  25
ENDBRANCH  22  23
ENDBRANCH  16  22
ENDBRANCH  12  19
ENDBRANCH   1  13
BRANCH  10  26
ATOM     26  N   UNL     1     -13.486  -5.554  -4.327  0.00  0.00    -0.203 N 
ATOM     27  C   UNL     1     -13.647  -5.316  -5.644  0.00  0.00    +0.265 C 
ATOM     28  O   UNL     1     -12.744  -4.814  -6.285  0.00  0.00    -0.268 OA
ATOM     29  H   UNL     1     -14.206  -5.954  -3.815  0.00  0.00    +0.178 HD
BRANCH  27  30
ATOM     30  C   UNL     1     -14.920  -5.666  -6.308  0.00  0.00    +0.057 A 
ATOM     31  C   UNL     1     -15.097  -5.430  -7.676  0.00  0.00    +0.031 A 
ATOM     32  C   UNL     1     -16.309  -5.775  -8.250  0.00  0.00    +0.037 A 
ATOM     33  C   UNL     1     -17.297  -6.338  -7.459  0.00  0.00    +0.126 A 
ATOM     34  N   UNL     1     -17.101  -6.548  -6.172  0.00  0.00    -0.261 NA
ATOM     35  C   UNL     1     -15.963  -6.242  -5.582  0.00  0.00    +0.123 A 
ATOM     36 BR   UNL     1     -16.612  -5.482 -10.093  0.00  0.00    -0.049 Br
ENDBRANCH  27  30
ENDBRANCH  10  26
TORSDOF 7
