REMARK  Name = ZINC35361849
REMARK  13 active torsions:
REMARK  status: ('A' for Active; 'I' for Inactive)
REMARK    1  A    between atoms: CD1_1  and  CG1_2
REMARK    2  A    between atoms: CG1_2  and  CB_3
REMARK    3  A    between atoms: CB_3  and  CG2_5
REMARK    4  A    between atoms: CB_3  and  CA_6
REMARK    5  A    between atoms: CA_6  and  C_8
REMARK    6  A    between atoms: CA_6  and  N_11
REMARK    7  A    between atoms: C_12  and  C_14
REMARK    8  A    between atoms: C_14  and  C_15
REMARK    9  A    between atoms: C_15  and  C_16
REMARK   10  A    between atoms: C_16  and  O_18
REMARK   11  A    between atoms: O_18  and  C_19
REMARK   12  A    between atoms: C_25  and  C_42
REMARK   13  A    between atoms: C_40  and  C_41
REMARK                            x       y       z     vdW  Elec       q    Type
REMARK                         _______ _______ _______ _____ _____    ______ ____
ROOT
ATOM      1  C   UNK A   0       6.029  -7.441  -5.350  0.00  0.00    +0.183 C 
ATOM      2  C   UNK A   0       5.155  -8.319  -6.281  0.00  0.00    +0.045 C 
ATOM      3  C   UNK A   0       5.715  -9.767  -6.170  0.00  0.00    +0.008 C 
ATOM      4  C   UNK A   0       6.482  -9.715  -4.838  0.00  0.00    +0.002 C 
ATOM      5  C   UNK A   0       7.209  -8.358  -4.961  0.00  0.00    +0.008 C 
ATOM      6  C   UNK A   0       7.876  -8.011  -3.656  0.00  0.00    +0.011 C 
ATOM      7  C   UNK A   0       8.636  -9.205  -3.075  0.00  0.00    +0.005 C 
ATOM      8  C   UNK A   0       8.768 -10.375  -4.035  0.00  0.00    +0.002 C 
ATOM      9  C   UNK A   0       7.420 -10.852  -4.560  0.00  0.00    -0.003 C 
ATOM     10  C   UNK A   0       7.583 -11.783  -5.756  0.00  0.00    +0.008 C 
ATOM     11  C   UNK A   0       8.808 -12.682  -5.568  0.00  0.00    +0.032 C 
ATOM     12  C   UNK A   0       9.096 -12.808  -4.090  0.00  0.00    -0.060 C 
ATOM     13  C   UNK A   0       9.023 -13.986  -3.484  0.00  0.00    +0.046 C 
ATOM     14  C   UNK A   0       9.291 -14.119  -2.054  0.00  0.00    +0.156 C 
ATOM     15  O   UNK A   0       9.269 -15.217  -1.535  0.00  0.00    -0.293 OA
ATOM     16  C   UNK A   0       9.589 -12.901  -1.220  0.00  0.00    +0.080 C 
ATOM     17  C   UNK A   0       8.989 -11.660  -1.887  0.00  0.00    +0.019 C 
ATOM     18  C   UNK A   0       9.464 -11.555  -3.331  0.00  0.00    -0.007 C 
ATOM     19  C   UNK A   0      10.978 -11.347  -3.384  0.00  0.00    +0.016 C 
ATOM     20  C   UNK A   0       8.204  -8.322  -6.121  0.00  0.00    +0.015 C 
ENDROOT
BRANCH   1  21
ATOM     21  O   UNK A   0       5.295  -7.062  -4.189  0.00  0.00    -0.461 OA
BRANCH  21  22
ATOM     22  C   UNK A   0       4.664  -5.878  -4.227  0.00  0.00    +0.308 C 
ATOM     23  O   UNK A   0       4.734  -5.188  -5.216  0.00  0.00    -0.251 OA
BRANCH  22  24
ATOM     24  C   UNK A   0       3.868  -5.410  -3.036  0.00  0.00    +0.130 C 
BRANCH  24  25
ATOM     25  C   UNK A   0       3.255  -4.041  -3.339  0.00  0.00    +0.107 C 
BRANCH  25  27
ATOM     26  N   ILE A   1       1.826  -2.384  -2.186  0.00  0.00    -0.302 N 
ATOM     27  C   UNK A   0       2.459  -3.573  -2.148  0.00  0.00    +0.214 C 
ATOM     28  O   UNK A   0       2.389  -4.266  -1.155  0.00  0.00    -0.276 OA
ATOM     29  H   ILE A   1       1.882  -1.829  -2.980  0.00  0.00    +0.150 HD
BRANCH  26  30
ATOM     30  CA  ILE A   1       1.052  -1.929  -1.028  0.00  0.00    +0.189 C 
BRANCH  30  31
ATOM     31  C   ILE A   1      -0.338  -2.508  -1.093  0.00  0.00    +0.376 C 
ATOM     32  O   ILE A   1      -0.713  -3.081  -2.103  0.00  0.00    -0.244 OA
ATOM     33  OXT ILE A   1      -1.087  -2.405  -0.137  0.00  0.00    -0.244 OA
ENDBRANCH  30  31
BRANCH  30  34
ATOM     34  CB  ILE A   1       0.968  -0.401  -1.039  0.00  0.00    +0.017 C 
ATOM     35  CG2 ILE A   1       0.173   0.057  -2.263  0.00  0.00    +0.010 C 
BRANCH  34  37
ATOM     36  CD1 ILE A   1       0.296   1.609   0.283  0.00  0.00    +0.004 C 
ATOM     37  CG1 ILE A   1       0.269   0.081   0.233  0.00  0.00    +0.002 C 
ENDBRANCH  34  37
ENDBRANCH  30  34
ENDBRANCH  26  30
ENDBRANCH  25  27
ENDBRANCH  24  25
ENDBRANCH  22  24
ENDBRANCH  21  22
ENDBRANCH   1  21
TORSDOF 9
