REMARK  Name = ZINC28307426
REMARK  10 active torsions:
REMARK  status: ('A' for Active; 'I' for Inactive)
REMARK    1  A    between atoms: C_1  and  C_2
REMARK    2  A    between atoms: C_5  and  C_8
REMARK    3  A    between atoms: C_8  and  C_10
REMARK    4  A    between atoms: C_15  and  C_16
REMARK    5  A    between atoms: N_18  and  C_19
REMARK    6  A    between atoms: C_19  and  C_28
REMARK    7  A    between atoms: C_20  and  C_21
REMARK    8  A    between atoms: C_24  and  O_27
REMARK    9  A    between atoms: N_30  and  C_31
REMARK   10  A    between atoms: C_34  and  C_37
REMARK                            x       y       z     vdW  Elec       q    Type
REMARK                         _______ _______ _______ _____ _____    ______ ____
ROOT
ATOM      1  C   UNL     1      -3.116   1.745  -1.087  0.00  0.00    +0.097 C 
ATOM      2  C   UNL     1      -2.094   0.983  -0.632  0.00  0.00    +0.036 C 
ENDROOT
BRANCH   2   3
ATOM      3  C   UNL     1      -0.898   1.621  -0.063  0.00  0.00    -0.023 A 
ATOM      4  C   UNL     1       0.364   1.051  -0.264  0.00  0.00    +0.011 A 
ATOM      5  C   UNL     1       1.482   1.656   0.266  0.00  0.00    +0.046 A 
ATOM      6  C   UNL     1       1.357   2.827   1.004  0.00  0.00    +0.117 A 
ATOM      7  C   UNL     1       0.105   3.394   1.211  0.00  0.00    +0.046 A 
ATOM      8  C   UNL     1      -1.019   2.797   0.686  0.00  0.00    +0.011 A 
BRANCH   6   9
ATOM      9  O   UNL     1       2.463   3.420   1.524  0.00  0.00    -0.507 OA
ATOM     10  H   UNL     1       2.366   4.347   2.108  0.00  0.00    +0.292 HD
ENDBRANCH   6   9
ENDBRANCH   2   3
BRANCH   1  13
ATOM     11  C   UNL     1      -5.304   1.890  -2.010  0.00  0.00    +0.249 C 
ATOM     12  O   UNL     1      -5.109   3.064  -2.261  0.00  0.00    -0.270 OA
ATOM     13  N   UNL     1      -4.321   1.145  -1.468  0.00  0.00    -0.277 N 
ATOM     14  H   UNL     1      -4.466   0.064  -1.325  0.00  0.00    +0.155 HD
BRANCH  11  20
ATOM     15  C   UNL     1      -7.636   2.045  -2.905  0.00  0.00    +0.034 A 
ATOM     16  C   UNL     1      -8.870   1.457  -3.176  0.00  0.00    +0.012 A 
ATOM     17  C   UNL     1      -9.094   0.135  -2.840  0.00  0.00    +0.001 A 
ATOM     18  C   UNL     1      -8.097  -0.613  -2.239  0.00  0.00    +0.001 A 
ATOM     19  C   UNL     1      -6.864  -0.049  -1.968  0.00  0.00    +0.014 A 
ATOM     20  C   UNL     1      -6.620   1.281  -2.299  0.00  0.00    +0.048 A 
BRANCH  15  21
ATOM     21  C   UNL     1      -7.393   3.460  -3.257  0.00  0.00    +0.194 C 
ATOM     22  O   UNL     1      -7.166   3.769  -4.411  0.00  0.00    -0.287 OA
BRANCH  21  27
ATOM     23  C   UNL     1      -7.523   7.505   0.832  0.00  0.00    +0.044 C 
ATOM     24  C   UNL     1      -7.489   6.446  -0.239  0.00  0.00    -0.050 A 
ATOM     25  C   UNL     1      -7.264   6.805  -1.556  0.00  0.00    +0.004 A 
ATOM     26  C   UNL     1      -7.232   5.841  -2.542  0.00  0.00    +0.012 A 
ATOM     27  C   UNL     1      -7.427   4.498  -2.207  0.00  0.00    +0.022 A 
ATOM     28  C   UNL     1      -7.659   4.143  -0.876  0.00  0.00    +0.012 A 
ATOM     29  C   UNL     1      -7.683   5.118   0.100  0.00  0.00    +0.004 A 
ENDBRANCH  21  27
ENDBRANCH  15  21
ENDBRANCH  11  20
ENDBRANCH   1  13
BRANCH   1  30
ATOM     30  C   UNL     1      -2.960   3.202  -1.182  0.00  0.00    +0.262 C 
ATOM     31  O   UNL     1      -3.512   3.927  -0.375  0.00  0.00    -0.268 OA
ATOM     32  N   UNL     1      -2.206   3.737  -2.163  0.00  0.00    -0.280 N 
ATOM     33  H   UNL     1      -1.782   3.090  -2.945  0.00  0.00    +0.155 HD
BRANCH  32  34
ATOM     34  C   UNL     1      -1.964   5.113  -2.186  0.00  0.00    +0.034 A 
ATOM     35  C   UNL     1      -1.831   5.817  -0.996  0.00  0.00    +0.023 A 
ATOM     36  C   UNL     1      -1.586   7.176  -1.023  0.00  0.00    +0.005 A 
ATOM     37  C   UNL     1      -1.483   7.838  -2.233  0.00  0.00    -0.050 A 
ATOM     38  C   UNL     1      -1.620   7.141  -3.419  0.00  0.00    +0.005 A 
ATOM     39  C   UNL     1      -1.860   5.781  -3.400  0.00  0.00    +0.023 A 
ATOM     40  C   UNL     1      -1.221   9.322  -2.258  0.00  0.00    +0.044 C 
ENDBRANCH  32  34
ENDBRANCH   1  30
TORSDOF 8
