REMARK  Name = ZINC22747499
REMARK  2 active torsions:
REMARK  status: ('A' for Active; 'I' for Inactive)
REMARK    1  A    between atoms: C_1  and  C_2
REMARK    2  A    between atoms: C_5  and  C_8
REMARK                            x       y       z     vdW  Elec       q    Type
REMARK                         _______ _______ _______ _____ _____    ______ ____
ROOT
ATOM      1  C   UNL     1       0.059  -4.275  -0.021  0.00  0.00    +0.032 C 
ATOM      2  C   UNL     1       1.314  -4.777   0.698  0.00  0.00    +0.060 C 
ATOM      3  C   UNL     1       1.304  -6.283   0.738  0.00  0.00    +0.021 C 
ATOM      4  C   UNL     1       0.143  -6.974   0.773  0.00  0.00    +0.053 C 
ATOM      5  C   UNL     1      -1.095  -6.312   0.777  0.00  0.00    +0.164 C 
ATOM      6  O   UNL     1      -2.120  -6.961   0.830  0.00  0.00    -0.292 OA
ATOM      7  C   UNL     1      -1.175  -4.810   0.712  0.00  0.00    +0.088 C 
ATOM      8  C   UNL     1       0.160  -8.480   0.799  0.00  0.00    +0.197 C 
ATOM      9  C   UNL     1      -0.274  -9.028  -0.527  0.00  0.00    +0.015 A 
ATOM     10  C   UNL     1       0.280  -8.913  -1.784  0.00  0.00    +0.008 A 
ATOM     11  C   UNL     1      -0.383  -9.552  -2.826  0.00  0.00    +0.000 A 
ATOM     12  C   UNL     1      -1.543 -10.268  -2.607  0.00  0.00    +0.002 A 
ATOM     13  C   UNL     1      -2.105 -10.388  -1.346  0.00  0.00    +0.024 A 
ATOM     14  C   UNL     1      -1.448  -9.751  -0.291  0.00  0.00    +0.040 A 
ATOM     15  N   UNL     1      -1.780  -9.704   1.051  0.00  0.00    -0.283 N 
ATOM     16  C   UNL     1      -0.895  -8.981   1.767  0.00  0.00    +0.254 C 
ATOM     17  O   UNL     1      -0.935  -8.770   2.961  0.00  0.00    -0.272 OA
ATOM     18  N   UNL     1       1.466  -9.000   1.176  0.00  0.00    -0.230 NA
ATOM     19  C   UNL     1       2.539  -8.276   1.139  0.00  0.00    +0.189 C 
ATOM     20  N   UNL     1       2.496  -6.959   0.742  0.00  0.00    -0.290 N 
ATOM     21  N   UNL     1       3.745  -8.834   1.506  0.00  0.00    -0.241 N 
ATOM     22  C   UNL     1       3.802 -10.154   1.907  0.00  0.00    +0.295 A 
ATOM     23  N   UNL     1       2.776 -10.962   1.970  0.00  0.00    -0.195 NA
ATOM     24  C   UNL     1       3.205 -12.179   2.405  0.00  0.00    +0.111 A 
ATOM     25  C   UNL     1       2.565 -13.393   2.655  0.00  0.00    +0.031 A 
ATOM     26  C   UNL     1       3.297 -14.472   3.100  0.00  0.00    +0.002 A 
ATOM     27  C   UNL     1       4.664 -14.358   3.301  0.00  0.00    +0.004 A 
ATOM     28  C   UNL     1       5.309 -13.162   3.057  0.00  0.00    +0.048 A 
ATOM     29  C   UNL     1       4.588 -12.067   2.609  0.00  0.00    +0.157 A 
ATOM     30  O   UNL     1       4.921 -10.797   2.284  0.00  0.00    -0.424 OA
ATOM     31  H   UNL     1      -2.559 -10.139   1.432  0.00  0.00    +0.155 HD
ATOM     32  H   UNL     1       3.309  -6.509   0.464  0.00  0.00    +0.154 HD
ATOM     33  H   UNL     1       4.554  -8.299   1.481  0.00  0.00    +0.159 HD
ENDROOT
BRANCH   1  38
ATOM     34  C   UNL     1      -0.018   1.503   0.010  0.00  0.00    +0.044 C 
ATOM     35  C   UNL     1       0.002  -0.004   0.002  0.00  0.00    -0.050 A 
ATOM     36  C   UNL     1       0.006  -0.689  -1.199  0.00  0.00    +0.003 A 
ATOM     37  C   UNL     1       0.025  -2.071  -1.206  0.00  0.00    +0.004 A 
ATOM     38  C   UNL     1       0.040  -2.768  -0.013  0.00  0.00    -0.043 A 
ATOM     39  C   UNL     1       0.037  -2.084   1.188  0.00  0.00    +0.004 A 
ATOM     40  C   UNL     1       0.023  -0.702   1.195  0.00  0.00    +0.003 A 
ENDBRANCH   1  38
TORSDOF 1
