REMARK  Name = ZINC28056026
REMARK  4 active torsions:
REMARK  status: ('A' for Active; 'I' for Inactive)
REMARK    1  A    between atoms: C_1  and  O_2
REMARK    2  A    between atoms: O_2  and  C_3
REMARK    3  A    between atoms: C_6  and  C_9
REMARK    4  A    between atoms: C_20  and  C_22
REMARK                            x       y       z     vdW  Elec       q    Type
REMARK                         _______ _______ _______ _____ _____    ______ ____
ROOT
ATOM      1  C   UNL     1       0.296  -4.086  -0.289  0.00  0.00    +0.174 C 
ATOM      2  C   UNL     1       0.179  -2.582  -0.295  0.00  0.00    +0.025 C 
ATOM      3  C   UNL     1       1.190  -1.785   0.055  0.00  0.00    +0.050 C 
ATOM      4  C   UNL     1       0.967  -0.319   0.052  0.00  0.00    +0.039 A 
ATOM      5  C   UNL     1       2.029   0.577   0.077  0.00  0.00    +0.033 A 
ATOM      6  C   UNL     1       1.774   1.936   0.075  0.00  0.00    +0.042 A 
ATOM      7  C   UNL     1       0.470   2.402   0.049  0.00  0.00    +0.023 A 
ATOM      8  C   UNL     1      -0.592   1.516   0.024  0.00  0.00    +0.048 A 
ATOM      9  C   UNL     1      -0.351   0.154   0.025  0.00  0.00    +0.131 A 
ATOM     10  O   UNL     1      -1.366  -0.747  -0.001  0.00  0.00    -0.479 OA
ATOM     11  C   UNL     1      -1.137  -1.963  -0.712  0.00  0.00    +0.234 C 
ATOM     12 CL   UNL     1       3.094   3.063   0.107  0.00  0.00    -0.084 Cl
ATOM     13  N   UNL     1       2.441  -2.286   0.433  0.00  0.00    -0.282 N 
ATOM     14  C   UNL     1       2.691  -3.625   0.182  0.00  0.00    +0.240 A 
ATOM     15  N   UNL     1       1.692  -4.479  -0.165  0.00  0.00    -0.201 N 
ATOM     16  N   UNL     1       2.308  -5.716  -0.350  0.00  0.00    -0.042 NA
ATOM     17  N   UNL     1       3.568  -5.540  -0.111  0.00  0.00    -0.021 NA
ATOM     18  N   UNL     1       3.798  -4.311   0.204  0.00  0.00    -0.092 NA
ATOM     19  H   UNL     1       3.179  -1.623   0.909  0.00  0.00    +0.155 HD
ENDROOT
BRANCH  11  20
ATOM     20  C   UNL     1      -1.105  -1.676  -2.191  0.00  0.00    -0.002 A 
ATOM     21  C   UNL     1      -1.773  -2.507  -3.071  0.00  0.00    +0.009 A 
ATOM     22  C   UNL     1      -1.749  -2.242  -4.427  0.00  0.00    +0.022 A 
ATOM     23  C   UNL     1      -1.046  -1.150  -4.906  0.00  0.00    +0.059 A 
ATOM     24  C   UNL     1      -0.372  -0.321  -4.025  0.00  0.00    +0.060 A 
ATOM     25  C   UNL     1      -0.402  -0.585  -2.668  0.00  0.00    +0.029 A 
ATOM     26 CL   UNL     1       0.509   1.049  -4.625  0.00  0.00    -0.082 Cl
ATOM     27 CL   UNL     1      -1.009  -0.821  -6.610  0.00  0.00    -0.082 Cl
ENDBRANCH  11  20
BRANCH   1  31
ATOM     28  C   UNL     1      -1.909  -5.664   3.014  0.00  0.00    +0.120 A 
ATOM     29  C   UNL     1      -2.240  -6.033   1.718  0.00  0.00    +0.046 A 
ATOM     30  C   UNL     1      -1.525  -5.521   0.652  0.00  0.00    +0.009 A 
ATOM     31  C   UNL     1      -0.482  -4.642   0.876  0.00  0.00    -0.018 A 
ATOM     32  C   UNL     1      -0.147  -4.277   2.167  0.00  0.00    +0.009 A 
ATOM     33  C   UNL     1      -0.862  -4.782   3.236  0.00  0.00    +0.046 A 
BRANCH  28  35
ATOM     34  C   UNL     1      -2.214  -5.743   5.371  0.00  0.00    +0.277 C 
ATOM     35  O   UNL     1      -2.610  -6.167   4.065  0.00  0.00    -0.495 OA
ENDBRANCH  28  35
ENDBRANCH   1  31
TORSDOF 3
