REMARK  Name = ZINC09762416
REMARK  17 active torsions:
REMARK  status: ('A' for Active; 'I' for Inactive)
REMARK    1  A    between atoms: C_1  and  C_2
REMARK    2  A    between atoms: C_2  and  C_3
REMARK    3  A    between atoms: C_2  and  O_4
REMARK    4  A    between atoms: O_4  and  C_5
REMARK    5  A    between atoms: C_5  and  C_6
REMARK    6  A    between atoms: C_6  and  C_7
REMARK    7  A    between atoms: C_7  and  N_8
REMARK    8  A    between atoms: C_9  and  N_73
REMARK    9  A    between atoms: C_19  and  C_21
REMARK   10  A    between atoms: C_19  and  C_26
REMARK   11  A    between atoms: C_19  and  N_73
REMARK   12  A    between atoms: C_21  and  C_22
REMARK   13  A    between atoms: C_22  and  O_24
REMARK   14  A    between atoms: O_24  and  C_25
REMARK   15  A    between atoms: C_29  and  O_32
REMARK   16  A    between atoms: O_32  and  C_33
REMARK   17  A    between atoms: C_33  and  C_34
REMARK                            x       y       z     vdW  Elec       q    Type
REMARK                         _______ _______ _______ _____ _____    ______ ____
ROOT
ATOM      1  C   UNL     1       7.359   7.032  -2.127  0.00  0.00    -0.027 C 
ENDROOT
BRANCH   1   2
ATOM      2  C   UNL     1       6.199   6.086  -1.944  0.00  0.00    -0.061 A 
ATOM      3  C   UNL     1       5.431   5.717  -3.033  0.00  0.00    +0.005 A 
ATOM      4  C   UNL     1       4.368   4.850  -2.867  0.00  0.00    +0.046 A 
ATOM      5  C   UNL     1       4.072   4.351  -1.607  0.00  0.00    +0.121 A 
ATOM      6  C   UNL     1       4.840   4.728  -0.515  0.00  0.00    +0.046 A 
ATOM      7  C   UNL     1       5.906   5.590  -0.687  0.00  0.00    +0.005 A 
BRANCH   5   8
ATOM      8  O   UNL     1       3.026   3.499  -1.442  0.00  0.00    -0.487 OA
BRANCH   8   9
ATOM      9  C   UNL     1       2.779   3.025  -0.117  0.00  0.00    +0.264 C 
BRANCH   9  10
ATOM     10  C   UNL     1       1.591   2.098  -0.128  0.00  0.00    -0.010 A 
ATOM     11  C   UNL     1       1.773   0.743  -0.330  0.00  0.00    +0.007 A 
ATOM     12  C   UNL     1       0.683  -0.108  -0.341  0.00  0.00    +0.000 A 
ATOM     13  C   UNL     1      -0.590   0.398  -0.154  0.00  0.00    +0.000 A 
ATOM     14  C   UNL     1      -0.771   1.753   0.054  0.00  0.00    +0.000 A 
ATOM     15  C   UNL     1       0.319   2.603   0.065  0.00  0.00    +0.007 A 
ENDBRANCH   9  10
ENDBRANCH   8   9
ENDBRANCH   5   8
ENDBRANCH   1   2
BRANCH   1  16
ATOM     16  N   UNL     1       7.401   7.973  -0.992  0.00  0.00    +0.399 N 
ATOM     17  H   UNL     1       6.442   8.174  -0.683  0.00  0.00    -0.082 HD
ATOM     18  H   UNL     1       7.927   7.548  -0.220  0.00  0.00    -0.082 HD
BRANCH  16  20
ATOM     19  N   UNL     1       7.052  10.284  -1.582  0.00  0.00    -0.307 N 
ATOM     20  C   UNL     1       8.057   9.231  -1.394  0.00  0.00    +0.052 C 
ATOM     21  C   UNL     1       8.967   9.709  -0.290  0.00  0.00    -0.032 A 
ATOM     22  C   UNL     1      10.074   9.166   0.320  0.00  0.00    +0.004 A 
ATOM     23  C   UNL     1      10.716   9.860   1.332  0.00  0.00    +0.000 A 
ATOM     24  C   UNL     1      10.247  11.099   1.732  0.00  0.00    +0.001 A 
ATOM     25  C   UNL     1       9.137  11.653   1.127  0.00  0.00    +0.013 A 
ATOM     26  C   UNL     1       8.485  10.959   0.105  0.00  0.00    +0.040 A 
ATOM     27  C   UNL     1       7.301  11.280  -0.715  0.00  0.00    +0.246 C 
ATOM     28  O   UNL     1       6.647  12.299  -0.621  0.00  0.00    -0.270 OA
BRANCH  19  29
ATOM     29  C   UNL     1       5.956  10.253  -2.554  0.00  0.00    +0.109 C 
BRANCH  29  30
ATOM     30  C   UNL     1       4.725   9.606  -1.916  0.00  0.00    +0.047 C 
BRANCH  30  31
ATOM     31  C   UNL     1       3.581   9.574  -2.931  0.00  0.00    +0.161 C 
BRANCH  31  32
ATOM     32  O   UNL     1       2.432   8.970  -2.335  0.00  0.00    -0.377 OA
BRANCH  32  34
ATOM     33  C   UNL     1       1.339   7.568  -3.972  0.00  0.00    +0.037 C 
ATOM     34  C   UNL     1       1.300   8.891  -3.204  0.00  0.00    +0.112 C 
ATOM     35  C   UNL     1       0.015   8.962  -2.376  0.00  0.00    +0.037 C 
ENDBRANCH  32  34
ENDBRANCH  31  32
ENDBRANCH  30  31
ENDBRANCH  29  30
ENDBRANCH  19  29
ENDBRANCH  16  20
ENDBRANCH   1  16
BRANCH   1  36
ATOM     36  C   UNL     1       8.664   6.234  -2.178  0.00  0.00    +0.109 C 
BRANCH  36  37
ATOM     37  C   UNL     1       8.696   5.404  -3.435  0.00  0.00    +0.306 C 
ATOM     38  O   UNL     1       7.826   5.528  -4.264  0.00  0.00    -0.251 OA
BRANCH  37  39
ATOM     39  O   UNL     1       9.691   4.525  -3.633  0.00  0.00    -0.468 OA
ATOM     40  C   UNL     1       9.658   3.759  -4.866  0.00  0.00    +0.280 C 
ENDBRANCH  37  39
ENDBRANCH  36  37
ENDBRANCH   1  36
TORSDOF 14
