REMARK  Name = ZINC39158937
REMARK  2 active torsions:
REMARK  status: ('A' for Active; 'I' for Inactive)
REMARK    1  A    between atoms: C_1  and  C_2
REMARK    2  A    between atoms: C_10  and  C_13
REMARK                            x       y       z     vdW  Elec       q    Type
REMARK                         _______ _______ _______ _____ _____    ______ ____
ROOT
ATOM      1  C   UNL     1      -0.019   1.526   0.010  0.00  0.00    +0.051 C 
ATOM      2  C   UNL     1       0.002  -0.004   0.002  0.00  0.00    +0.183 C 
ATOM      3  N   UNL     1       0.756  -0.504  -1.159  0.00  0.00    -0.245 N 
ATOM      4  N   UNL     1       1.833  -1.232  -0.644  0.00  0.00    -0.149 NA
ATOM      5  C   UNL     1       1.832  -1.239   0.661  0.00  0.00    +0.241 C 
ATOM      6  N   UNL     1       0.749  -0.516   1.160  0.00  0.00    -0.215 N 
ATOM      7  C   UNL     1       0.551  -0.394   2.497  0.00  0.00    +0.263 C 
ATOM      8  O   UNL     1      -0.496   0.305   2.974  0.00  0.00    -0.269 OA
ATOM      9  C   UNL     1       1.456  -1.010   3.372  0.00  0.00    +0.143 C 
ATOM     10  C   UNL     1       2.544  -1.738   2.826  0.00  0.00    +0.134 C 
ATOM     11  N   UNL     1       2.703  -1.831   1.527  0.00  0.00    -0.220 NA
ATOM     12  H   UNL     1       0.548  -0.358  -2.095  0.00  0.00    +0.170 HD
ENDROOT
BRANCH   9  13
ATOM     13  C   UNL     1       1.287  -0.908   4.775  0.00  0.00    +0.393 C 
ATOM     14  O   UNL     1       0.343  -0.276   5.234  0.00  0.00    -0.240 OA
ATOM     15  O   UNL     1       2.085  -1.451   5.529  0.00  0.00    -0.240 OA
ENDBRANCH   9  13
TORSDOF 1
