REMARK  Name = ZINC16666773
REMARK  9 active torsions:
REMARK  status: ('A' for Active; 'I' for Inactive)
REMARK    1  A    between atoms: C_1  and  C_2
REMARK    2  A    between atoms: N_9  and  C_10
REMARK    3  A    between atoms: C_13  and  O_16
REMARK    4  A    between atoms: O_16  and  C_17
REMARK    5  A    between atoms: C_17  and  C_19
REMARK    6  A    between atoms: C_22  and  N_25
REMARK    7  A    between atoms: C_29  and  C_31
REMARK    8  A    between atoms: C_34  and  O_37
REMARK    9  A    between atoms: O_37  and  C_38
REMARK                            x       y       z     vdW  Elec       q    Type
REMARK                         _______ _______ _______ _____ _____    ______ ____
ROOT
ATOM      1  C   UNL     1       0.009  -0.009  -0.003  0.00  0.00    +0.044 C 
ATOM      2  C   UNL     1      -0.014   1.498  -0.017  0.00  0.00    -0.050 A 
ATOM      3  C   UNL     1      -1.231   2.168  -0.040  0.00  0.00    +0.007 A 
ATOM      4  C   UNL     1      -1.276   3.545  -0.049  0.00  0.00    +0.047 A 
ATOM      5  C   UNL     1      -0.090   4.276  -0.044  0.00  0.00    +0.138 A 
ATOM      6  C   UNL     1       1.139   3.590  -0.025  0.00  0.00    +0.041 A 
ATOM      7  C   UNL     1       1.161   2.194  -0.012  0.00  0.00    +0.017 A 
ATOM      8  C   UNL     1       2.388   4.372  -0.020  0.00  0.00    +0.054 A 
ATOM      9  N   UNL     1       3.590   3.766  -0.003  0.00  0.00    -0.354 N 
ATOM     10  C   UNL     1       2.279   5.768  -0.033  0.00  0.00    +0.073 A 
ATOM     11  C   UNL     1       1.003   6.355  -0.051  0.00  0.00    +0.138 A 
ATOM     12  O   UNL     1      -0.114   5.622  -0.056  0.00  0.00    -0.455 OA
ATOM     13  H   UNL     1       3.654   2.673   0.102  0.00  0.00    +0.166 HD
ENDROOT
BRANCH   9  14
ATOM     14  C   UNL     1       4.695   4.486  -0.111  0.00  0.00    +0.040 A 
ATOM     15  C   UNL     1       5.226   4.855  -1.431  0.00  0.00    +0.029 A 
ATOM     16  C   UNL     1       6.359   5.598  -1.503  0.00  0.00    +0.048 A 
ATOM     17  C   UNL     1       7.026   6.003  -0.339  0.00  0.00    +0.132 A 
ATOM     18  C   UNL     1       6.553   5.667   0.936  0.00  0.00    +0.048 A 
ATOM     19  C   UNL     1       5.423   4.931   1.086  0.00  0.00    +0.029 A 
BRANCH  17  20
ATOM     20  O   UNL     1       8.155   6.738  -0.450  0.00  0.00    -0.422 OA
BRANCH  20  21
ATOM     21  C   UNL     1       9.324   6.097  -0.251  0.00  0.00    +0.344 C 
ATOM     22  O   UNL     1       9.327   4.934   0.102  0.00  0.00    -0.245 OA
BRANCH  21  23
ATOM     23  C   UNL     1      10.601   6.808  -0.461  0.00  0.00    +0.060 A 
ATOM     24  C   UNL     1      10.601   8.143  -0.872  0.00  0.00    +0.017 A 
ATOM     25  C   UNL     1      11.798   8.802  -1.060  0.00  0.00    +0.033 A 
ATOM     26  C   UNL     1      12.996   8.141  -0.855  0.00  0.00    +0.126 A 
ATOM     27  C   UNL     1      13.003   6.817  -0.454  0.00  0.00    +0.033 A 
ATOM     28  C   UNL     1      11.814   6.147  -0.256  0.00  0.00    +0.017 A 
BRANCH  26  29
ATOM     29  N   UNL     1      14.276   8.854  -1.066  0.00  0.00    +0.056 N 
ATOM     30  O   UNL     1      15.418   8.227  -0.872  0.00  0.00    -0.126 OA
ATOM     31  O   UNL     1      14.273  10.114  -1.448  0.00  0.00    -0.126 OA
ENDBRANCH  26  29
ENDBRANCH  21  23
ENDBRANCH  20  21
ENDBRANCH  17  20
ENDBRANCH   9  14
BRANCH  11  32
ATOM     32  C   UNL     1       0.894   7.816  -0.065  0.00  0.00    +0.018 A 
ATOM     33  C   UNL     1       2.053   8.610  -0.055  0.00  0.00    +0.015 A 
ATOM     34  C   UNL     1       1.945   9.970  -0.074  0.00  0.00    +0.046 A 
ATOM     35  C   UNL     1       0.688  10.572  -0.092  0.00  0.00    +0.120 A 
ATOM     36  C   UNL     1      -0.466   9.790  -0.097  0.00  0.00    +0.046 A 
ATOM     37  C   UNL     1      -0.370   8.429  -0.084  0.00  0.00    +0.015 A 
BRANCH  35  38
ATOM     38  O   UNL     1       0.587  11.924  -0.105  0.00  0.00    -0.495 OA
ATOM     39  C   UNL     1       1.808  12.666  -0.100  0.00  0.00    +0.277 C 
ENDBRANCH  35  38
ENDBRANCH  11  32
TORSDOF 7
