REMARK  Name = ZINC19313837
REMARK  11 active torsions:
REMARK  status: ('A' for Active; 'I' for Inactive)
REMARK    1  A    between atoms: C_1  and  C_2
REMARK    2  A    between atoms: C_2  and  C_3
REMARK    3  A    between atoms: C_3  and  N_4
REMARK    4  A    between atoms: N_4  and  C_5
REMARK    5  A    between atoms: C_5  and  C_6
REMARK    6  A    between atoms: C_9  and  C_12
REMARK    7  A    between atoms: C_13  and  C_15
REMARK    8  A    between atoms: C_15  and  N_16
REMARK    9  A    between atoms: C_19  and  C_23
REMARK   10  A    between atoms: C_19  and  C_25
REMARK   11  A    between atoms: C_23  and  C_24
REMARK                            x       y       z     vdW  Elec       q    Type
REMARK                         _______ _______ _______ _____ _____    ______ ____
ROOT
ATOM      1  N   UNL     1      -4.983   2.443   3.937  0.00  0.00    -0.215 N 
ATOM      2  C   UNL     1      -6.324   2.476   3.810  0.00  0.00    +0.251 C 
ATOM      3  O   UNL     1      -7.033   1.632   3.304  0.00  0.00    -0.272 OA
ATOM      4  C   UNL     1      -6.763   3.787   4.432  0.00  0.00    +0.138 C 
ATOM      5  N   UNL     1      -5.499   4.397   4.879  0.00  0.00    -0.281 N 
ATOM      6  C   UNL     1      -4.519   3.537   4.551  0.00  0.00    +0.310 C 
ATOM      7  O   UNL     1      -3.342   3.733   4.783  0.00  0.00    -0.252 OA
ATOM      8  H   UNL     1      -5.508   5.379   5.375  0.00  0.00    +0.152 HD
ENDROOT
BRANCH   4   9
ATOM      9  C   UNL     1      -7.443   4.658   3.408  0.00  0.00    -0.015 A 
ATOM     10  C   UNL     1      -8.812   4.575   3.230  0.00  0.00    +0.007 A 
ATOM     11  C   UNL     1      -9.437   5.378   2.295  0.00  0.00    +0.020 A 
ATOM     12  C   UNL     1      -8.692   6.257   1.529  0.00  0.00    +0.041 A 
ATOM     13  C   UNL     1      -7.322   6.335   1.703  0.00  0.00    +0.020 A 
ATOM     14  C   UNL     1      -6.698   5.536   2.643  0.00  0.00    +0.007 A 
ATOM     15 CL   UNL     1      -9.476   7.260   0.349  0.00  0.00    -0.084 Cl
ENDBRANCH   4   9
BRANCH   4  16
ATOM     16  C   UNL     1      -7.690   3.534   5.622  0.00  0.00    +0.037 C 
ATOM     17  C   UNL     1      -6.919   2.800   6.722  0.00  0.00    +0.007 C 
ENDBRANCH   4  16
BRANCH   1  18
ATOM     18  C   UNL     1      -4.139   1.342   3.466  0.00  0.00    +0.213 C 
BRANCH  18  20
ATOM     19  N   UNL     1      -2.927   0.722   1.401  0.00  0.00    -0.296 N 
ATOM     20  C   UNL     1      -3.714   1.607   2.045  0.00  0.00    +0.234 C 
ATOM     21  O   UNL     1      -4.080   2.615   1.480  0.00  0.00    -0.274 OA
BRANCH  19  22
ATOM     22  C   UNL     1      -2.484  -0.497   2.083  0.00  0.00    +0.108 C 
BRANCH  22  24
ATOM     23  C   UNL     1      -0.697  -1.500   3.512  0.00  0.00    +0.005 C 
ATOM     24  C   UNL     1      -1.159  -0.228   2.800  0.00  0.00    +0.016 C 
ENDBRANCH  22  24
ENDBRANCH  19  22
BRANCH  19  25
ATOM     25  C   UNL     1      -2.514   0.980   0.019  0.00  0.00    +0.142 C 
BRANCH  25  26
ATOM     26  C   UNL     1      -1.219   1.751   0.017  0.00  0.00    -0.030 A 
ATOM     27  C   UNL     1      -0.013   1.076   0.008  0.00  0.00    +0.005 A 
ATOM     28  C   UNL     1       1.175   1.783   0.000  0.00  0.00    +0.003 A 
ATOM     29  C   UNL     1       1.156   3.165   0.008  0.00  0.00    -0.050 A 
ATOM     30  C   UNL     1      -0.050   3.840   0.022  0.00  0.00    +0.003 A 
ATOM     31  C   UNL     1      -1.238   3.133   0.030  0.00  0.00    +0.005 A 
ATOM     32  C   UNL     1       2.451   3.937  -0.001  0.00  0.00    +0.044 C 
ENDBRANCH  25  26
ENDBRANCH  19  25
ENDBRANCH  18  20
ENDBRANCH   1  18
TORSDOF 8
