REMARK  Name = ZINC12425470
REMARK  8 active torsions:
REMARK  status: ('A' for Active; 'I' for Inactive)
REMARK    1  A    between atoms: C_1  and  C_2
REMARK    2  A    between atoms: C_5  and  C_8
REMARK    3  A    between atoms: C_11  and  C_14
REMARK    4  A    between atoms: C_19  and  C_21
REMARK    5  A    between atoms: C_21  and  O_22
REMARK    6  A    between atoms: O_22  and  C_23
REMARK    7  A    between atoms: C_23  and  C_25
REMARK    8  A    between atoms: C_25  and  C_26
REMARK                            x       y       z     vdW  Elec       q    Type
REMARK                         _______ _______ _______ _____ _____    ______ ____
ROOT
ATOM      1  C   UNL     1      -8.201  -0.530  -3.180  0.00  0.00    +0.069 C 
ATOM      2  N   UNL     1      -7.005  -0.246  -2.795  0.00  0.00    -0.181 NA
ATOM      3  N   UNL     1      -6.340   0.657  -3.623  0.00  0.00    -0.179 N 
ATOM      4  C   UNL     1      -7.227   1.022  -4.739  0.00  0.00    +0.173 C 
ATOM      5  C   UNL     1      -8.512   0.219  -4.456  0.00  0.00    +0.090 C 
ATOM      6  C   UNL     1      -5.086   1.115  -3.436  0.00  0.00    +0.273 C 
ATOM      7  O   UNL     1      -4.603   1.898  -4.226  0.00  0.00    -0.270 OA
ENDROOT
BRANCH   1  12
ATOM      8  C   UNL     1     -11.792  -4.119  -0.477  0.00  0.00    +0.044 C 
ATOM      9  C   UNL     1     -10.851  -3.179  -1.186  0.00  0.00    -0.050 A 
ATOM     10  C   UNL     1      -9.588  -2.948  -0.668  0.00  0.00    +0.004 A 
ATOM     11  C   UNL     1      -8.722  -2.089  -1.311  0.00  0.00    +0.010 A 
ATOM     12  C   UNL     1      -9.121  -1.451  -2.487  0.00  0.00    -0.002 A 
ATOM     13  C   UNL     1     -10.399  -1.684  -3.001  0.00  0.00    +0.010 A 
ATOM     14  C   UNL     1     -11.253  -2.550  -2.351  0.00  0.00    +0.004 A 
ENDBRANCH   1  12
BRANCH   4  15
ATOM     15  C   UNL     1      -7.510   2.502  -4.728  0.00  0.00    +0.128 A 
ATOM     16  C   UNL     1      -7.600   3.294  -5.812  0.00  0.00    +0.046 A 
ATOM     17  C   UNL     1      -7.878   4.599  -5.344  0.00  0.00    +0.041 A 
ATOM     18  C   UNL     1      -7.933   4.528  -4.002  0.00  0.00    +0.195 A 
ATOM     19  O   UNL     1      -7.710   3.256  -3.634  0.00  0.00    -0.466 OA
ENDBRANCH   4  15
BRANCH   6  20
ATOM     20  C   UNL     1      -4.286   0.655  -2.244  0.00  0.00    +0.329 C 
BRANCH  20  21
ATOM     21  O   UNL     1      -2.979   1.287  -2.267  0.00  0.00    -0.455 OA
BRANCH  21  22
ATOM     22  C   UNL     1      -2.137   0.981  -1.267  0.00  0.00    +0.309 C 
ATOM     23  O   UNL     1      -2.481   0.211  -0.402  0.00  0.00    -0.251 OA
BRANCH  22  24
ATOM     24  C   UNL     1      -0.763   1.598  -1.224  0.00  0.00    +0.144 C 
BRANCH  24  25
ATOM     25  C   UNL     1      -0.013   1.086   0.008  0.00  0.00    +0.148 C 
ATOM     26  C   UNL     1       1.399   1.612  -0.003  0.00  0.00    +0.231 C 
ATOM     27  O   UNL     1       2.281   0.891  -0.419  0.00  0.00    -0.274 OA
ATOM     28  N   UNL     1       1.725   2.829   0.422  0.00  0.00    -0.284 N 
ATOM     29  C   UNL     1       0.880   3.752   1.031  0.00  0.00    +0.047 A 
ATOM     30  C   UNL     1       1.275   5.082   1.123  0.00  0.00    +0.024 A 
ATOM     31  C   UNL     1       0.450   6.015   1.717  0.00  0.00    +0.002 A 
ATOM     32  C   UNL     1      -0.774   5.638   2.238  0.00  0.00    +0.001 A 
ATOM     33  C   UNL     1      -1.173   4.316   2.171  0.00  0.00    +0.016 A 
ATOM     34  C   UNL     1      -0.347   3.375   1.578  0.00  0.00    +0.030 A 
ATOM     35  S   UNL     1      -0.836   1.679   1.518  0.00  0.00    -0.110 S 
ATOM     36  H   UNL     1       2.647   3.102   0.294  0.00  0.00    +0.155 HD
ENDBRANCH  24  25
ENDBRANCH  22  24
ENDBRANCH  21  22
ENDBRANCH  20  21
ENDBRANCH   6  20
TORSDOF 7
