REMARK  Name = ZINC25392798
REMARK  12 active torsions:
REMARK  status: ('A' for Active; 'I' for Inactive)
REMARK    1  A    between atoms: C_1  and  C_2
REMARK    2  A    between atoms: C_2  and  O_3
REMARK    3  A    between atoms: O_3  and  C_4
REMARK    4  A    between atoms: C_7  and  N_10
REMARK    5  A    between atoms: N_12  and  C_26
REMARK    6  A    between atoms: C_13  and  C_16
REMARK    7  A    between atoms: C_19  and  O_22
REMARK    8  A    between atoms: O_22  and  C_23
REMARK    9  A    between atoms: C_26  and  C_27
REMARK   10  A    between atoms: C_27  and  C_28
REMARK   11  A    between atoms: C_28  and  O_29
REMARK   12  A    between atoms: O_29  and  C_30
REMARK                            x       y       z     vdW  Elec       q    Type
REMARK                         _______ _______ _______ _____ _____    ______ ____
ROOT
ATOM      1  N   UNL     1       2.404   1.125   0.132  0.00  0.00    -0.336 N 
ATOM      2  C   UNL     1       3.524   1.804  -0.021  0.00  0.00    +0.152 A 
ATOM      3  N   UNL     1       4.825   1.373   0.094  0.00  0.00    -0.321 N 
ATOM      4  C   UNL     1       5.835   2.272  -0.114  0.00  0.00    +0.058 A 
ATOM      5  C   UNL     1       5.537   3.550  -0.425  0.00  0.00    +0.075 A 
ATOM      6  S   UNL     1       3.752   3.525  -0.442  0.00  0.00    -0.059 S 
ATOM      7  H   UNL     1       2.438   0.074   0.455  0.00  0.00    +0.168 HD
ENDROOT
BRANCH   1  11
ATOM      8  C   UNL     1      -1.241   2.949  -0.600  0.00  0.00    +0.121 A 
ATOM      9  C   UNL     1      -0.703   2.968   0.679  0.00  0.00    +0.047 A 
ATOM     10  C   UNL     1       0.514   2.367   0.926  0.00  0.00    +0.029 A 
ATOM     11  C   UNL     1       1.198   1.728  -0.110  0.00  0.00    +0.041 A 
ATOM     12  C   UNL     1       0.650   1.706  -1.394  0.00  0.00    +0.029 A 
ATOM     13  C   UNL     1      -0.565   2.315  -1.633  0.00  0.00    +0.047 A 
BRANCH   8  14
ATOM     14  O   UNL     1      -2.439   3.547  -0.841  0.00  0.00    -0.492 OA
BRANCH  14  16
ATOM     15  C   UNL     1      -4.406   4.793  -0.193  0.00  0.00    +0.048 C 
ATOM     16  C   UNL     1      -3.081   4.181   0.267  0.00  0.00    +0.225 C 
ENDBRANCH  14  16
ENDBRANCH   8  14
ENDBRANCH   1  11
BRANCH   4  17
ATOM     17  C   UNL     1       7.246   1.845   0.002  0.00  0.00    -0.001 A 
ATOM     18  C   UNL     1       8.177   2.671   0.635  0.00  0.00    +0.013 A 
ATOM     19  C   UNL     1       9.491   2.266   0.746  0.00  0.00    +0.046 A 
ATOM     20  C   UNL     1       9.890   1.046   0.219  0.00  0.00    +0.127 A 
ATOM     21  C   UNL     1       8.969   0.225  -0.417  0.00  0.00    +0.046 A 
ATOM     22  C   UNL     1       7.652   0.619  -0.526  0.00  0.00    +0.013 A 
BRANCH  20  23
ATOM     23  O   UNL     1      11.188   0.653   0.325  0.00  0.00    -0.434 OA
BRANCH  23  24
ATOM     24  C   UNL     1      12.083   1.546   0.991  0.00  0.00    +0.541 C 
ATOM     25  F   UNL     1      12.114   2.768   0.310  0.00  0.00    -0.166 F 
ATOM     26  F   UNL     1      11.644   1.754   2.303  0.00  0.00    -0.166 F 
ENDBRANCH  23  24
ENDBRANCH  20  23
ENDBRANCH   4  17
BRANCH   3  27
ATOM     27  C   UNL     1       5.123  -0.021   0.432  0.00  0.00    +0.126 C 
BRANCH  27  28
ATOM     28  C   UNL     1       4.083  -0.538   1.428  0.00  0.00    +0.050 C 
BRANCH  28  29
ATOM     29  C   UNL     1       4.394  -1.994   1.782  0.00  0.00    +0.161 C 
BRANCH  29  30
ATOM     30  O   UNL     1       3.422  -2.477   2.711  0.00  0.00    -0.383 OA
ATOM     31  C   UNL     1       3.623  -3.834   3.109  0.00  0.00    +0.193 C 
ENDBRANCH  29  30
ENDBRANCH  28  29
ENDBRANCH  27  28
ENDBRANCH   3  27
TORSDOF 10
