REMARK  Name = ZINC63572614
REMARK  6 active torsions:
REMARK  status: ('A' for Active; 'I' for Inactive)
REMARK    1  A    between atoms: C_1  and  O_2
REMARK    2  A    between atoms: O_2  and  C_3
REMARK    3  A    between atoms: C_3  and  C_4
REMARK    4  A    between atoms: C_4  and  C_5
REMARK    5  A    between atoms: C_5  and  N_6
REMARK    6  A    between atoms: C_22  and  C_24
REMARK                            x       y       z     vdW  Elec       q    Type
REMARK                         _______ _______ _______ _____ _____    ______ ____
ROOT
ATOM      1  N   UNL     1      -2.090  -4.509   0.168  0.00  0.00    -0.299 N 
ATOM      2  C   UNL     1      -3.273  -5.151   0.098  0.00  0.00    +0.303 C 
ATOM      3  O   UNL     1      -4.311  -4.518   0.133  0.00  0.00    -0.253 OA
ATOM      4  N   UNL     1      -3.305  -6.494  -0.011  0.00  0.00    -0.276 N 
ATOM      5  C   UNL     1      -2.057  -7.259   0.070  0.00  0.00    +0.114 C 
ATOM      6  C   UNL     1      -2.156  -8.282   1.216  0.00  0.00    +0.052 C 
ATOM      7  C   UNL     1      -3.506  -8.944   1.089  0.00  0.00    -0.035 C 
ATOM      8  C   UNL     1      -3.855 -10.224   1.044  0.00  0.00    +0.001 A 
ATOM      9  C   UNL     1      -3.072 -11.459   1.211  0.00  0.00    +0.030 A 
ATOM     10  C   UNL     1      -3.758 -12.626   1.081  0.00  0.00    +0.042 A 
ATOM     11  C   UNL     1      -5.128 -12.686   0.803  0.00  0.00    +0.022 A 
ATOM     12  C   UNL     1      -5.926 -11.601   0.643  0.00  0.00    +0.027 A 
ATOM     13  C   UNL     1      -5.320 -10.317   0.766  0.00  0.00    +0.043 A 
ATOM     14  N   UNL     1      -5.843  -9.129   0.684  0.00  0.00    -0.375 N 
ATOM     15  C   UNL     1      -4.797  -8.144   0.960  0.00  0.00    +0.131 C 
ATOM     16  C   UNL     1      -4.594  -7.177  -0.205  0.00  0.00    +0.134 C 
ATOM     17 CL   UNL     1      -2.889 -14.118   1.267  0.00  0.00    -0.084 Cl
ATOM     18  H   UNL     1      -1.264  -5.017   0.213  0.00  0.00    +0.150 HD
ATOM     19  H   UNL     1      -6.769  -8.930   0.476  0.00  0.00    +0.160 HD
ENDROOT
BRANCH  16  20
ATOM     20  C   UNL     1      -4.575  -7.944  -1.502  0.00  0.00    -0.025 A 
ATOM     21  C   UNL     1      -5.529  -7.687  -2.470  0.00  0.00    +0.008 A 
ATOM     22  C   UNL     1      -5.513  -8.389  -3.660  0.00  0.00    +0.038 A 
ATOM     23  C   UNL     1      -4.541  -9.350  -3.883  0.00  0.00    +0.123 A 
ATOM     24  C   UNL     1      -3.586  -9.606  -2.914  0.00  0.00    +0.038 A 
ATOM     25  C   UNL     1      -3.602  -8.899  -1.726  0.00  0.00    +0.008 A 
ATOM     26  F   UNL     1      -4.524 -10.037  -5.046  0.00  0.00    -0.205 F 
ENDBRANCH  16  20
BRANCH   1  27
ATOM     27  C   UNL     1      -2.050  -3.045   0.177  0.00  0.00    +0.108 C 
BRANCH  27  28
ATOM     28  C   UNL     1      -0.597  -2.574   0.262  0.00  0.00    +0.047 C 
BRANCH  28  29
ATOM     29  C   UNL     1      -0.556  -1.045   0.271  0.00  0.00    +0.161 C 
BRANCH  29  31
ATOM     30  C   UNL     1       0.953   0.816   0.366  0.00  0.00    +0.193 C 
ATOM     31  O   UNL     1       0.802  -0.605   0.351  0.00  0.00    -0.383 OA
ENDBRANCH  29  31
ENDBRANCH  28  29
ENDBRANCH  27  28
ENDBRANCH   1  27
TORSDOF 5
