REMARK  Name = ZINC38785483
REMARK  8 active torsions:
REMARK  status: ('A' for Active; 'I' for Inactive)
REMARK    1  A    between atoms: C_1  and  C_2
REMARK    2  A    between atoms: C_5  and  C_8
REMARK    3  A    between atoms: C_12  and  S_16
REMARK    4  A    between atoms: S_16  and  C_17
REMARK    5  A    between atoms: C_17  and  C_18
REMARK    6  A    between atoms: N_20  and  S_21
REMARK    7  A    between atoms: S_21  and  C_24
REMARK    8  A    between atoms: C_27  and  C_30
REMARK                            x       y       z     vdW  Elec       q    Type
REMARK                         _______ _______ _______ _____ _____    ______ ____
ROOT
ATOM      1  C   UNL     1       0.060  -4.240  -0.021  0.00  0.00    -0.015 C 
ATOM      2  C   UNL     1       1.130  -4.941   0.468  0.00  0.00    +0.075 C 
ATOM      3  C   UNL     1       1.056  -6.411   0.417  0.00  0.00    +0.112 C 
ATOM      4  N   UNL     1       2.044  -7.146   0.867  0.00  0.00    -0.217 NA
ATOM      5  C   UNL     1       3.139  -6.592   1.383  0.00  0.00    +0.182 C 
ATOM      6  N   UNL     1       3.309  -5.284   1.477  0.00  0.00    -0.151 NA
ATOM      7  C   UNL     1       2.393  -4.409   1.062  0.00  0.00    +0.272 C 
ATOM      8  O   UNL     1       2.582  -3.207   1.163  0.00  0.00    -0.268 OA
ATOM      9  S   UNL     1      -0.520  -6.766  -0.320  0.00  0.00    -0.100 S 
ATOM     10  C   UNL     1      -1.101  -5.040  -0.564  0.00  0.00    +0.112 C 
ENDROOT
BRANCH   1  15
ATOM     11  C   UNL     1      -0.018   1.503   0.010  0.00  0.00    +0.044 C 
ATOM     12  C   UNL     1       0.002  -0.004   0.002  0.00  0.00    -0.050 A 
ATOM     13  C   UNL     1       0.006  -0.685  -1.204  0.00  0.00    +0.004 A 
ATOM     14  C   UNL     1       0.025  -2.063  -1.221  0.00  0.00    +0.008 A 
ATOM     15  C   UNL     1       0.041  -2.775  -0.013  0.00  0.00    -0.020 A 
ATOM     16  C   UNL     1       0.037  -2.076   1.202  0.00  0.00    +0.008 A 
ATOM     17  C   UNL     1       0.023  -0.699   1.200  0.00  0.00    +0.004 A 
ENDBRANCH   1  15
BRANCH   5  18
ATOM     18  S   UNL     1       4.422  -7.650   1.967  0.00  0.00    -0.079 S 
BRANCH  18  19
ATOM     19  C   UNL     1       5.694  -6.506   2.571  0.00  0.00    +0.179 C 
BRANCH  19  20
ATOM     20  C   UNL     1       6.863  -7.292   3.105  0.00  0.00    +0.275 C 
ATOM     21  O   UNL     1       7.935  -6.647   3.610  0.00  0.00    -0.269 OA
ATOM     22  N   UNL     1       6.839  -8.582   3.080  0.00  0.00    -0.090 NA
BRANCH  22  23
ATOM     23  S   UNL     1       8.124  -9.445   3.667  0.00  0.00    +0.102 S 
ATOM     24  O   UNL     1       9.223  -9.175   2.808  0.00  0.00    -0.146 OA
ATOM     25  O   UNL     1       8.173  -9.200   5.066  0.00  0.00    -0.146 OA
BRANCH  23  26
ATOM     26  C   UNL     1       7.738 -11.153   3.469  0.00  0.00    +0.113 A 
ATOM     27  C   UNL     1       7.078 -11.834   4.475  0.00  0.00    +0.029 A 
ATOM     28  C   UNL     1       6.775 -13.173   4.319  0.00  0.00    +0.005 A 
ATOM     29  C   UNL     1       7.133 -13.833   3.158  0.00  0.00    -0.050 A 
ATOM     30  C   UNL     1       7.793 -13.152   2.152  0.00  0.00    +0.005 A 
ATOM     31  C   UNL     1       8.092 -11.811   2.306  0.00  0.00    +0.029 A 
ATOM     32  C   UNL     1       6.804 -15.293   2.989  0.00  0.00    +0.044 C 
ENDBRANCH  23  26
ENDBRANCH  22  23
ENDBRANCH  19  20
ENDBRANCH  18  19
ENDBRANCH   5  18
TORSDOF 6
