REMARK  Name = ZINC39688453
REMARK  8 active torsions:
REMARK  status: ('A' for Active; 'I' for Inactive)
REMARK    1  A    between atoms: C_1  and  C_2
REMARK    2  A    between atoms: C_2  and  C_4
REMARK    3  A    between atoms: C_2  and  N_12
REMARK    4  A    between atoms: C_4  and  C_5
REMARK    5  A    between atoms: C_13  and  C_15
REMARK    6  A    between atoms: C_26  and  C_28
REMARK    7  A    between atoms: C_33  and  O_34
REMARK    8  A    between atoms: O_34  and  C_35
REMARK                            x       y       z     vdW  Elec       q    Type
REMARK                         _______ _______ _______ _____ _____    ______ ____
ROOT
ATOM      1  C   UNL     1       2.222  -2.470  -0.775  0.00  0.00    +0.100 C 
ATOM      2  C   UNL     1       1.083  -3.513  -0.774  0.00  0.00    +0.121 C 
ATOM      3  N   UNL     1       0.250  -3.159  -1.948  0.00  0.00    -0.296 N 
ATOM      4  C   UNL     1       1.229  -2.774  -2.992  0.00  0.00    +0.115 C 
ATOM      5  C   UNL     1       2.318  -1.990  -2.233  0.00  0.00    -0.004 C 
ATOM      6  C   UNL     1       2.041  -0.492  -2.315  0.00  0.00    -0.010 C 
ATOM      7  C   UNL     1       2.198  -0.028  -3.766  0.00  0.00    -0.082 C 
ATOM      8  N   UNL     1       3.559  -0.321  -4.231  0.00  0.00    +0.379 N 
ATOM      9  C   UNL     1       3.785  -1.771  -4.237  0.00  0.00    -0.082 C 
ATOM     10  C   UNL     1       3.695  -2.309  -2.806  0.00  0.00    -0.010 C 
ATOM     11  C   UNL     1      -1.094  -3.181  -2.044  0.00  0.00    +0.250 C 
ATOM     12  O   UNL     1      -1.634  -2.885  -3.093  0.00  0.00    -0.270 OA
ATOM     13  H   UNL     1       3.678   0.040  -5.166  0.00  0.00    -0.086 HD
ATOM     14  H   UNL     1       4.226   0.120  -3.616  0.00  0.00    -0.086 HD
ENDROOT
BRANCH  11  15
ATOM     15  C   UNL     1      -1.911  -3.563  -0.876  0.00  0.00    +0.078 A 
ATOM     16  C   UNL     1      -2.010  -2.707   0.223  0.00  0.00    +0.017 A 
ATOM     17  C   UNL     1      -2.774  -3.071   1.310  0.00  0.00    +0.001 A 
ATOM     18  C   UNL     1      -3.447  -4.282   1.318  0.00  0.00    +0.004 A 
ATOM     19  C   UNL     1      -3.358  -5.137   0.238  0.00  0.00    +0.046 A 
ATOM     20  C   UNL     1      -2.597  -4.785  -0.867  0.00  0.00    +0.132 A 
BRANCH  20  21
ATOM     21  O   UNL     1      -2.513  -5.622  -1.931  0.00  0.00    -0.494 OA
ATOM     22  C   UNL     1      -3.240  -6.850  -1.849  0.00  0.00    +0.277 C 
ENDBRANCH  20  21
ENDBRANCH  11  15
BRANCH   1  24
ATOM     23  N   UNL     1       2.832  -0.771   0.917  0.00  0.00    -0.312 N 
ATOM     24  C   UNL     1       1.880  -1.319   0.135  0.00  0.00    +0.218 C 
ATOM     25  O   UNL     1       0.748  -0.884   0.164  0.00  0.00    -0.275 OA
ATOM     26  H   UNL     1       3.715  -1.171   0.957  0.00  0.00    +0.149 HD
BRANCH  23  28
ATOM     27  C   UNL     1       3.202   1.642   1.060  0.00  0.00    +0.028 C 
ATOM     28  C   UNL     1       2.534   0.427   1.705  0.00  0.00    +0.074 C 
BRANCH  28  29
ATOM     29  C   UNL     1       3.067   0.247   3.128  0.00  0.00    +0.057 C 
BRANCH  29  30
ATOM     30  C   UNL     1       2.870  -1.183   3.562  0.00  0.00    -0.045 A 
ATOM     31  C   UNL     1       1.629  -1.608   3.998  0.00  0.00    +0.006 A 
ATOM     32  C   UNL     1       1.448  -2.919   4.396  0.00  0.00    +0.038 A 
ATOM     33  C   UNL     1       2.509  -3.807   4.356  0.00  0.00    +0.123 A 
ATOM     34  C   UNL     1       3.751  -3.380   3.918  0.00  0.00    +0.038 A 
ATOM     35  C   UNL     1       3.929  -2.070   3.517  0.00  0.00    +0.006 A 
ATOM     36  F   UNL     1       2.333  -5.089   4.745  0.00  0.00    -0.205 F 
ENDBRANCH  29  30
ENDBRANCH  28  29
ENDBRANCH  23  28
ENDBRANCH   1  24
TORSDOF 6
