REMARK  Name = ZINC20438639
REMARK  14 active torsions:
REMARK  status: ('A' for Active; 'I' for Inactive)
REMARK    1  A    between atoms: C_1  and  C_2
REMARK    2  A    between atoms: C_2  and  C_3
REMARK    3  A    between atoms: C_3  and  C_4
REMARK    4  A    between atoms: C_4  and  N_5
REMARK    5  A    between atoms: N_5  and  C_6
REMARK    6  A    between atoms: C_7  and  C_9
REMARK    7  A    between atoms: C_9  and  N_26
REMARK    8  A    between atoms: C_10  and  C_11
REMARK    9  A    between atoms: N_13  and  S_20
REMARK   10  A    between atoms: S_20  and  N_23
REMARK   11  A    between atoms: N_23  and  C_24
REMARK   12  A    between atoms: N_23  and  C_25
REMARK   13  A    between atoms: C_27  and  C_29
REMARK   14  A    between atoms: C_32  and  C_35
REMARK                            x       y       z     vdW  Elec       q    Type
REMARK                         _______ _______ _______ _____ _____    ______ ____
ROOT
ATOM      1  C   UNL     1      -1.629   2.134   0.133  0.00  0.00    +0.097 C 
ATOM      2  C   UNL     1      -0.467   1.933  -0.540  0.00  0.00    +0.038 C 
ENDROOT
BRANCH   2   3
ATOM      3  C   UNL     1       0.351   3.078  -0.947  0.00  0.00    +0.004 A 
ATOM      4  C   UNL     1      -0.040   4.385  -0.997  0.00  0.00    +0.122 A 
ATOM      5  N   UNL     1       0.994   5.157  -1.423  0.00  0.00    -0.208 N 
ATOM      6  C   UNL     1       2.106   4.377  -1.668  0.00  0.00    +0.074 A 
ATOM      7  C   UNL     1       1.761   3.047  -1.378  0.00  0.00    +0.009 A 
ATOM      8  C   UNL     1       2.699   2.031  -1.544  0.00  0.00    +0.010 A 
ATOM      9  C   UNL     1       3.969   2.339  -1.982  0.00  0.00    +0.001 A 
ATOM     10  C   UNL     1       4.312   3.653  -2.264  0.00  0.00    +0.002 A 
ATOM     11  C   UNL     1       3.393   4.667  -2.110  0.00  0.00    +0.028 A 
BRANCH   5  12
ATOM     12  S   UNL     1       0.930   6.800  -1.619  0.00  0.00    +0.123 S 
ATOM     13  O   UNL     1       1.465   7.076  -2.906  0.00  0.00    -0.136 OA
ATOM     14  O   UNL     1      -0.377   7.204  -1.234  0.00  0.00    -0.136 OA
BRANCH  12  15
ATOM     15  N   UNL     1       1.974   7.465  -0.519  0.00  0.00    -0.168 NA
ATOM     16  C   UNL     1       3.374   7.694  -0.884  0.00  0.00    +0.133 C 
ATOM     17  C   UNL     1       1.498   7.824   0.819  0.00  0.00    +0.133 C 
ENDBRANCH  12  15
ENDBRANCH   5  12
ENDBRANCH   2   3
BRANCH   1  20
ATOM     18  N   UNL     1      -3.256   0.992   1.541  0.00  0.00    -0.300 N 
ATOM     19  C   UNL     1      -3.253   2.155   2.431  0.00  0.00    +0.132 C 
ATOM     20  C   UNL     1      -2.516   1.004   0.414  0.00  0.00    +0.261 C 
ATOM     21  O   UNL     1      -2.587   0.075  -0.370  0.00  0.00    -0.269 OA
BRANCH  18  22
ATOM     22  C   UNL     1      -4.062  -0.184   1.875  0.00  0.00    +0.108 C 
BRANCH  22  23
ATOM     23  C   UNL     1      -3.228  -1.152   2.717  0.00  0.00    +0.019 C 
BRANCH  23  25
ATOM     24  C   UNL     1      -3.237  -3.348   3.908  0.00  0.00    +0.004 C 
ATOM     25  C   UNL     1      -4.071  -2.381   3.066  0.00  0.00    -0.002 C 
ENDBRANCH  23  25
ENDBRANCH  22  23
ENDBRANCH  18  22
ENDBRANCH   1  20
BRANCH   1  26
ATOM     26  N   UNL     1      -1.978   3.423   0.559  0.00  0.00    -0.277 N 
ATOM     27  C   UNL     1      -3.144   3.970   0.163  0.00  0.00    +0.248 C 
ATOM     28  O   UNL     1      -3.928   3.318  -0.499  0.00  0.00    -0.270 OA
ATOM     29  H   UNL     1      -1.301   3.988   1.216  0.00  0.00    +0.155 HD
BRANCH  27  30
ATOM     30  C   UNL     1      -3.471   5.364   0.535  0.00  0.00    +0.037 A 
ATOM     31  C   UNL     1      -2.575   6.113   1.300  0.00  0.00    +0.013 A 
ATOM     32  C   UNL     1      -2.884   7.414   1.639  0.00  0.00    +0.004 A 
ATOM     33  C   UNL     1      -4.082   7.973   1.231  0.00  0.00    -0.050 A 
ATOM     34  C   UNL     1      -4.976   7.234   0.476  0.00  0.00    +0.004 A 
ATOM     35  C   UNL     1      -4.678   5.934   0.127  0.00  0.00    +0.013 A 
ATOM     36  C   UNL     1      -4.414   9.393   1.609  0.00  0.00    +0.044 C 
ENDBRANCH  27  30
ENDBRANCH   1  26
TORSDOF 9
