REMARK  Name = ZINC33937129
REMARK  14 active torsions:
REMARK  status: ('A' for Active; 'I' for Inactive)
REMARK    1  A    between atoms: C_1  and  C_2
REMARK    2  A    between atoms: C_2  and  C_3
REMARK    3  A    between atoms: C_3  and  C_5
REMARK    4  A    between atoms: C_3  and  N_17
REMARK    5  A    between atoms: N_9  and  C_10
REMARK    6  A    between atoms: C_10  and  C_11
REMARK    7  A    between atoms: N_17  and  C_18
REMARK    8  A    between atoms: N_17  and  C_27
REMARK    9  A    between atoms: C_18  and  C_19
REMARK   10  A    between atoms: C_24  and  O_25
REMARK   11  A    between atoms: O_25  and  C_26
REMARK   12  A    between atoms: C_27  and  C_28
REMARK   13  A    between atoms: C_32  and  C_41
REMARK   14  A    between atoms: C_34  and  C_40
REMARK                            x       y       z     vdW  Elec       q    Type
REMARK                         _______ _______ _______ _____ _____    ______ ____
ROOT
ATOM      1  N   UNL     1      -2.251  -0.394   1.652  0.00  0.00    -0.284 NA
ENDROOT
BRANCH   1   2
ATOM      2  C   UNL     1      -1.862  -1.199   0.487  0.00  0.00    +0.127 C 
BRANCH   2   3
ATOM      3  C   UNL     1      -2.159  -2.651   0.757  0.00  0.00    +0.168 A 
ATOM      4  N   UNL     1      -1.898  -3.311   1.860  0.00  0.00    -0.112 NA
ATOM      5  N   UNL     1      -2.302  -4.524   1.702  0.00  0.00    -0.023 NA
ATOM      6  N   UNL     1      -2.813  -4.656   0.528  0.00  0.00    -0.044 NA
ATOM      7  N   UNL     1      -2.748  -3.521  -0.084  0.00  0.00    -0.225 N 
BRANCH   7   8
ATOM      8  C   UNL     1      -3.223  -3.235  -1.440  0.00  0.00    +0.179 C 
BRANCH   8   9
ATOM      9  C   UNL     1      -2.096  -3.499  -2.441  0.00  0.00    +0.140 C 
ATOM     10  C   UNL     1      -2.605  -3.289  -3.889  0.00  0.00    +0.035 C 
ATOM     11  C   UNL     1      -1.276  -2.961  -4.623  0.00  0.00    +0.031 C 
ATOM     12  C   UNL     1      -0.487  -2.189  -3.544  0.00  0.00    +0.160 C 
ATOM     13  O   UNL     1      -1.042  -2.539  -2.268  0.00  0.00    -0.375 OA
ENDBRANCH   8   9
ENDBRANCH   7   8
ENDBRANCH   2   3
BRANCH   2  15
ATOM     14  C   UNL     1      -0.077   0.433  -0.140  0.00  0.00    +0.006 C 
ATOM     15  C   UNL     1      -0.364  -1.025   0.224  0.00  0.00    +0.023 C 
ENDBRANCH   2  15
ENDBRANCH   1   2
BRANCH   1  16
ATOM     16  C   UNL     1      -1.214  -0.436   2.692  0.00  0.00    +0.124 C 
BRANCH  16  17
ATOM     17  C   UNL     1      -1.777   0.094   3.985  0.00  0.00    +0.008 A 
ATOM     18  C   UNL     1      -1.391   1.336   4.450  0.00  0.00    +0.008 A 
ATOM     19  C   UNL     1      -1.907   1.822   5.637  0.00  0.00    +0.001 A 
ATOM     20  C   UNL     1      -2.811   1.067   6.361  0.00  0.00    +0.004 A 
ATOM     21  C   UNL     1      -3.201  -0.175   5.901  0.00  0.00    +0.046 A 
ATOM     22  C   UNL     1      -2.688  -0.663   4.707  0.00  0.00    +0.124 A 
BRANCH  22  23
ATOM     23  O   UNL     1      -3.074  -1.883   4.249  0.00  0.00    -0.495 OA
ATOM     24  C   UNL     1      -4.016  -2.607   5.044  0.00  0.00    +0.277 C 
ENDBRANCH  22  23
ENDBRANCH  16  17
ENDBRANCH   1  16
BRANCH   1  25
ATOM     25  C   UNL     1      -2.548   0.990   1.260  0.00  0.00    +0.126 C 
BRANCH  25  26
ATOM     26  C   UNL     1      -3.913   1.050   0.624  0.00  0.00    +0.031 A 
ATOM     27  C   UNL     1      -5.001   1.327   1.384  0.00  0.00    +0.020 A 
ATOM     28  C   UNL     1      -6.313   1.378   0.735  0.00  0.00    -0.001 A 
ATOM     29  C   UNL     1      -7.471   1.659   1.466  0.00  0.00    +0.013 A 
ATOM     30  C   UNL     1      -8.680   1.700   0.831  0.00  0.00    -0.050 A 
ATOM     31  C   UNL     1      -8.769   1.466  -0.534  0.00  0.00    +0.008 A 
ATOM     32  C   UNL     1      -7.640   1.187  -1.275  0.00  0.00    -0.026 A 
ATOM     33  C   UNL     1      -6.399   1.140  -0.650  0.00  0.00    +0.052 A 
ATOM     34  N   UNL     1      -5.253   0.865  -1.366  0.00  0.00    -0.322 N 
ATOM     35  H   UNL     1      -5.314   0.701  -2.320  0.00  0.00    +0.169 HD
ATOM     36  C   UNL     1      -4.053   0.825  -0.762  0.00  0.00    +0.254 A 
ATOM     37  O   UNL     1      -3.061   0.583  -1.428  0.00  0.00    -0.268 OA
ATOM     38  C   UNL     1      -7.751   0.933  -2.756  0.00  0.00    +0.046 C 
ATOM     39  C   UNL     1      -9.928   2.003   1.619  0.00  0.00    +0.044 C 
ENDBRANCH  25  26
ENDBRANCH   1  25
TORSDOF 10
