REMARK  Name = ZINC16001309
REMARK  4 active torsions:
REMARK  status: ('A' for Active; 'I' for Inactive)
REMARK    1  A    between atoms: C_1  and  C_2
REMARK    2  A    between atoms: C_5  and  N_35
REMARK    3  A    between atoms: C_7  and  N_8
REMARK    4  A    between atoms: C_28  and  C_33
REMARK                            x       y       z     vdW  Elec       q    Type
REMARK                         _______ _______ _______ _____ _____    ______ ____
ROOT
ATOM      1  N   UNL     1      -2.373   0.420   3.927  0.00  0.00    -0.210 N 
ATOM      2  C   UNL     1      -1.463   0.013   3.034  0.00  0.00    +0.228 C 
ATOM      3  O   UNL     1      -0.501  -0.682   3.281  0.00  0.00    -0.275 OA
ATOM      4  C   UNL     1      -1.821   0.556   1.669  0.00  0.00    +0.074 C 
ATOM      5  C   UNL     1      -0.772   1.601   1.244  0.00  0.00    -0.054 C 
ATOM      6  C   UNL     1      -0.013   1.086   0.008  0.00  0.00    -0.016 C 
ATOM      7  C   UNL     1      -0.796   1.615  -1.209  0.00  0.00    -0.020 C 
ATOM      8  C   UNL     1      -1.990   2.389  -0.615  0.00  0.00    -0.076 C 
ATOM      9  N   UNL     1      -1.564   2.771   0.753  0.00  0.00    +0.395 N 
ATOM     10  C   UNL     1      -2.736   2.821   1.644  0.00  0.00    +0.053 C 
ATOM     11  C   UNL     1      -3.119   1.366   1.935  0.00  0.00    +0.089 C 
ATOM     12  C   UNL     1      -3.362   1.188   3.416  0.00  0.00    +0.229 C 
ATOM     13  O   UNL     1      -4.291   1.661   4.036  0.00  0.00    -0.275 OA
ATOM     14  C   UNL     1      -3.874   3.572   1.012  0.00  0.00    -0.027 A 
ATOM     15  C   UNL     1      -4.598   3.396  -0.146  0.00  0.00    +0.006 A 
ATOM     16  C   UNL     1      -5.616   4.276  -0.468  0.00  0.00    +0.020 A 
ATOM     17  C   UNL     1      -5.903   5.334   0.377  0.00  0.00    +0.046 A 
ATOM     18  C   UNL     1      -5.180   5.515   1.539  0.00  0.00    -0.011 A 
ATOM     19  C   UNL     1      -4.154   4.633   1.869  0.00  0.00    +0.040 A 
ATOM     20  N   UNL     1      -3.293   4.605   2.968  0.00  0.00    -0.286 N 
ATOM     21  C   UNL     1      -2.430   3.572   2.912  0.00  0.00    +0.212 C 
ATOM     22  O   UNL     1      -1.573   3.300   3.725  0.00  0.00    -0.277 OA
ATOM     23  C   UNL     1      -5.500   6.670   2.452  0.00  0.00    +0.047 C 
ATOM     24 CL   UNL     1      -7.180   6.439  -0.026  0.00  0.00    -0.083 Cl
ATOM     25  H   UNL     1      -3.373   5.375   3.750  0.00  0.00    +0.155 HD
ATOM     26  H   UNL     1      -1.045   3.740   0.743  0.00  0.00    -0.079 HD
ENDROOT
BRANCH   1  33
ATOM     27  C   UNL     1      -3.682  -1.962   4.770  0.00  0.00    +0.045 C 
ATOM     28  C   UNL     1      -2.936  -1.079   5.737  0.00  0.00    -0.028 A 
ATOM     29  C   UNL     1      -2.873  -1.418   7.075  0.00  0.00    +0.007 A 
ATOM     30  C   UNL     1      -2.189  -0.609   7.962  0.00  0.00    +0.033 A 
ATOM     31  C   UNL     1      -1.565   0.541   7.514  0.00  0.00    +0.128 A 
ATOM     32  C   UNL     1      -1.619   0.882   6.177  0.00  0.00    +0.057 A 
ATOM     33  C   UNL     1      -2.311   0.074   5.284  0.00  0.00    +0.049 A 
BRANCH  31  34
ATOM     34  N   UNL     1      -0.832   1.405   8.468  0.00  0.00    +0.056 N 
ATOM     35  O   UNL     1      -0.780   1.103   9.646  0.00  0.00    -0.126 OA
ATOM     36  O   UNL     1      -0.282   2.417   8.073  0.00  0.00    -0.126 OA
ENDBRANCH  31  34
ENDBRANCH   1  33
TORSDOF 2
