REMARK  Name = ZINC13065042
REMARK  11 active torsions:
REMARK  status: ('A' for Active; 'I' for Inactive)
REMARK    1  A    between atoms: C_1  and  C_2
REMARK    2  A    between atoms: C_2  and  C_3
REMARK    3  A    between atoms: C_3  and  C_5
REMARK    4  A    between atoms: C_3  and  N_75
REMARK    5  A    between atoms: N_9  and  C_10
REMARK    6  A    between atoms: C_16  and  C_17
REMARK    7  A    between atoms: C_16  and  N_75
REMARK    8  A    between atoms: C_26  and  C_27
REMARK    9  A    between atoms: C_26  and  N_75
REMARK   10  A    between atoms: C_32  and  C_40
REMARK   11  A    between atoms: C_33  and  C_39
REMARK                            x       y       z     vdW  Elec       q    Type
REMARK                         _______ _______ _______ _____ _____    ______ ____
ROOT
ATOM      1  N   UNL     1       0.866   3.901   1.241  0.00  0.00    +0.392 N 
ATOM      2  H   UNL     1       0.943   3.497   2.181  0.00  0.00    -0.080 HD
ENDROOT
BRANCH   1   3
ATOM      3  C   UNL     1       1.723   3.131   0.315  0.00  0.00    +0.003 C 
BRANCH   3   4
ATOM      4  C   UNL     1       1.805   3.818  -1.024  0.00  0.00    +0.138 A 
ATOM      5  N   UNL     1       1.995   5.098  -1.237  0.00  0.00    -0.115 NA
ATOM      6  N   UNL     1       2.004   5.292  -2.510  0.00  0.00    -0.023 NA
ATOM      7  N   UNL     1       1.824   4.170  -3.116  0.00  0.00    -0.044 NA
ATOM      8  N   UNL     1       1.697   3.237  -2.233  0.00  0.00    -0.228 N 
BRANCH   8   9
ATOM      9  C   UNL     1       1.478   1.813  -2.498  0.00  0.00    +0.111 C 
ATOM     10  C   UNL     1       2.645   1.261  -3.319  0.00  0.00    +0.027 C 
ATOM     11  C   UNL     1       2.415  -0.226  -3.595  0.00  0.00    +0.002 C 
ATOM     12  C   UNL     1       1.112  -0.405  -4.377  0.00  0.00    +0.000 C 
ATOM     13  C   UNL     1      -0.055   0.147  -3.556  0.00  0.00    +0.002 C 
ATOM     14  C   UNL     1       0.174   1.635  -3.280  0.00  0.00    +0.027 C 
ENDBRANCH   8   9
ENDBRANCH   3   4
BRANCH   3  16
ATOM     15  C   UNL     1       3.050   2.264   2.245  0.00  0.00    +0.002 C 
ATOM     16  C   UNL     1       3.125   3.020   0.918  0.00  0.00    -0.011 C 
ENDBRANCH   3  16
ENDBRANCH   1   3
BRANCH   1  17
ATOM     17  C   UNL     1      -0.544   3.830   0.802  0.00  0.00    -0.041 C 
BRANCH  17  18
ATOM     18  C   UNL     1      -1.069   2.445   1.081  0.00  0.00    -0.060 A 
ATOM     19  C   UNL     1      -0.984   1.466   0.109  0.00  0.00    +0.005 A 
ATOM     20  C   UNL     1      -1.459   0.193   0.362  0.00  0.00    +0.050 A 
ATOM     21  C   UNL     1      -2.032  -0.102   1.589  0.00  0.00    +0.166 A 
ATOM     22  C   UNL     1      -2.122   0.886   2.567  0.00  0.00    +0.166 A 
ATOM     23  C   UNL     1      -1.638   2.158   2.308  0.00  0.00    +0.051 A 
ATOM     24  O   UNL     1      -2.718   0.352   3.672  0.00  0.00    -0.453 OA
ATOM     25  C   UNL     1      -3.361  -0.854   3.218  0.00  0.00    +0.466 C 
ATOM     26  O   UNL     1      -2.572  -1.254   2.082  0.00  0.00    -0.453 OA
ENDBRANCH  17  18
ENDBRANCH   1  17
BRANCH   1  27
ATOM     27  C   UNL     1       1.309   5.311   1.286  0.00  0.00    -0.036 C 
BRANCH  27  28
ATOM     28  C   UNL     1       0.715   5.966   2.506  0.00  0.00    +0.001 A 
ATOM     29  C   UNL     1       1.423   6.013   3.661  0.00  0.00    +0.017 A 
ATOM     30  C   UNL     1       0.819   6.660   4.827  0.00  0.00    -0.001 A 
ATOM     31  C   UNL     1       1.503   6.745   6.043  0.00  0.00    +0.010 A 
ATOM     32  C   UNL     1       0.909   7.351   7.114  0.00  0.00    +0.004 A 
ATOM     33  C   UNL     1      -0.368   7.884   7.005  0.00  0.00    -0.046 A 
ATOM     34  C   UNL     1      -1.060   7.813   5.816  0.00  0.00    -0.024 A 
ATOM     35  C   UNL     1      -0.476   7.200   4.712  0.00  0.00    +0.052 A 
ATOM     36  N   UNL     1      -1.146   7.115   3.510  0.00  0.00    -0.322 N 
ATOM     37  H   UNL     1      -2.038   7.488   3.433  0.00  0.00    +0.169 HD
ATOM     38  C   UNL     1      -0.581   6.523   2.444  0.00  0.00    +0.251 A 
ATOM     39  O   UNL     1      -1.202   6.466   1.397  0.00  0.00    -0.268 OA
ATOM     40  C   UNL     1      -2.446   8.397   5.711  0.00  0.00    +0.046 C 
ATOM     41  C   UNL     1      -1.003   8.549   8.199  0.00  0.00    +0.044 C 
ENDBRANCH  27  28
ENDBRANCH   1  27
TORSDOF 8
