REMARK  Name = ZINC09234671
REMARK  13 active torsions:
REMARK  status: ('A' for Active; 'I' for Inactive)
REMARK    1  A    between atoms: C_1  and  C_2
REMARK    2  A    between atoms: C_6  and  C_31
REMARK    3  A    between atoms: C_6  and  C_32
REMARK    4  A    between atoms: C_13  and  C_15
REMARK    5  A    between atoms: C_15  and  C_16
REMARK    6  A    between atoms: C_16  and  C_17
REMARK    7  A    between atoms: C_21  and  C_22
REMARK    8  A    between atoms: C_22  and  N_74
REMARK    9  A    between atoms: C_23  and  C_24
REMARK   10  A    between atoms: C_23  and  N_74
REMARK   11  A    between atoms: C_24  and  C_25
REMARK   12  A    between atoms: C_32  and  O_34
REMARK   13  A    between atoms: O_34  and  C_35
REMARK                            x       y       z     vdW  Elec       q    Type
REMARK                         _______ _______ _______ _____ _____    ______ ____
ROOT
ATOM      1  C   UNL     1      -0.835   2.003   1.226  0.00  0.00    +0.013 C 
ENDROOT
BRANCH   1  13
ATOM      2  C   UNL     1      -2.569   3.351   3.006  0.00  0.00    +0.012 C 
ATOM      3  C   UNL     1      -1.208   3.985   2.723  0.00  0.00    -0.022 C 
ATOM      4  C   UNL     1      -0.185   3.478   3.742  0.00  0.00    +0.007 C 
ATOM      5  C   UNL     1      -0.506   4.031   5.129  0.00  0.00    +0.002 C 
ATOM      6  C   UNL     1      -0.407   5.552   5.103  0.00  0.00    +0.018 C 
ATOM      7  C   UNL     1      -1.380   6.154   4.090  0.00  0.00    +0.068 C 
ATOM      8  C   UNL     1      -1.258   5.505   2.726  0.00  0.00    +0.012 C 
ATOM      9  C   UNL     1      -2.327   6.018   1.761  0.00  0.00    +0.009 C 
ATOM     10  C   UNL     1      -1.932   5.627   0.329  0.00  0.00    +0.031 C 
ATOM     11  C   UNL     1      -1.671   4.139   0.288  0.00  0.00    -0.073 C 
ATOM     12  C   UNL     1      -2.229   3.389  -0.634  0.00  0.00    +0.008 C 
ATOM     13  C   UNL     1      -0.752   3.527   1.321  0.00  0.00    +0.021 C 
ATOM     14  C   UNL     1      -2.804   6.092   4.641  0.00  0.00    +0.023 C 
BRANCH   7  15
ATOM     15  C   UNL     1      -1.009   7.626   3.957  0.00  0.00    +0.313 C 
ATOM     16  O   UNL     1      -0.689   8.073   2.882  0.00  0.00    -0.250 OA
BRANCH  15  17
ATOM     17  O   UNL     1      -1.039   8.425   5.035  0.00  0.00    -0.468 OA
ATOM     18  C   UNL     1      -0.673   9.816   4.835  0.00  0.00    +0.280 C 
ENDBRANCH  15  17
ENDBRANCH   7  15
ENDBRANCH   1  13
BRANCH   1  19
ATOM     19  C   UNL     1      -0.107   1.531  -0.034  0.00  0.00    +0.039 C 
BRANCH  19  20
ATOM     20  C   UNL     1      -0.072   0.024  -0.059  0.00  0.00    -0.008 A 
ATOM     21  C   UNL     1       0.981  -0.802   0.397  0.00  0.00    +0.045 A 
ATOM     22  C   UNL     1       0.595  -2.074   0.192  0.00  0.00    +0.195 A 
ATOM     23  O   UNL     1      -0.624  -2.062  -0.371  0.00  0.00    -0.469 OA
ATOM     24  C   UNL     1      -1.034  -0.792  -0.525  0.00  0.00    +0.091 A 
BRANCH  24  25
ATOM     25  C   UNL     1      -2.348  -0.356  -1.120  0.00  0.00    -0.007 C 
BRANCH  25  26
ATOM     26  N   UNL     1      -2.185  -0.183  -2.576  0.00  0.00    +0.384 N 
ATOM     27  H   UNL     1      -1.892  -1.074  -2.993  0.00  0.00    -0.085 HD
ATOM     28  H   UNL     1      -1.468   0.530  -2.754  0.00  0.00    -0.085 HD
BRANCH  26  29
ATOM     29  C   UNL     1      -3.459   0.244  -3.186  0.00  0.00    -0.077 C 
BRANCH  29  30
ATOM     30  C   UNL     1      -3.259   0.416  -4.694  0.00  0.00    +0.016 C 
BRANCH  30  31
ATOM     31  C   UNL     1      -4.556   0.853  -5.325  0.00  0.00    -0.049 A 
ATOM     32  C   UNL     1      -5.451  -0.092  -5.790  0.00  0.00    +0.003 A 
ATOM     33  C   UNL     1      -6.643   0.308  -6.365  0.00  0.00    +0.000 A 
ATOM     34  C   UNL     1      -6.935   1.654  -6.484  0.00  0.00    +0.000 A 
ATOM     35  C   UNL     1      -6.037   2.599  -6.024  0.00  0.00    +0.000 A 
ATOM     36  C   UNL     1      -4.848   2.199  -5.444  0.00  0.00    +0.003 A 
ENDBRANCH  30  31
ENDBRANCH  29  30
ENDBRANCH  26  29
ENDBRANCH  25  26
ENDBRANCH  24  25
ENDBRANCH  19  20
ENDBRANCH   1  19
TORSDOF 10
