REMARK  Name = ZINC01325141
REMARK  13 active torsions:
REMARK  status: ('A' for Active; 'I' for Inactive)
REMARK    1  A    between atoms: C_1  and  C_2
REMARK    2  A    between atoms: C_2  and  C_3
REMARK    3  A    between atoms: C_3  and  C_5
REMARK    4  A    between atoms: C_3  and  N_15
REMARK    5  A    between atoms: N_9  and  C_10
REMARK    6  A    between atoms: C_10  and  C_11
REMARK    7  A    between atoms: C_10  and  C_12
REMARK    8  A    between atoms: C_10  and  C_13
REMARK    9  A    between atoms: C_13  and  C_14
REMARK   10  A    between atoms: N_15  and  C_16
REMARK   11  A    between atoms: N_15  and  C_24
REMARK   12  A    between atoms: C_16  and  C_17
REMARK   13  A    between atoms: C_24  and  C_25
REMARK                            x       y       z     vdW  Elec       q    Type
REMARK                         _______ _______ _______ _____ _____    ______ ____
ROOT
ATOM      1  N   UNL     1      -2.708   0.473  -1.522  0.00  0.00    -0.284 NA
ENDROOT
BRANCH   1   2
ATOM      2  C   UNL     1      -2.319  -0.660  -0.672  0.00  0.00    +0.127 C 
BRANCH   2   3
ATOM      3  C   UNL     1      -0.827  -0.855  -0.746  0.00  0.00    +0.169 A 
ATOM      4  N   UNL     1       0.079   0.082  -0.888  0.00  0.00    -0.112 NA
ATOM      5  N   UNL     1       1.236  -0.483  -0.907  0.00  0.00    -0.023 NA
ATOM      6  N   UNL     1       1.093  -1.756  -0.780  0.00  0.00    -0.043 NA
ATOM      7  N   UNL     1      -0.164  -2.024  -0.673  0.00  0.00    -0.222 N 
BRANCH   7   8
ATOM      8  C   UNL     1      -0.759  -3.353  -0.506  0.00  0.00    +0.061 C 
ATOM      9  C   UNL     1      -1.687  -3.347   0.711  0.00  0.00    +0.036 C 
ATOM     10  C   UNL     1      -1.562  -3.713  -1.758  0.00  0.00    +0.036 C 
BRANCH   8  11
ATOM     11  C   UNL     1       0.350  -4.386  -0.296  0.00  0.00    +0.026 C 
ATOM     12  C   UNL     1      -0.272  -5.773  -0.122  0.00  0.00    +0.006 C 
ENDBRANCH   8  11
ENDBRANCH   7   8
ENDBRANCH   2   3
BRANCH   2  14
ATOM     13  C   UNL     1      -4.240  -0.171   0.849  0.00  0.00    +0.006 C 
ATOM     14  C   UNL     1      -2.725  -0.375   0.775  0.00  0.00    +0.023 C 
ENDBRANCH   2  14
ENDBRANCH   1   2
BRANCH   1  15
ATOM     15  C   UNL     1      -4.090   0.325  -1.998  0.00  0.00    +0.120 C 
BRANCH  15  16
ATOM     16  C   UNL     1      -4.320   1.245  -3.168  0.00  0.00    -0.033 A 
ATOM     17  C   UNL     1      -4.832   2.512  -2.961  0.00  0.00    +0.008 A 
ATOM     18  C   UNL     1      -5.043   3.357  -4.034  0.00  0.00    +0.038 A 
ATOM     19  C   UNL     1      -4.741   2.934  -5.317  0.00  0.00    +0.123 A 
ATOM     20  C   UNL     1      -4.228   1.665  -5.524  0.00  0.00    +0.038 A 
ATOM     21  C   UNL     1      -4.013   0.824  -4.449  0.00  0.00    +0.008 A 
ATOM     22  F   UNL     1      -4.947   3.759  -6.367  0.00  0.00    -0.205 F 
ENDBRANCH  15  16
ENDBRANCH   1  15
BRANCH   1  23
ATOM     23  C   UNL     1      -2.529   1.748  -0.814  0.00  0.00    +0.126 C 
BRANCH  23  24
ATOM     24  C   UNL     1      -1.089   2.182  -0.918  0.00  0.00    +0.031 A 
ATOM     25  C   UNL     1      -0.627   2.721  -2.075  0.00  0.00    +0.020 A 
ATOM     26  C   UNL     1       0.774   3.132  -2.143  0.00  0.00    +0.003 A 
ATOM     27  C   UNL     1       1.306   3.693  -3.311  0.00  0.00    +0.059 A 
ATOM     28  C   UNL     1       2.631   4.074  -3.346  0.00  0.00    +0.163 A 
ATOM     29  C   UNL     1       3.443   3.901  -2.221  0.00  0.00    +0.164 A 
ATOM     30  C   UNL     1       2.926   3.345  -1.063  0.00  0.00    +0.075 A 
ATOM     31  C   UNL     1       1.594   2.957  -1.012  0.00  0.00    +0.053 A 
ATOM     32  N   UNL     1       1.062   2.401   0.134  0.00  0.00    -0.322 N 
ATOM     33  H   UNL     1       1.627   2.280   0.914  0.00  0.00    +0.169 HD
ATOM     34  C   UNL     1      -0.229   2.031   0.189  0.00  0.00    +0.254 A 
ATOM     35  O   UNL     1      -0.666   1.548   1.219  0.00  0.00    -0.268 OA
ATOM     36  O   UNL     1       4.749   4.281  -2.245  0.00  0.00    -0.485 OA
ATOM     37  C   UNL     1       5.336   4.489  -3.534  0.00  0.00    +0.270 C 
ATOM     38  C   UNL     1       4.368   5.333  -4.373  0.00  0.00    +0.270 C 
ATOM     39  O   UNL     1       3.134   4.615  -4.490  0.00  0.00    -0.485 OA
ENDBRANCH  23  24
ENDBRANCH   1  23
TORSDOF 9
