REMARK  Name = ZINC01890826
REMARK  10 active torsions:
REMARK  status: ('A' for Active; 'I' for Inactive)
REMARK    1  A    between atoms: C_1  and  C_2
REMARK    2  A    between atoms: C_3  and  C_32
REMARK    3  A    between atoms: C_5  and  N_23
REMARK    4  A    between atoms: C_6  and  C_7
REMARK    5  A    between atoms: C_7  and  C_9
REMARK    6  A    between atoms: C_7  and  N_17
REMARK    7  A    between atoms: C_14  and  O_15
REMARK    8  A    between atoms: O_15  and  C_16
REMARK    9  A    between atoms: N_17  and  C_18
REMARK   10  A    between atoms: C_24  and  C_26
REMARK                            x       y       z     vdW  Elec       q    Type
REMARK                         _______ _______ _______ _____ _____    ______ ____
ROOT
ATOM      1  C   UNL     1       7.565   1.327  -0.063  0.00  0.00    +0.138 C 
ENDROOT
BRANCH   1   7
ATOM      2  C   UNL     1       9.820  -0.518  -0.092  0.00  0.00    +0.045 C 
ATOM      3  C   UNL     1       8.406  -1.038  -0.082  0.00  0.00    -0.033 A 
ATOM      4  C   UNL     1       8.165  -2.372  -0.086  0.00  0.00    -0.008 A 
ATOM      5  S   UNL     1       6.381  -2.429  -0.062  0.00  0.00    -0.078 S 
ATOM      6  C   UNL     1       6.072  -0.670  -0.059  0.00  0.00    +0.078 A 
ATOM      7  C   UNL     1       7.336  -0.162  -0.068  0.00  0.00    +0.009 A 
ATOM      8  C   UNL     1       9.149  -3.513  -0.101  0.00  0.00    +0.052 C 
BRANCH   6   9
ATOM      9  N   UNL     1       4.851   0.008  -0.044  0.00  0.00    -0.276 N 
ATOM     10  C   UNL     1       3.695  -0.684  -0.036  0.00  0.00    +0.249 C 
ATOM     11  O   UNL     1       3.715  -1.900  -0.043  0.00  0.00    -0.270 OA
ATOM     12  H   UNL     1       4.836   0.978  -0.039  0.00  0.00    +0.156 HD
BRANCH  10  13
ATOM     13  C   UNL     1       2.404   0.034  -0.021  0.00  0.00    +0.037 A 
ATOM     14  C   UNL     1       1.204  -0.681  -0.013  0.00  0.00    +0.013 A 
ATOM     15  C   UNL     1       0.002  -0.004   0.002  0.00  0.00    +0.001 A 
ATOM     16  C   UNL     1      -0.017   1.379   0.010  0.00  0.00    +0.000 A 
ATOM     17  C   UNL     1       1.168   2.094   0.002  0.00  0.00    +0.001 A 
ATOM     18  C   UNL     1       2.377   1.429  -0.013  0.00  0.00    +0.013 A 
ENDBRANCH  10  13
ENDBRANCH   6   9
ENDBRANCH   1   7
BRANCH   1  19
ATOM     19  C   UNL     1       7.290   1.873   1.314  0.00  0.00    +0.019 A 
ATOM     20  C   UNL     1       6.047   2.396   1.616  0.00  0.00    +0.009 A 
ATOM     21  C   UNL     1       5.795   2.897   2.879  0.00  0.00    +0.001 A 
ATOM     22  C   UNL     1       6.785   2.877   3.844  0.00  0.00    +0.004 A 
ATOM     23  C   UNL     1       8.030   2.356   3.548  0.00  0.00    +0.046 A 
ATOM     24  C   UNL     1       8.284   1.847   2.282  0.00  0.00    +0.125 A 
BRANCH  24  25
ATOM     25  O   UNL     1       9.505   1.329   1.989  0.00  0.00    -0.495 OA
ATOM     26  C   UNL     1      10.480   1.334   3.034  0.00  0.00    +0.277 C 
ENDBRANCH  24  25
ENDBRANCH   1  19
BRANCH   1  27
ATOM     27  N   UNL     1       6.664   1.962  -1.029  0.00  0.00    -0.319 N 
ATOM     28  H   UNL     1       5.832   1.528  -1.274  0.00  0.00    +0.148 HD
BRANCH  27  29
ATOM     29  C   UNL     1       7.002   3.187  -1.592  0.00  0.00    +0.097 A 
ATOM     30  C   UNL     1       8.196   3.805  -1.236  0.00  0.00    +0.041 A 
ATOM     31  C   UNL     1       8.520   5.023  -1.804  0.00  0.00    +0.005 A 
ATOM     32  C   UNL     1       7.634   5.586  -2.714  0.00  0.00    +0.018 A 
ATOM     33  C   UNL     1       6.466   4.918  -3.022  0.00  0.00    +0.084 A 
ATOM     34  N   UNL     1       6.119   3.716  -2.488  0.00  0.00    -0.350 N 
ATOM     35  H   UNL     1       5.247   3.238  -2.743  0.00  0.00    +0.166 HD
ENDBRANCH  27  29
ENDBRANCH   1  27
TORSDOF 7
