REMARK  Name = ZINC54201575
REMARK  7 active torsions:
REMARK  status: ('A' for Active; 'I' for Inactive)
REMARK    1  A    between atoms: C_1  and  N_2
REMARK    2  A    between atoms: N_2  and  C_3
REMARK    3  A    between atoms: N_2  and  C_4
REMARK    4  A    between atoms: C_7  and  C_10
REMARK    5  A    between atoms: C_13  and  C_31
REMARK    6  A    between atoms: C_21  and  C_22
REMARK    7  A    between atoms: C_27  and  O_28
REMARK                            x       y       z     vdW  Elec       q    Type
REMARK                         _______ _______ _______ _____ _____    ______ ____
ROOT
ATOM      1  C   UNL     1       0.190  -3.410  -5.170  0.00  0.00    +0.136 C 
ATOM      2  C   UNL     1      -1.194  -3.556  -5.833  0.00  0.00    +0.087 C 
ATOM      3  C   UNL     1      -1.059  -2.795  -7.132  0.00  0.00    +0.069 C 
ATOM      4  N   UNL     1       0.131  -2.307  -7.223  0.00  0.00    -0.182 NA
ATOM      5  N   UNL     1       0.955  -2.603  -6.135  0.00  0.00    -0.195 N 
ATOM      6  C   UNL     1       2.258  -2.208  -5.987  0.00  0.00    +0.174 C 
ATOM      7  N   UNL     1       3.085  -2.461  -4.984  0.00  0.00    -0.152 NA
ATOM      8  C   UNL     1       4.322  -2.020  -4.962  0.00  0.00    +0.276 C 
ATOM      9  O   UNL     1       5.075  -2.260  -4.032  0.00  0.00    -0.267 OA
ATOM     10  C   UNL     1       4.754  -1.215  -6.128  0.00  0.00    +0.080 C 
ATOM     11  C   UNL     1       5.953  -0.632  -6.388  0.00  0.00    +0.032 C 
ATOM     12  S   UNL     1       3.255  -1.233  -7.103  0.00  0.00    -0.050 S 
ENDROOT
BRANCH  11  13
ATOM     13  C   UNL     1       6.200  -0.012  -7.694  0.00  0.00    +0.019 A 
ATOM     14  C   UNL     1       5.389  -0.331  -8.790  0.00  0.00    +0.031 A 
ATOM     15  C   UNL     1       5.628   0.257 -10.014  0.00  0.00    +0.042 A 
ATOM     16  C   UNL     1       6.667   1.162 -10.165  0.00  0.00    +0.023 A 
ATOM     17  C   UNL     1       7.475   1.485  -9.092  0.00  0.00    +0.047 A 
ATOM     18  C   UNL     1       7.248   0.910  -7.852  0.00  0.00    +0.124 A 
ATOM     19 CL   UNL     1       4.622  -0.139 -11.373  0.00  0.00    -0.084 Cl
BRANCH  18  20
ATOM     20  O   UNL     1       8.038   1.232  -6.796  0.00  0.00    -0.506 OA
ATOM     21  H   UNL     1       8.815   0.666  -6.700  0.00  0.00    +0.292 HD
ENDBRANCH  18  20
ENDBRANCH  11  13
BRANCH   1  25
ATOM     22  C   UNL     1      -0.139  -1.369  -1.430  0.00  0.00    +0.029 A 
ATOM     23  C   UNL     1       0.011  -2.749  -1.458  0.00  0.00    +0.023 A 
ATOM     24  C   UNL     1       0.116  -3.406  -2.669  0.00  0.00    +0.007 A 
ATOM     25  C   UNL     1       0.073  -2.690  -3.851  0.00  0.00    -0.025 A 
ATOM     26  C   UNL     1      -0.075  -1.316  -3.826  0.00  0.00    +0.007 A 
ATOM     27  C   UNL     1      -0.187  -0.654  -2.619  0.00  0.00    +0.023 A 
BRANCH  22  29
ATOM     28  C   UNL     1      -0.410   0.754  -0.179  0.00  0.00    +0.129 C 
ATOM     29  N   UNL     1      -0.246  -0.702  -0.207  0.00  0.00    -0.336 N 
ATOM     30  C   UNL     1      -0.195  -1.458   1.047  0.00  0.00    +0.129 C 
ENDBRANCH  22  29
ENDBRANCH   1  25
BRANCH   3  31
ATOM     31  C   UNL     1      -2.123  -2.634  -8.140  0.00  0.00    -0.002 A 
ATOM     32  C   UNL     1      -3.381  -3.206  -7.929  0.00  0.00    +0.010 A 
ATOM     33  C   UNL     1      -4.372  -3.052  -8.876  0.00  0.00    +0.001 A 
ATOM     34  C   UNL     1      -4.123  -2.334 -10.032  0.00  0.00    +0.000 A 
ATOM     35  C   UNL     1      -2.880  -1.766 -10.248  0.00  0.00    +0.001 A 
ATOM     36  C   UNL     1      -1.881  -1.906  -9.307  0.00  0.00    +0.010 A 
ENDBRANCH   3  31
TORSDOF 5
