REMARK  Name = ZINC13499483
REMARK  12 active torsions:
REMARK  status: ('A' for Active; 'I' for Inactive)
REMARK    1  A    between atoms: C_1  and  C_2
REMARK    2  A    between atoms: C_2  and  C_3
REMARK    3  A    between atoms: C_3  and  C_4
REMARK    4  A    between atoms: C_4  and  C_6
REMARK    5  A    between atoms: C_4  and  N_76
REMARK    6  A    between atoms: N_10  and  C_11
REMARK    7  A    between atoms: C_11  and  C_12
REMARK    8  A    between atoms: C_18  and  C_19
REMARK    9  A    between atoms: C_18  and  N_76
REMARK   10  A    between atoms: C_23  and  C_32
REMARK   11  A    between atoms: C_24  and  C_31
REMARK   12  A    between atoms: C_33  and  N_76
REMARK                            x       y       z     vdW  Elec       q    Type
REMARK                         _______ _______ _______ _____ _____    ______ ____
ROOT
ATOM      1  N   UNL     1       5.834  -3.188   1.522  0.00  0.00    +0.391 N 
ATOM      2  H   UNL     1       5.217  -3.615   2.222  0.00  0.00    -0.080 HD
ENDROOT
BRANCH   1   3
ATOM      3  C   UNL     1       6.426  -1.958   2.089  0.00  0.00    -0.067 C 
ATOM      4  C   UNL     1       7.663  -2.324   2.912  0.00  0.00    -0.015 C 
ATOM      5  C   UNL     1       8.262  -1.056   3.524  0.00  0.00    -0.002 C 
ATOM      6  C   UNL     1       7.225  -0.388   4.430  0.00  0.00    -0.000 C 
ATOM      7  C   UNL     1       5.989  -0.022   3.607  0.00  0.00    -0.002 C 
ATOM      8  C   UNL     1       5.390  -1.291   2.995  0.00  0.00    -0.015 C 
ENDBRANCH   1   3
BRANCH   1   9
ATOM      9  C   UNL     1       6.902  -4.148   1.172  0.00  0.00    +0.003 C 
BRANCH   9  10
ATOM     10  C   UNL     1       6.307  -5.532   1.118  0.00  0.00    +0.138 A 
ATOM     11  N   UNL     1       5.202  -5.885   0.507  0.00  0.00    -0.115 NA
ATOM     12  N   UNL     1       5.033  -7.149   0.691  0.00  0.00    -0.023 NA
ATOM     13  N   UNL     1       6.001  -7.611   1.403  0.00  0.00    -0.044 NA
ATOM     14  N   UNL     1       6.810  -6.646   1.682  0.00  0.00    -0.228 N 
BRANCH  14  15
ATOM     15  C   UNL     1       8.043  -6.743   2.467  0.00  0.00    +0.178 C 
BRANCH  15  16
ATOM     16  C   UNL     1       7.726  -6.504   3.945  0.00  0.00    +0.140 C 
ATOM     17  C   UNL     1       9.033  -6.490   4.765  0.00  0.00    +0.035 C 
ATOM     18  C   UNL     1       8.618  -7.240   6.060  0.00  0.00    +0.031 C 
ATOM     19  C   UNL     1       7.606  -8.267   5.493  0.00  0.00    +0.160 C 
ATOM     20  O   UNL     1       6.912  -7.571   4.446  0.00  0.00    -0.375 OA
ENDBRANCH  15  16
ENDBRANCH  14  15
ENDBRANCH   9  10
BRANCH   9  21
ATOM     21  C   UNL     1       7.510  -3.801  -0.188  0.00  0.00    -0.008 C 
BRANCH  21  23
ATOM     22  C   UNL     1       9.031  -2.226  -1.391  0.00  0.00    +0.004 C 
ATOM     23  C   UNL     1       8.299  -2.495  -0.075  0.00  0.00    -0.005 C 
ENDBRANCH  21  23
ENDBRANCH   9  21
ENDBRANCH   1   9
BRANCH   1  24
ATOM     24  C   UNL     1       5.039  -2.858   0.320  0.00  0.00    -0.036 C 
BRANCH  24  25
ATOM     25  C   UNL     1       3.752  -2.207   0.756  0.00  0.00    +0.001 A 
ATOM     26  C   UNL     1       3.599  -0.865   0.636  0.00  0.00    +0.017 A 
ATOM     27  C   UNL     1       2.336  -0.264   1.069  0.00  0.00    -0.001 A 
ATOM     28  C   UNL     1       2.120   1.115   0.971  0.00  0.00    +0.013 A 
ATOM     29  C   UNL     1       0.930   1.645   1.383  0.00  0.00    -0.047 A 
ATOM     30  C   UNL     1      -0.066   0.827   1.900  0.00  0.00    -0.046 A 
ATOM     31  C   UNL     1       0.125  -0.533   2.006  0.00  0.00    +0.030 A 
ATOM     32  C   UNL     1       1.328  -1.096   1.592  0.00  0.00    +0.049 A 
ATOM     33  N   UNL     1       1.546  -2.454   1.688  0.00  0.00    -0.322 N 
ATOM     34  H   UNL     1       0.851  -3.026   2.048  0.00  0.00    +0.169 HD
ATOM     35  C   UNL     1       2.709  -2.997   1.287  0.00  0.00    +0.251 A 
ATOM     36  O   UNL     1       2.868  -4.201   1.386  0.00  0.00    -0.268 OA
ATOM     37  C   UNL     1      -1.373   1.433   2.343  0.00  0.00    +0.044 C 
ATOM     38  C   UNL     1       0.697   3.130   1.277  0.00  0.00    +0.044 C 
ENDBRANCH  24  25
ENDBRANCH   1  24
TORSDOF 9
