REMARK  Name = ZINC09416791
REMARK  7 active torsions:
REMARK  status: ('A' for Active; 'I' for Inactive)
REMARK    1  A    between atoms: C_1  and  C_2
REMARK    2  A    between atoms: C_3  and  N_14
REMARK    3  A    between atoms: C_4  and  C_13
REMARK    4  A    between atoms: N_5  and  C_7
REMARK    5  A    between atoms: C_15  and  C_17
REMARK    6  A    between atoms: C_17  and  N_67
REMARK    7  A    between atoms: C_20  and  C_23
REMARK                            x       y       z     vdW  Elec       q    Type
REMARK                         _______ _______ _______ _____ _____    ______ ____
ROOT
ATOM      1  N   UNL     1       4.517   8.704   0.711  0.00  0.00    -0.284 N 
ATOM      2  C   UNL     1       3.582   9.665   0.572  0.00  0.00    +0.201 C 
ATOM      3  O   UNL     1       3.725  10.534  -0.263  0.00  0.00    -0.278 OA
ATOM      4  H   UNL     1       4.386   7.988   1.352  0.00  0.00    +0.155 HD
ENDROOT
BRANCH   1   7
ATOM      5  C   UNL     1       5.978  11.314  -0.161  0.00  0.00    +0.069 C 
ATOM      6  C   UNL     1       6.369   9.895  -0.485  0.00  0.00    +0.082 A 
ATOM      7  C   UNL     1       5.686   8.741  -0.073  0.00  0.00    +0.078 A 
ATOM      8  C   UNL     1       6.348   7.665  -0.571  0.00  0.00    +0.063 A 
ATOM      9  N   UNL     1       7.421   8.131  -1.267  0.00  0.00    -0.235 N 
ATOM     10  N   UNL     1       7.404   9.530  -1.197  0.00  0.00    -0.170 NA
ATOM     11  C   UNL     1       5.966   6.220  -0.386  0.00  0.00    +0.068 C 
BRANCH   9  12
ATOM     12  C   UNL     1       8.370   7.350  -1.939  0.00  0.00    +0.066 A 
ATOM     13  C   UNL     1       8.929   7.803  -3.127  0.00  0.00    +0.028 A 
ATOM     14  C   UNL     1       9.865   7.030  -3.787  0.00  0.00    +0.002 A 
ATOM     15  C   UNL     1      10.246   5.808  -3.266  0.00  0.00    +0.000 A 
ATOM     16  C   UNL     1       9.691   5.354  -2.083  0.00  0.00    +0.002 A 
ATOM     17  C   UNL     1       8.755   6.121  -1.419  0.00  0.00    +0.028 A 
ENDBRANCH   9  12
ENDBRANCH   1   7
BRANCH   2  18
ATOM     18  C   UNL     1       2.359   9.659   1.452  0.00  0.00    +0.019 C 
BRANCH  18  24
ATOM     19  C   UNL     1       0.256  10.791   1.848  0.00  0.00    -0.077 C 
ATOM     20  C   UNL     1      -0.581  12.011   1.457  0.00  0.00    -0.006 C 
ATOM     21  C   UNL     1       0.139  13.284   1.908  0.00  0.00    +0.072 C 
ATOM     22  C   UNL     1       1.530  13.328   1.271  0.00  0.00    -0.006 C 
ATOM     23  C   UNL     1       2.307  12.070   1.667  0.00  0.00    -0.077 C 
ATOM     24  N   UNL     1       1.574  10.881   1.183  0.00  0.00    +0.385 N 
ATOM     25  H   UNL     1       1.430  10.968   0.170  0.00  0.00    -0.081 HD
BRANCH  21  26
ATOM     26  C   UNL     1      -0.652  14.491   1.473  0.00  0.00    +0.219 C 
ATOM     27  O   UNL     1      -0.220  15.219   0.605  0.00  0.00    -0.275 OA
ATOM     28  N   UNL     1      -1.840  14.762   2.050  0.00  0.00    -0.301 N 
ATOM     29  C   UNL     1      -2.625  15.862   1.536  0.00  0.00    +0.108 C 
ATOM     30  C   UNL     1      -2.239  17.168   2.262  0.00  0.00    +0.019 C 
ATOM     31  C   UNL     1      -2.731  17.144   3.648  0.00  0.00    +0.002 C 
ATOM     32  C   UNL     1      -2.129  16.038   4.510  0.00  0.00    +0.002 C 
ATOM     33  C   UNL     1      -2.914  14.765   4.310  0.00  0.00    +0.019 C 
ATOM     34  C   UNL     1      -2.283  13.927   3.183  0.00  0.00    +0.108 C 
ENDBRANCH  21  26
ENDBRANCH  18  24
ENDBRANCH   2  18
TORSDOF 5
