REMARK  Name = ZINC35567632
REMARK  9 active torsions:
REMARK  status: ('A' for Active; 'I' for Inactive)
REMARK    1  A    between atoms: C_1  and  C_2
REMARK    2  A    between atoms: C_3  and  C_8
REMARK    3  A    between atoms: C_5  and  C_7
REMARK    4  A    between atoms: C_8  and  C_10
REMARK    5  A    between atoms: N_14  and  C_30
REMARK    6  A    between atoms: C_15  and  C_17
REMARK    7  A    between atoms: C_21  and  O_23
REMARK    8  A    between atoms: O_23  and  C_24
REMARK    9  A    between atoms: C_30  and  C_31
REMARK                            x       y       z     vdW  Elec       q    Type
REMARK                         _______ _______ _______ _____ _____    ______ ____
ROOT
ATOM      1  C   UNL     1       0.494  -0.451  -3.141  0.00  0.00    +0.077 C 
ATOM      2  C   UNL     1       0.569  -0.126  -4.452  0.00  0.00    +0.249 C 
ATOM      3  C   UNL     1       0.391  -1.345  -5.266  0.00  0.00    +0.288 C 
ATOM      4  O   UNL     1       0.408  -1.381  -6.481  0.00  0.00    -0.266 OA
ATOM      5  N   UNL     1       0.209  -2.410  -4.465  0.00  0.00    -0.276 N 
ATOM      6  C   UNL     1       0.264  -1.943  -3.075  0.00  0.00    +0.145 C 
ATOM      7  O   UNL     1       0.773   1.120  -4.940  0.00  0.00    -0.282 OA
ENDROOT
BRANCH   6   8
ATOM      8  C   UNL     1       1.401  -2.610  -2.345  0.00  0.00    -0.019 A 
ATOM      9  C   UNL     1       2.652  -2.679  -2.929  0.00  0.00    +0.006 A 
ATOM     10  C   UNL     1       3.697  -3.290  -2.262  0.00  0.00    +0.004 A 
ATOM     11  C   UNL     1       3.494  -3.835  -1.009  0.00  0.00    +0.046 A 
ATOM     12  C   UNL     1       2.239  -3.768  -0.420  0.00  0.00    +0.129 A 
ATOM     13  C   UNL     1       1.193  -3.148  -1.090  0.00  0.00    +0.052 A 
BRANCH  12  14
ATOM     14  O   UNL     1       2.036  -4.303   0.812  0.00  0.00    -0.456 OA
BRANCH  14  15
ATOM     15  C   UNL     1       0.796  -4.197   1.358  0.00  0.00    +0.128 A 
ATOM     16  C   UNL     1      -0.187  -5.121   1.035  0.00  0.00    +0.046 A 
ATOM     17  C   UNL     1      -1.446  -5.010   1.591  0.00  0.00    +0.004 A 
ATOM     18  C   UNL     1      -1.728  -3.979   2.468  0.00  0.00    +0.000 A 
ATOM     19  C   UNL     1      -0.750  -3.057   2.791  0.00  0.00    +0.004 A 
ATOM     20  C   UNL     1       0.513  -3.167   2.243  0.00  0.00    +0.046 A 
ENDBRANCH  14  15
ENDBRANCH  12  14
ENDBRANCH   6   8
BRANCH   1  21
ATOM     21  C   UNL     1       0.619   0.467  -2.003  0.00  0.00    +0.203 C 
ATOM     22  O   UNL     1       1.677   1.031  -1.789  0.00  0.00    -0.286 OA
BRANCH  21  25
ATOM     23  C   UNL     1       0.587   2.144   0.637  0.00  0.00    +0.067 C 
ATOM     24  C   UNL     1      -0.610   1.437   0.056  0.00  0.00    +0.057 A 
ATOM     25  C   UNL     1      -0.530   0.706  -1.124  0.00  0.00    +0.082 A 
ATOM     26  S   UNL     1      -2.217   0.139  -1.270  0.00  0.00    -0.069 S 
ATOM     27  C   UNL     1      -2.826   0.859   0.124  0.00  0.00    +0.076 A 
ATOM     28  N   UNL     1      -1.784   1.472   0.636  0.00  0.00    -0.249 NA
ATOM     29  C   UNL     1      -4.233   0.807   0.661  0.00  0.00    +0.073 C 
ENDBRANCH  21  25
ENDBRANCH   1  21
BRANCH   5  30
ATOM     30  C   UNL     1      -0.001  -3.792  -4.902  0.00  0.00    +0.183 C 
BRANCH  30  31
ATOM     31  C   UNL     1       1.330  -4.488  -5.027  0.00  0.00    +0.122 A 
ATOM     32  C   UNL     1       1.953  -5.174  -4.053  0.00  0.00    +0.046 A 
ATOM     33  C   UNL     1       3.165  -5.655  -4.601  0.00  0.00    +0.041 A 
ATOM     34  C   UNL     1       3.209  -5.234  -5.877  0.00  0.00    +0.195 A 
ATOM     35  O   UNL     1       2.093  -4.532  -6.132  0.00  0.00    -0.466 OA
ENDBRANCH  30  31
ENDBRANCH   5  30
TORSDOF 7
