REMARK  Name = ZINC63373790
REMARK  8 active torsions:
REMARK  status: ('A' for Active; 'I' for Inactive)
REMARK    1  A    between atoms: C_1  and  C_2
REMARK    2  A    between atoms: C_2  and  C_3
REMARK    3  A    between atoms: C_2  and  C_4
REMARK    4  A    between atoms: C_7  and  N_10
REMARK    5  A    between atoms: C_13  and  C_38
REMARK    6  A    between atoms: C_24  and  C_30
REMARK    7  A    between atoms: C_35  and  O_36
REMARK    8  A    between atoms: O_36  and  C_37
REMARK                            x       y       z     vdW  Elec       q    Type
REMARK                         _______ _______ _______ _____ _____    ______ ____
ROOT
ATOM      1  N   UNL     1      -5.724  -2.047   1.030  0.00  0.00    -0.192 N 
ATOM      2  C   UNL     1      -5.981  -2.894   0.012  0.00  0.00    +0.253 C 
ATOM      3  O   UNL     1      -5.182  -3.368  -0.766  0.00  0.00    -0.272 OA
ATOM      4  C   UNL     1      -7.475  -3.130   0.046  0.00  0.00    +0.137 C 
ATOM      5  C   UNL     1      -8.118  -2.704  -1.273  0.00  0.00    +0.139 C 
ATOM      6  C   UNL     1      -8.959  -1.468  -0.990  0.00  0.00    -0.027 C 
ATOM      7  C   UNL     1      -8.522  -0.524  -1.821  0.00  0.00    -0.000 A 
ATOM      8  C   UNL     1      -8.981   0.853  -2.062  0.00  0.00    +0.010 A 
ATOM      9  C   UNL     1      -8.289   1.561  -2.994  0.00  0.00    +0.001 A 
ATOM     10  C   UNL     1      -7.200   1.042  -3.701  0.00  0.00    +0.002 A 
ATOM     11  C   UNL     1      -6.714  -0.216  -3.546  0.00  0.00    +0.026 A 
ATOM     12  C   UNL     1      -7.362  -1.058  -2.596  0.00  0.00    +0.043 A 
ATOM     13  N   UNL     1      -7.118  -2.306  -2.265  0.00  0.00    -0.375 N 
ATOM     14  C   UNL     1     -10.007  -1.399   0.092  0.00  0.00    +0.069 C 
ATOM     15  C   UNL     1      -9.344  -1.893   1.394  0.00  0.00    +0.123 C 
ATOM     16  N   UNL     1      -7.942  -2.201   1.096  0.00  0.00    -0.268 N 
ATOM     17  C   UNL     1      -6.845  -1.687   1.670  0.00  0.00    +0.317 C 
ATOM     18  O   UNL     1      -6.865  -0.975   2.654  0.00  0.00    -0.252 OA
ATOM     19  C   UNL     1      -7.802  -4.582   0.399  0.00  0.00    +0.044 C 
ATOM     20  H   UNL     1      -6.404  -2.867  -2.608  0.00  0.00    +0.160 HD
ENDROOT
BRANCH   1  24
ATOM     21  C   UNL     1      -1.909  -0.724   2.068  0.00  0.00    -0.045 A 
ATOM     22  C   UNL     1      -3.019  -0.200   2.705  0.00  0.00    +0.006 A 
ATOM     23  C   UNL     1      -4.284  -0.636   2.364  0.00  0.00    +0.024 A 
ATOM     24  C   UNL     1      -4.441  -1.602   1.379  0.00  0.00    +0.045 A 
ATOM     25  C   UNL     1      -3.325  -2.126   0.741  0.00  0.00    +0.024 A 
ATOM     26  C   UNL     1      -2.063  -1.682   1.083  0.00  0.00    +0.006 A 
BRANCH  21  28
ATOM     27  C   UNL     1      -0.427   1.260   2.197  0.00  0.00    +0.012 C 
ATOM     28  C   UNL     1      -0.530  -0.246   2.444  0.00  0.00    +0.013 C 
ATOM     29  C   UNL     1      -0.274  -0.540   3.924  0.00  0.00    +0.012 C 
ENDBRANCH  21  28
ENDBRANCH   1  24
BRANCH  14  30
ATOM     30  C   UNL     1     -11.172  -2.286  -0.262  0.00  0.00    +0.003 A 
ATOM     31  C   UNL     1     -10.961  -3.620  -0.552  0.00  0.00    +0.008 A 
ATOM     32  C   UNL     1     -12.030  -4.435  -0.879  0.00  0.00    +0.001 A 
ATOM     33  C   UNL     1     -13.311  -3.917  -0.915  0.00  0.00    +0.004 A 
ATOM     34  C   UNL     1     -13.527  -2.584  -0.625  0.00  0.00    +0.046 A 
ATOM     35  C   UNL     1     -12.458  -1.766  -0.292  0.00  0.00    +0.124 A 
BRANCH  35  36
ATOM     36  O   UNL     1     -12.668  -0.455  -0.002  0.00  0.00    -0.495 OA
ATOM     37  C   UNL     1     -14.018   0.012  -0.052  0.00  0.00    +0.277 C 
ENDBRANCH  35  36
ENDBRANCH  14  30
TORSDOF 4
