REMARK  Name = ZINC06504926
REMARK  5 active torsions:
REMARK  status: ('A' for Active; 'I' for Inactive)
REMARK    1  A    between atoms: C_1  and  C_2
REMARK    2  A    between atoms: N_4  and  C_11
REMARK    3  A    between atoms: C_16  and  C_19
REMARK    4  A    between atoms: C_19  and  O_20
REMARK    5  A    between atoms: O_20  and  P_21
REMARK                            x       y       z     vdW  Elec       q    Type
REMARK                         _______ _______ _______ _____ _____    ______ ____
ROOT
ATOM      1  C   UNL     1       3.603  -0.751  -0.036  0.00  0.00    +0.227 C 
ATOM      2  C   UNL     1       3.738  -1.619   1.241  0.00  0.00    +0.094 C 
ATOM      3  C   UNL     1       5.275  -1.783   1.357  0.00  0.00    +0.201 C 
ATOM      4  C   UNL     1       5.846  -0.618   0.525  0.00  0.00    +0.181 C 
ATOM      5  O   UNL     1       4.730   0.148   0.042  0.00  0.00    -0.348 OA
ATOM      6  F   UNL     1       5.683  -1.678   2.691  0.00  0.00    -0.243 F 
ENDROOT
BRANCH   1  10
ATOM      7  C   UNL     1       1.215   3.562   0.009  0.00  0.00    +0.051 C 
ATOM      8  C   UNL     1       1.208   2.056   0.002  0.00  0.00    +0.030 A 
ATOM      9  C   UNL     1       2.369   1.366  -0.013  0.00  0.00    +0.101 A 
ATOM     10  N   UNL     1       2.344  -0.002  -0.020  0.00  0.00    -0.274 N 
ATOM     11  C   UNL     1       1.174  -0.666  -0.013  0.00  0.00    +0.331 A 
ATOM     12  O   UNL     1       1.175  -1.882  -0.020  0.00  0.00    -0.246 OA
ATOM     13  N   UNL     1       0.002  -0.004   0.002  0.00  0.00    -0.275 N 
ATOM     14  H   UNL     1      -0.858  -0.514   0.007  0.00  0.00    +0.173 HD
ATOM     15  C   UNL     1      -0.016   1.344   0.009  0.00  0.00    +0.257 A 
ATOM     16  O   UNL     1      -1.076   1.944   0.018  0.00  0.00    -0.267 OA
ENDBRANCH   1  10
BRANCH   4  17
ATOM     17  C   UNL     1       6.739   0.260   1.404  0.00  0.00    +0.207 C 
BRANCH  17  18
ATOM     18  O   UNL     1       7.342   1.278   0.602  0.00  0.00    -0.281 OA
BRANCH  18  19
ATOM     19  P   UNL     1       8.347   2.384   1.200  0.00  0.00    +0.532 P 
ATOM     20  O   UNL     1       9.462   1.710   1.901  0.00  0.00    -0.222 OA
ATOM     21  O   UNL     1       8.932   3.283  -0.001  0.00  0.00    -0.115 OA
ATOM     22  O   UNL     1       7.553   3.326   2.237  0.00  0.00    -0.115 OA
ENDBRANCH  18  19
ENDBRANCH  17  18
ENDBRANCH   4  17
TORSDOF 4
