REMARK  Name = ZINC39695436
REMARK  9 active torsions:
REMARK  status: ('A' for Active; 'I' for Inactive)
REMARK    1  A    between atoms: C_1  and  C_2
REMARK    2  A    between atoms: C_2  and  C_3
REMARK    3  A    between atoms: C_3  and  C_4
REMARK    4  A    between atoms: C_4  and  C_5
REMARK    5  A    between atoms: C_9  and  C_18
REMARK    6  A    between atoms: N_20  and  C_21
REMARK    7  A    between atoms: C_21  and  C_22
REMARK    8  A    between atoms: N_27  and  C_28
REMARK    9  A    between atoms: C_28  and  C_29
REMARK                            x       y       z     vdW  Elec       q    Type
REMARK                         _______ _______ _______ _____ _____    ______ ____
ROOT
ATOM      1  C   UNL     1       1.542  -2.559   2.607  0.00  0.00    +0.216 C 
ATOM      2  O   UNL     1       2.056  -1.792   3.393  0.00  0.00    -0.276 OA
ATOM      3  N   UNL     1       1.697  -3.889   2.763  0.00  0.00    -0.300 N 
ATOM      4  C   UNL     1       1.157  -4.973   1.910  0.00  0.00    +0.121 C 
ATOM      5  C   UNL     1       2.293  -6.018   1.840  0.00  0.00    +0.100 C 
ATOM      6  C   UNL     1       3.135  -5.767   3.102  0.00  0.00    -0.004 C 
ATOM      7  C   UNL     1       2.452  -4.597   3.825  0.00  0.00    +0.115 C 
ATOM      8  C   UNL     1       3.138  -7.008   3.990  0.00  0.00    -0.010 C 
ATOM      9  C   UNL     1       4.028  -6.755   5.210  0.00  0.00    -0.082 C 
ATOM     10  N   UNL     1       5.392  -6.442   4.766  0.00  0.00    +0.379 N 
ATOM     11  C   UNL     1       5.393  -5.196   3.990  0.00  0.00    -0.082 C 
ATOM     12  C   UNL     1       4.561  -5.384   2.719  0.00  0.00    -0.010 C 
ATOM     13  H   UNL     1       5.990  -6.336   5.572  0.00  0.00    -0.086 HD
ATOM     14  H   UNL     1       5.738  -7.196   4.191  0.00  0.00    -0.086 HD
ENDROOT
BRANCH   5  15
ATOM     15  C   UNL     1       1.724  -7.413   1.854  0.00  0.00    +0.218 C 
ATOM     16  O   UNL     1       0.688  -7.640   2.442  0.00  0.00    -0.275 OA
ATOM     17  N   UNL     1       2.367  -8.409   1.213  0.00  0.00    -0.317 N 
ATOM     18  H   UNL     1       3.196  -8.228   0.743  0.00  0.00    +0.149 HD
BRANCH  17  19
ATOM     19  C   UNL     1       1.814  -9.766   1.227  0.00  0.00    +0.089 C 
BRANCH  19  20
ATOM     20  C   UNL     1       2.731 -10.698   0.432  0.00  0.00    -0.051 C 
ATOM     21  C   UNL     1       2.251 -12.157   0.580  0.00  0.00    -0.016 C 
ATOM     22  C   UNL     1       3.579 -12.954   0.670  0.00  0.00    -0.020 C 
ATOM     23  C   UNL     1       4.479 -11.974   1.463  0.00  0.00    -0.078 C 
ATOM     24  N   UNL     1       4.103 -10.630   0.968  0.00  0.00    +0.382 N 
ATOM     25  H   UNL     1       4.138  -9.965   1.726  0.00  0.00    -0.081 HD
BRANCH  24  26
ATOM     26  C   UNL     1       5.028 -10.214  -0.095  0.00  0.00    -0.082 C 
ATOM     27  C   UNL     1       6.427 -10.024   0.494  0.00  0.00    -0.017 C 
ENDBRANCH  24  26
ENDBRANCH  19  20
ENDBRANCH  17  19
ENDBRANCH   5  15
BRANCH   1  28
ATOM     28  C   UNL     1       0.731  -2.026   1.454  0.00  0.00    +0.096 C 
BRANCH  28  29
ATOM     29  C   UNL     1       0.714  -0.497   1.507  0.00  0.00    +0.009 C 
BRANCH  29  31
ATOM     30  C   UNL     1      -0.128   1.574   0.390  0.00  0.00    +0.004 C 
ATOM     31  C   UNL     1      -0.110   0.045   0.337  0.00  0.00    -0.003 C 
ENDBRANCH  29  31
ENDBRANCH  28  29
ENDBRANCH   1  28
TORSDOF 7
