REMARK  Name = ZINC08837859
REMARK  11 active torsions:
REMARK  status: ('A' for Active; 'I' for Inactive)
REMARK    1  A    between atoms: C_1  and  C_2
REMARK    2  A    between atoms: C_2  and  C_3
REMARK    3  A    between atoms: C_3  and  C_4
REMARK    4  A    between atoms: C_4  and  C_5
REMARK    5  A    between atoms: C_5  and  C_6
REMARK    6  A    between atoms: C_18  and  C_35
REMARK    7  A    between atoms: C_18  and  C_36
REMARK    8  A    between atoms: C_20  and  O_34
REMARK    9  A    between atoms: C_24  and  C_26
REMARK   10  A    between atoms: C_31  and  O_32
REMARK   11  A    between atoms: O_32  and  C_33
REMARK                            x       y       z     vdW  Elec       q    Type
REMARK                         _______ _______ _______ _____ _____    ______ ____
ROOT
ATOM      1  C   UNL     1       5.371   1.208   0.177  0.00  0.00    +0.220 C 
ATOM      2  O   UNL     1       5.960   0.957  -0.852  0.00  0.00    -0.275 OA
ATOM      3  N   UNL     1       4.338   2.074   0.169  0.00  0.00    -0.261 N 
ATOM      4  C   UNL     1       4.071   2.746  -1.003  0.00  0.00    +0.062 A 
ATOM      5  C   UNL     1       5.134   3.167  -1.795  0.00  0.00    +0.025 A 
ATOM      6  C   UNL     1       4.918   3.973  -2.892  0.00  0.00    +0.002 A 
ATOM      7  C   UNL     1       3.631   4.369  -3.213  0.00  0.00    +0.002 A 
ATOM      8  C   UNL     1       2.565   3.934  -2.461  0.00  0.00    +0.029 A 
ATOM      9  C   UNL     1       2.758   3.088  -1.357  0.00  0.00    +0.085 A 
ATOM     10  N   UNL     1       1.672   2.639  -0.709  0.00  0.00    -0.254 NA
ATOM     11  C   UNL     1       1.357   1.963   0.280  0.00  0.00    +0.028 C 
ATOM     12  C   UNL     1      -0.076   1.465   0.467  0.00  0.00    +0.057 C 
ATOM     13  C   UNL     1      -0.002  -0.068   0.431  0.00  0.00    -0.027 C 
ATOM     14  C   UNL     1       0.976  -0.607   1.471  0.00  0.00    +0.038 C 
ATOM     15  C   UNL     1       2.390  -0.042   1.249  0.00  0.00    +0.126 C 
ATOM     16  C   UNL     1       2.294   1.467   1.371  0.00  0.00    +0.087 C 
ATOM     17  C   UNL     1       3.580   2.241   1.381  0.00  0.00    +0.126 C 
ATOM     18  C   UNL     1      -1.393  -0.642   0.709  0.00  0.00    +0.011 C 
ATOM     19  C   UNL     1       0.454  -0.514  -0.959  0.00  0.00    +0.011 C 
ENDROOT
BRANCH  17  20
ATOM     20  C   UNL     1       3.271   3.703   1.575  0.00  0.00    +0.016 A 
ATOM     21  C   UNL     1       2.008   4.096   1.973  0.00  0.00    +0.009 A 
ATOM     22  C   UNL     1       1.724   5.437   2.151  0.00  0.00    +0.001 A 
ATOM     23  C   UNL     1       2.702   6.389   1.931  0.00  0.00    +0.004 A 
ATOM     24  C   UNL     1       3.967   6.002   1.532  0.00  0.00    +0.046 A 
ATOM     25  C   UNL     1       4.256   4.656   1.358  0.00  0.00    +0.125 A 
BRANCH  25  26
ATOM     26  O   UNL     1       5.501   4.271   0.971  0.00  0.00    -0.495 OA
ATOM     27  C   UNL     1       6.465   5.306   0.767  0.00  0.00    +0.277 C 
ENDBRANCH  25  26
ENDBRANCH  17  20
BRANCH  15  28
ATOM     28  O   UNL     1       3.280  -0.555   2.243  0.00  0.00    -0.391 OA
ATOM     29  H   UNL     1       3.358  -1.518   2.242  0.00  0.00    +0.210 HD
ENDBRANCH  15  28
BRANCH   1  30
ATOM     30  C   UNL     1       5.792   0.550   1.466  0.00  0.00    +0.096 C 
BRANCH  30  31
ATOM     31  C   UNL     1       7.080  -0.243   1.237  0.00  0.00    +0.009 C 
BRANCH  31  32
ATOM     32  C   UNL     1       7.508  -0.911   2.546  0.00  0.00    +0.000 C 
BRANCH  32  34
ATOM     33  C   UNL     1       9.224  -2.371   3.625  0.00  0.00    +0.004 C 
ATOM     34  C   UNL     1       8.796  -1.704   2.316  0.00  0.00    -0.003 C 
ENDBRANCH  32  34
ENDBRANCH  31  32
ENDBRANCH  30  31
ENDBRANCH   1  30
TORSDOF 7
