REMARK  Name = ZINC22534426
REMARK  9 active torsions:
REMARK  status: ('A' for Active; 'I' for Inactive)
REMARK    1  A    between atoms: C_1  and  C_2
REMARK    2  A    between atoms: C_2  and  C_4
REMARK    3  A    between atoms: C_2  and  C_28
REMARK    4  A    between atoms: C_4  and  N_5
REMARK    5  A    between atoms: C_6  and  C_8
REMARK    6  A    between atoms: C_8  and  C_10
REMARK    7  A    between atoms: C_8  and  S_11
REMARK    8  A    between atoms: S_11  and  C_12
REMARK    9  A    between atoms: N_22  and  C_23
REMARK                            x       y       z     vdW  Elec       q    Type
REMARK                         _______ _______ _______ _____ _____    ______ ____
ROOT
ATOM      1  S   UNL     1       3.904  -0.718  -0.039  0.00  0.00    -0.075 S 
ENDROOT
BRANCH   1   2
ATOM      2  C   UNL     1       2.358   0.128  -0.019  0.00  0.00    +0.173 A 
ATOM      3  N   UNL     1       2.364   1.438  -0.012  0.00  0.00    -0.223 NA
ATOM      4  C   UNL     1       1.219   2.150   0.002  0.00  0.00    +0.079 A 
ATOM      5  C   UNL     1       1.224   3.548   0.010  0.00  0.00    +0.028 A 
ATOM      6  C   UNL     1       0.040   4.229   0.026  0.00  0.00    +0.002 A 
ATOM      7  C   UNL     1      -1.173   3.552   0.034  0.00  0.00    +0.001 A 
ATOM      8  C   UNL     1      -1.211   2.185   0.031  0.00  0.00    +0.015 A 
ATOM      9  C   UNL     1      -0.018   1.465   0.010  0.00  0.00    +0.065 A 
ATOM     10  C   UNL     1       0.002  -0.004   0.002  0.00  0.00    +0.263 A 
ATOM     11  O   UNL     1      -1.030  -0.650   0.009  0.00  0.00    -0.267 OA
ATOM     12  N   UNL     1       1.211  -0.613  -0.013  0.00  0.00    -0.284 N 
BRANCH  12  13
ATOM     13  C   UNL     1       1.289  -2.075  -0.021  0.00  0.00    +0.093 C 
ATOM     14  C   UNL     1       0.537  -2.638  -1.245  0.00  0.00    +0.025 C 
ATOM     15  C   UNL     1      -0.130  -3.933  -0.718  0.00  0.00    +0.002 C 
ATOM     16  C   UNL     1      -0.560  -3.538   0.717  0.00  0.00    +0.002 C 
ATOM     17  C   UNL     1       0.592  -2.648   1.226  0.00  0.00    +0.025 C 
ENDBRANCH  12  13
ENDBRANCH   1   2
BRANCH   1  18
ATOM     18  C   UNL     1       5.036   0.694  -0.041  0.00  0.00    +0.137 C 
ATOM     19  C   UNL     1       4.867   1.481  -1.343  0.00  0.00    +0.029 C 
BRANCH  18  21
ATOM     20  N   UNL     1       7.411   1.002   0.578  0.00  0.00    -0.314 N 
ATOM     21  C   UNL     1       6.455   0.201   0.067  0.00  0.00    +0.226 C 
ATOM     22  O   UNL     1       6.739  -0.918  -0.307  0.00  0.00    -0.275 OA
ATOM     23  H   UNL     1       7.154   2.017   0.917  0.00  0.00    +0.149 HD
BRANCH  20  24
ATOM     24  C   UNL     1       8.791   0.522   0.683  0.00  0.00    +0.112 C 
BRANCH  24  26
ATOM     25  C   UNL     1       9.222   1.887   2.731  0.00  0.00    +0.014 C 
ATOM     26  C   UNL     1       9.667   1.618   1.292  0.00  0.00    +0.033 C 
BRANCH  26  27
ATOM     27  C   UNL     1      11.106   1.172   1.287  0.00  0.00    -0.043 A 
ATOM     28  C   UNL     1      11.479   0.032   1.975  0.00  0.00    +0.004 A 
ATOM     29  C   UNL     1      12.798  -0.380   1.966  0.00  0.00    +0.000 A 
ATOM     30  C   UNL     1      13.747   0.353   1.278  0.00  0.00    +0.000 A 
ATOM     31  C   UNL     1      13.375   1.495   0.594  0.00  0.00    +0.000 A 
ATOM     32  C   UNL     1      12.055   1.905   0.599  0.00  0.00    +0.004 A 
ENDBRANCH  26  27
ENDBRANCH  24  26
ENDBRANCH  20  24
ENDBRANCH  18  21
ENDBRANCH   1  18
TORSDOF 7
