REMARK  Name = ZINC16220358
REMARK  10 active torsions:
REMARK  status: ('A' for Active; 'I' for Inactive)
REMARK    1  A    between atoms: C_1  and  C_2
REMARK    2  A    between atoms: C_2  and  C_3
REMARK    3  A    between atoms: C_7  and  C_35
REMARK    4  A    between atoms: C_8  and  N_9
REMARK    5  A    between atoms: C_10  and  C_29
REMARK    6  A    between atoms: C_13  and  S_14
REMARK    7  A    between atoms: S_14  and  C_15
REMARK    8  A    between atoms: C_15  and  C_16
REMARK    9  A    between atoms: C_25  and  C_28
REMARK   10  A    between atoms: C_35  and  C_36
REMARK                            x       y       z     vdW  Elec       q    Type
REMARK                         _______ _______ _______ _____ _____    ______ ____
ROOT
ATOM      1  N   UNL     1       1.328  10.620   0.048  0.00  0.00    -0.270 N 
ATOM      2  C   UNL     1       0.668  11.829   0.054  0.00  0.00    +0.171 A 
ATOM      3  N   UNL     1      -0.618  11.566   0.065  0.00  0.00    -0.128 NA
ATOM      4  N   UNL     1      -0.806  10.295   0.060  0.00  0.00    -0.122 NA
ATOM      5  C   UNL     1       0.348   9.666   0.047  0.00  0.00    +0.197 A 
ENDROOT
BRANCH   1  11
ATOM      6  C   UNL     1       3.407  10.305   1.241  0.00  0.00    -0.023 A 
ATOM      7  C   UNL     1       4.772  10.093   1.232  0.00  0.00    +0.005 A 
ATOM      8  C   UNL     1       5.450   9.997   0.030  0.00  0.00    +0.001 A 
ATOM      9  C   UNL     1       4.764  10.107  -1.165  0.00  0.00    +0.005 A 
ATOM     10  C   UNL     1       3.398  10.313  -1.162  0.00  0.00    -0.023 A 
ATOM     11  C   UNL     1       2.714  10.410   0.042  0.00  0.00    +0.057 A 
BRANCH   6  13
ATOM     12  C   UNL     1       2.097   9.051   2.932  0.00  0.00    +0.009 C 
ATOM     13  C   UNL     1       2.670  10.417   2.550  0.00  0.00    +0.034 C 
ENDBRANCH   6  13
BRANCH  10  14
ATOM     14  C   UNL     1       2.651  10.433  -2.465  0.00  0.00    +0.034 C 
ATOM     15  C   UNL     1       2.505  11.910  -2.836  0.00  0.00    +0.009 C 
ENDBRANCH  10  14
ENDBRANCH   1  11
BRANCH   2  16
ATOM     16  C   UNL     1       1.291  13.170   0.054  0.00  0.00    +0.038 A 
ATOM     17  C   UNL     1       0.538  14.305   0.378  0.00  0.00    +0.014 A 
ATOM     18  C   UNL     1       1.168  15.536   0.364  0.00  0.00    +0.020 A 
ATOM     19  C   UNL     1       2.509  15.607   0.032  0.00  0.00    +0.111 A 
ATOM     20  N   UNL     1       3.194  14.521  -0.269  0.00  0.00    -0.263 NA
ATOM     21  C   UNL     1       2.641  13.325  -0.264  0.00  0.00    +0.122 A 
ENDBRANCH   2  16
BRANCH   5  22
ATOM     22  S   UNL     1       0.587   7.920   0.037  0.00  0.00    -0.078 S 
BRANCH  22  23
ATOM     23  C   UNL     1      -1.136   7.367   0.049  0.00  0.00    +0.151 C 
BRANCH  23  24
ATOM     24  C   UNL     1      -1.180   5.860   0.043  0.00  0.00    +0.121 A 
ATOM     25  N   UNL     1      -2.394   5.251   0.050  0.00  0.00    -0.310 N 
ATOM     26  H   UNL     1      -3.202   5.788   0.060  0.00  0.00    +0.170 HD
ATOM     27  C   UNL     1      -2.488   3.901   0.045  0.00  0.00    +0.259 A 
ATOM     28  O   UNL     1      -3.569   3.342   0.052  0.00  0.00    -0.267 OA
ATOM     29  C   UNL     1      -1.232   3.136   0.030  0.00  0.00    +0.065 A 
ATOM     30  C   UNL     1      -1.218   1.742   0.017  0.00  0.00    +0.015 A 
ATOM     31  C   UNL     1      -0.013   1.076   0.008  0.00  0.00    +0.001 A 
ATOM     32  C   UNL     1       1.184   1.781   0.000  0.00  0.00    +0.005 A 
ATOM     33  C   UNL     1       1.192   3.157   0.007  0.00  0.00    -0.024 A 
ATOM     34  C   UNL     1      -0.017   3.856   0.022  0.00  0.00    +0.081 A 
ATOM     35  N   UNL     1      -0.056   5.212   0.029  0.00  0.00    -0.233 NA
ATOM     36  C   UNL     1       2.499   3.907  -0.001  0.00  0.00    +0.046 C 
ENDBRANCH  23  24
ENDBRANCH  22  23
ENDBRANCH   5  22
TORSDOF 7
