REMARK  Name = ZINC08633146
REMARK  9 active torsions:
REMARK  status: ('A' for Active; 'I' for Inactive)
REMARK    1  A    between atoms: C_1  and  C_2
REMARK    2  A    between atoms: N_13  and  C_31
REMARK    3  A    between atoms: C_14  and  S_16
REMARK    4  A    between atoms: S_16  and  C_17
REMARK    5  A    between atoms: C_17  and  C_19
REMARK    6  A    between atoms: C_17  and  C_20
REMARK    7  A    between atoms: N_22  and  C_23
REMARK    8  A    between atoms: C_23  and  C_29
REMARK    9  A    between atoms: C_31  and  C_32
REMARK                            x       y       z     vdW  Elec       q    Type
REMARK                         _______ _______ _______ _____ _____    ______ ____
ROOT
ATOM      1  C   UNL     1       1.300   4.027   8.773  0.00  0.00    +0.008 C 
ATOM      2  C   UNL     1       0.896   3.953   7.298  0.00  0.00    -0.009 C 
ATOM      3  C   UNL     1       1.589   2.759   6.636  0.00  0.00    +0.008 C 
ATOM      4  C   UNL     1       1.391   2.819   5.120  0.00  0.00    +0.037 C 
ATOM      5  C   UNL     1      -0.099   2.966   4.823  0.00  0.00    -0.023 A 
ATOM      6  C   UNL     1      -0.953   3.389   5.777  0.00  0.00    -0.004 A 
ATOM      7  S   UNL     1      -2.544   3.406   4.995  0.00  0.00    -0.073 S 
ATOM      8  C   UNL     1      -2.055   2.844   3.384  0.00  0.00    +0.117 A 
ATOM      9  C   UNL     1      -0.668   2.660   3.509  0.00  0.00    +0.076 A 
ATOM     10  C   UNL     1       0.008   2.199   2.335  0.00  0.00    +0.263 A 
ATOM     11  O   UNL     1       1.212   2.010   2.350  0.00  0.00    -0.267 OA
ATOM     12  N   UNL     1      -0.704   1.975   1.216  0.00  0.00    -0.283 N 
ATOM     13  C   UNL     1      -2.052   2.186   1.180  0.00  0.00    +0.174 A 
ATOM     14  N   UNL     1      -2.700   2.605   2.248  0.00  0.00    -0.216 NA
ATOM     15  C   UNL     1      -0.624   3.763   7.190  0.00  0.00    +0.046 C 
ENDROOT
BRANCH  13  16
ATOM     16  S   UNL     1      -2.939   1.886  -0.313  0.00  0.00    -0.075 S 
BRANCH  16  17
ATOM     17  C   UNL     1      -4.612   2.320   0.224  0.00  0.00    +0.137 C 
ATOM     18  C   UNL     1      -4.669   3.811   0.562  0.00  0.00    +0.029 C 
BRANCH  17  19
ATOM     19  C   UNL     1      -5.589   2.019  -0.884  0.00  0.00    +0.227 C 
ATOM     20  O   UNL     1      -5.196   1.909  -2.026  0.00  0.00    -0.275 OA
ATOM     21  N   UNL     1      -6.899   1.872  -0.606  0.00  0.00    -0.296 N 
ATOM     22  H   UNL     1      -7.214   1.960   0.308  0.00  0.00    +0.150 HD
BRANCH  21  23
ATOM     23  C   UNL     1      -7.849   1.580  -1.682  0.00  0.00    +0.121 C 
ATOM     24  C   UNL     1      -7.814   2.709  -2.714  0.00  0.00    +0.041 C 
ATOM     25  C   UNL     1      -8.806   2.404  -3.838  0.00  0.00    +0.003 C 
ATOM     26  C   UNL     1     -10.216   2.287  -3.257  0.00  0.00    +0.000 C 
ATOM     27  C   UNL     1     -10.251   1.157  -2.226  0.00  0.00    +0.003 C 
ATOM     28  C   UNL     1      -9.259   1.462  -1.101  0.00  0.00    +0.041 C 
BRANCH  23  29
ATOM     29  C   UNL     1      -7.479   0.311  -2.332  0.00  0.00    +0.088 C 
ATOM     30  N   UNL     1      -7.193  -0.667  -2.833  0.00  0.00    -0.194 NA
ENDBRANCH  23  29
ENDBRANCH  21  23
ENDBRANCH  17  19
ENDBRANCH  16  17
ENDBRANCH  13  16
BRANCH  12  31
ATOM     31  C   UNL     1      -0.018   1.503   0.010  0.00  0.00    +0.154 C 
BRANCH  31  32
ATOM     32  C   UNL     1       0.002  -0.004   0.002  0.00  0.00    -0.013 C 
ATOM     33  C   UNL     1      -0.478  -0.660  -1.025  0.00  0.00    +0.005 C 
ENDBRANCH  31  32
ENDBRANCH  12  31
TORSDOF 7
