REMARK  Name = ZINC38740236
REMARK  7 active torsions:
REMARK  status: ('A' for Active; 'I' for Inactive)
REMARK    1  A    between atoms: C_1  and  C_2
REMARK    2  A    between atoms: C_2  and  O_3
REMARK    3  A    between atoms: O_3  and  C_4
REMARK    4  A    between atoms: C_4  and  C_6
REMARK    5  A    between atoms: C_12  and  N_14
REMARK    6  A    between atoms: C_15  and  C_17
REMARK    7  A    between atoms: C_23  and  C_25
REMARK                            x       y       z     vdW  Elec       q    Type
REMARK                         _______ _______ _______ _____ _____    ______ ____
ROOT
ATOM      1  C   UNL     1      -1.635  -6.031  -1.908  0.00  0.00    +0.087 C 
ATOM      2  C   UNL     1      -2.469  -5.028  -1.109  0.00  0.00    +0.013 C 
ATOM      3  C   UNL     1      -3.920  -5.509  -1.041  0.00  0.00    +0.001 C 
ATOM      4  C   UNL     1      -3.972  -6.876  -0.355  0.00  0.00    +0.001 C 
ATOM      5  C   UNL     1      -3.138  -7.880  -1.154  0.00  0.00    +0.013 C 
ATOM      6  C   UNL     1      -1.688  -7.398  -1.222  0.00  0.00    +0.087 C 
ENDROOT
BRANCH   6   7
ATOM      7  C   UNL     1      -0.866  -8.386  -2.009  0.00  0.00    +0.219 C 
ATOM      8  O   UNL     1      -0.819  -8.309  -3.218  0.00  0.00    -0.275 OA
ATOM      9  N   UNL     1      -0.184  -9.357  -1.368  0.00  0.00    -0.298 N 
ATOM     10  C   UNL     1      -0.332  -9.543   0.082  0.00  0.00    +0.126 C 
ATOM     11  C   UNL     1      -0.746 -10.995   0.350  0.00  0.00    +0.125 C 
ATOM     12  N   UNL     1       0.159 -11.886  -0.390  0.00  0.00    -0.314 N 
ATOM     13  C   UNL     1       0.307 -11.700  -1.840  0.00  0.00    +0.125 C 
ATOM     14  C   UNL     1       0.717 -10.251  -2.109  0.00  0.00    +0.126 C 
ATOM     15  C   UNL     1       0.863 -12.886   0.271  0.00  0.00    +0.099 A 
ATOM     16  C   UNL     1       0.618 -13.125   1.619  0.00  0.00    +0.042 A 
ATOM     17  C   UNL     1       1.326 -14.124   2.264  0.00  0.00    +0.005 A 
ATOM     18  C   UNL     1       2.257 -14.852   1.536  0.00  0.00    +0.018 A 
ATOM     19  C   UNL     1       2.449 -14.561   0.200  0.00  0.00    +0.084 A 
ATOM     20  N   UNL     1       1.755 -13.606  -0.391  0.00  0.00    -0.350 N 
ATOM     21  H   UNL     1       1.907 -13.424  -1.331  0.00  0.00    +0.166 HD
ENDBRANCH   6   7
BRANCH   1  23
ATOM     22  N   UNL     1       0.083  -4.369  -2.541  0.00  0.00    -0.311 N 
ATOM     23  C   UNL     1      -0.207  -5.557  -1.974  0.00  0.00    +0.217 C 
ATOM     24  O   UNL     1       0.682  -6.244  -1.518  0.00  0.00    -0.275 OA
ATOM     25  H   UNL     1      -0.628  -3.819  -2.906  0.00  0.00    +0.149 HD
BRANCH  22  31
ATOM     26  C   UNL     1       1.499  -2.380  -2.689  0.00  0.00    +0.118 C 
ATOM     27  C   UNL     1       0.751  -1.924  -3.943  0.00  0.00    +0.016 C 
ATOM     28  C   UNL     1       1.427  -2.514  -5.183  0.00  0.00    +0.001 C 
ATOM     29  C   UNL     1       1.400  -4.042  -5.100  0.00  0.00    +0.002 C 
ATOM     30  C   UNL     1       2.148  -4.498  -3.845  0.00  0.00    +0.023 C 
ATOM     31  C   UNL     1       1.472  -3.908  -2.606  0.00  0.00    +0.087 C 
BRANCH  26  32
ATOM     32  C   UNL     1       0.833  -1.799  -1.468  0.00  0.00    +0.312 C 
ATOM     33  O   UNL     1       0.383  -2.531  -0.619  0.00  0.00    -0.250 OA
BRANCH  32  34
ATOM     34  O   UNL     1       0.740  -0.468  -1.324  0.00  0.00    -0.465 OA
BRANCH  34  36
ATOM     35  C   UNL     1       0.085   1.544  -0.155  0.00  0.00    +0.048 C 
ATOM     36  C   UNL     1       0.096   0.014  -0.143  0.00  0.00    +0.229 C 
ENDBRANCH  34  36
ENDBRANCH  32  34
ENDBRANCH  26  32
ENDBRANCH  22  31
ENDBRANCH   1  23
TORSDOF 6
