REMARK  Name = ZINC59260142
REMARK  6 active torsions:
REMARK  status: ('A' for Active; 'I' for Inactive)
REMARK    1  A    between atoms: C_1  and  C_2
REMARK    2  A    between atoms: C_7  and  C_8
REMARK    3  A    between atoms: C_8  and  C_10
REMARK    4  A    between atoms: C_8  and  N_11
REMARK    5  A    between atoms: N_14  and  C_15
REMARK    6  A    between atoms: C_15  and  C_16
REMARK                            x       y       z     vdW  Elec       q    Type
REMARK                         _______ _______ _______ _____ _____    ______ ____
ROOT
ATOM      1  C   UNL     1      -2.892  -1.524   7.622  0.00  0.00    -0.014 A 
ATOM      2  C   UNL     1      -4.147  -2.094   7.451  0.00  0.00    +0.010 A 
ATOM      3  C   UNL     1      -4.546  -3.087   8.327  0.00  0.00    +0.042 A 
ATOM      4  C   UNL     1      -3.681  -3.481   9.343  0.00  0.00    +0.099 A 
ATOM      5  N   UNL     1      -2.491  -2.913   9.473  0.00  0.00    -0.349 N 
ATOM      6  C   UNL     1      -2.083  -1.967   8.649  0.00  0.00    +0.089 A 
ATOM      7  N   UNL     1      -4.069  -4.478  10.231  0.00  0.00    -0.312 N 
ATOM      8  C   UNL     1      -5.325  -5.222  10.044  0.00  0.00    +0.111 C 
ATOM      9  C   UNL     1      -4.970  -6.685   9.784  0.00  0.00    +0.054 C 
ATOM     10  C   UNL     1      -3.959  -7.178  10.787  0.00  0.00    -0.041 A 
ATOM     11  C   UNL     1      -3.849  -8.552  10.968  0.00  0.00    +0.004 A 
ATOM     12  C   UNL     1      -2.937  -9.070  11.863  0.00  0.00    +0.000 A 
ATOM     13  C   UNL     1      -2.123  -8.218  12.587  0.00  0.00    +0.000 A 
ATOM     14  C   UNL     1      -2.233  -6.854  12.411  0.00  0.00    +0.005 A 
ATOM     15  C   UNL     1      -3.155  -6.331  11.515  0.00  0.00    -0.027 A 
ATOM     16  C   UNL     1      -3.239  -4.834  11.387  0.00  0.00    +0.141 C 
ATOM     17  H   UNL     1      -1.905  -3.203  10.189  0.00  0.00    +0.167 HD
ENDROOT
BRANCH   1  18
ATOM     18  C   UNL     1      -2.416  -0.439   6.692  0.00  0.00    +0.142 C 
BRANCH  18  22
ATOM     19  N   UNL     1      -0.566  -0.813   3.536  0.00  0.00    -0.293 N 
ATOM     20  C   UNL     1      -1.206  -0.258   4.585  0.00  0.00    +0.300 C 
ATOM     21  O   UNL     1      -1.318   0.951   4.658  0.00  0.00    -0.253 OA
ATOM     22  N   UNL     1      -1.721  -1.042   5.552  0.00  0.00    -0.295 N 
ATOM     23  H   UNL     1      -0.476  -1.777   3.478  0.00  0.00    +0.151 HD
ATOM     24  H   UNL     1      -1.631  -2.006   5.494  0.00  0.00    +0.151 HD
BRANCH  19  25
ATOM     25  C   UNL     1      -0.006   0.040   2.485  0.00  0.00    +0.102 C 
ATOM     26  C   UNL     1       1.429   0.423   2.849  0.00  0.00    +0.033 C 
BRANCH  25  33
ATOM     27  C   UNL     1      -0.140   1.492  -0.010  0.00  0.00    +0.044 C 
ATOM     28  C   UNL     1      -0.074  -0.014  -0.017  0.00  0.00    -0.046 A 
ATOM     29  C   UNL     1      -0.071  -0.700  -1.217  0.00  0.00    +0.004 A 
ATOM     30  C   UNL     1      -0.010  -2.081  -1.224  0.00  0.00    +0.000 A 
ATOM     31  C   UNL     1       0.049  -2.776  -0.030  0.00  0.00    +0.000 A 
ATOM     32  C   UNL     1       0.047  -2.090   1.170  0.00  0.00    +0.006 A 
ATOM     33  C   UNL     1      -0.010  -0.709   1.176  0.00  0.00    -0.025 A 
ENDBRANCH  25  33
ENDBRANCH  19  25
ENDBRANCH  18  22
ENDBRANCH   1  18
TORSDOF 4
