REMARK  Name = ZINC09585035
REMARK  7 active torsions:
REMARK  status: ('A' for Active; 'I' for Inactive)
REMARK    1  A    between atoms: C_3  and  C_6
REMARK    2  A    between atoms: C_6  and  N_57
REMARK    3  A    between atoms: C_7  and  C_8
REMARK    4  A    between atoms: C_7  and  N_57
REMARK    5  A    between atoms: C_13  and  C_14
REMARK    6  A    between atoms: C_13  and  N_57
REMARK    7  A    between atoms: N_16  and  C_17
REMARK                            x       y       z     vdW  Elec       q    Type
REMARK                         _______ _______ _______ _____ _____    ______ ____
ROOT
ATOM      1  C   UNL     1      -8.399   4.337   3.132  0.00  0.00    +0.201 C 
ATOM      2  O   UNL     1      -7.659   5.226   3.499  0.00  0.00    -0.278 OA
ATOM      3  N   UNL     1      -7.926   3.347   2.348  0.00  0.00    -0.287 N 
ATOM      4  H   UNL     1      -8.536   2.696   1.969  0.00  0.00    +0.155 HD
ENDROOT
BRANCH   3   5
ATOM      5  C   UNL     1      -6.553   3.259   2.082  0.00  0.00    +0.037 A 
ATOM      6  C   UNL     1      -5.769   4.405   2.096  0.00  0.00    +0.027 A 
ATOM      7  C   UNL     1      -4.415   4.320   1.833  0.00  0.00    +0.051 A 
ATOM      8  C   UNL     1      -3.836   3.092   1.555  0.00  0.00    +0.167 A 
ATOM      9  C   UNL     1      -4.621   1.941   1.540  0.00  0.00    +0.169 A 
ATOM     10  C   UNL     1      -5.978   2.027   1.804  0.00  0.00    +0.072 A 
ATOM     11  O   UNL     1      -3.825   0.872   1.241  0.00  0.00    -0.447 OA
ATOM     12  C   UNL     1      -2.480   1.325   1.457  0.00  0.00    +0.254 C 
ATOM     13  O   UNL     1      -2.546   2.745   1.266  0.00  0.00    -0.448 OA
ATOM     14  C   UNL     1      -1.540   0.695   0.435  0.00  0.00    +0.093 C 
ATOM     15  C   UNL     1      -0.117   1.211   0.662  0.00  0.00    +0.008 C 
ATOM     16  C   UNL     1       0.334   0.854   2.081  0.00  0.00    +0.000 C 
ATOM     17  C   UNL     1      -0.605   1.511   3.095  0.00  0.00    +0.008 C 
ATOM     18  C   UNL     1      -2.031   0.998   2.877  0.00  0.00    +0.093 C 
ENDBRANCH   3   5
BRANCH   1  19
ATOM     19  C   UNL     1      -9.846   4.339   3.552  0.00  0.00    +0.020 C 
BRANCH  19  20
ATOM     20  N   UNL     1     -10.178   5.673   4.096  0.00  0.00    +0.395 N 
ATOM     21  H   UNL     1      -9.400   5.998   4.681  0.00  0.00    -0.080 HD
BRANCH  20  22
ATOM     22  C   UNL     1     -10.380   6.633   2.990  0.00  0.00    -0.002 C 
BRANCH  22  25
ATOM     23  C   UNL     1     -10.039  10.046   4.338  0.00  0.00    +0.041 A 
ATOM     24  C   UNL     1      -9.478   8.866   3.796  0.00  0.00    +0.042 A 
ATOM     25  C   UNL     1     -10.499   8.020   3.566  0.00  0.00    +0.089 A 
ATOM     26  O   UNL     1     -11.641   8.624   3.932  0.00  0.00    -0.470 OA
ATOM     27  C   UNL     1     -11.368   9.851   4.406  0.00  0.00    +0.195 A 
ENDBRANCH  22  25
ENDBRANCH  20  22
BRANCH  20  28
ATOM     28  C   UNL     1     -11.400   5.591   4.923  0.00  0.00    -0.002 C 
BRANCH  28  29
ATOM     29  C   UNL     1     -11.035   5.018   6.268  0.00  0.00    +0.089 A 
ATOM     30  C   UNL     1     -10.700   5.728   7.360  0.00  0.00    +0.042 A 
ATOM     31  C   UNL     1     -10.436   4.795   8.390  0.00  0.00    +0.041 A 
ATOM     32  C   UNL     1     -10.626   3.571   7.865  0.00  0.00    +0.195 A 
ATOM     33  O   UNL     1     -10.995   3.713   6.581  0.00  0.00    -0.470 OA
ENDBRANCH  28  29
ENDBRANCH  20  28
ENDBRANCH  19  20
ENDBRANCH   1  19
TORSDOF 7
