REMARK  Name = ZINC44877766
REMARK  12 active torsions:
REMARK  status: ('A' for Active; 'I' for Inactive)
REMARK    1  A    between atoms: C_1  and  C_2
REMARK    2  A    between atoms: C_5  and  N_8
REMARK    3  A    between atoms: N_8  and  C_9
REMARK    4  A    between atoms: N_8  and  S_29
REMARK    5  A    between atoms: C_9  and  C_10
REMARK    6  A    between atoms: N_12  and  C_13
REMARK    7  A    between atoms: C_13  and  C_14
REMARK    8  A    between atoms: C_17  and  C_20
REMARK    9  A    between atoms: C_20  and  N_21
REMARK   10  A    between atoms: C_25  and  C_28
REMARK   11  A    between atoms: S_29  and  C_32
REMARK   12  A    between atoms: C_35  and  C_38
REMARK                            x       y       z     vdW  Elec       q    Type
REMARK                         _______ _______ _______ _____ _____    ______ ____
ROOT
ATOM      1  C   UNL     1       1.985  -5.024  -1.222  0.00  0.00    +0.232 C 
ATOM      2  O   UNL     1       2.635  -4.564  -0.307  0.00  0.00    -0.274 OA
ATOM      3  N   UNL     1       2.605  -5.656  -2.238  0.00  0.00    -0.310 N 
ATOM      4  H   UNL     1       2.086  -6.023  -2.970  0.00  0.00    +0.149 HD
ENDROOT
BRANCH   1   5
ATOM      5  C   UNL     1       0.484  -4.888  -1.223  0.00  0.00    +0.227 C 
BRANCH   5   6
ATOM      6  N   UNL     1       0.058  -4.167  -0.021  0.00  0.00    -0.194 N 
BRANCH   6  11
ATOM      7  C   UNL     1       0.026   1.503   0.027  0.00  0.00    +0.044 C 
ATOM      8  C   UNL     1       0.035  -0.004   0.014  0.00  0.00    -0.050 A 
ATOM      9  C   UNL     1      -0.737  -0.690  -0.905  0.00  0.00    +0.005 A 
ATOM     10  C   UNL     1      -0.732  -2.071  -0.919  0.00  0.00    +0.025 A 
ATOM     11  C   UNL     1       0.051  -2.771  -0.009  0.00  0.00    +0.052 A 
ATOM     12  C   UNL     1       0.825  -2.078   0.912  0.00  0.00    +0.025 A 
ATOM     13  C   UNL     1       0.820  -0.697   0.918  0.00  0.00    +0.005 A 
ENDBRANCH   6  11
BRANCH   6  14
ATOM     14  S   UNL     1      -0.415  -5.009   1.325  0.00  0.00    +0.075 S 
ATOM     15  O   UNL     1       0.303  -6.236   1.309  0.00  0.00    -0.150 OA
ATOM     16  O   UNL     1      -0.348  -4.101   2.416  0.00  0.00    -0.150 OA
BRANCH  14  17
ATOM     17  C   UNL     1      -2.115  -5.418   1.112  0.00  0.00    +0.109 A 
ATOM     18  C   UNL     1      -3.096  -4.550   1.556  0.00  0.00    +0.029 A 
ATOM     19  C   UNL     1      -4.430  -4.871   1.389  0.00  0.00    +0.005 A 
ATOM     20  C   UNL     1      -4.784  -6.059   0.779  0.00  0.00    -0.050 A 
ATOM     21  C   UNL     1      -3.804  -6.927   0.335  0.00  0.00    +0.005 A 
ATOM     22  C   UNL     1      -2.470  -6.604   0.497  0.00  0.00    +0.029 A 
ATOM     23  C   UNL     1      -6.239  -6.410   0.598  0.00  0.00    +0.044 C 
ENDBRANCH  14  17
ENDBRANCH   6  14
ENDBRANCH   5   6
ENDBRANCH   1   5
BRANCH   3  24
ATOM     24  C   UNL     1       4.064  -5.788  -2.237  0.00  0.00    +0.139 C 
BRANCH  24  25
ATOM     25  C   UNL     1       4.503  -6.529  -3.474  0.00  0.00    -0.030 A 
ATOM     26  C   UNL     1       4.604  -7.907  -3.454  0.00  0.00    +0.005 A 
ATOM     27  C   UNL     1       5.006  -8.587  -4.589  0.00  0.00    +0.002 A 
ATOM     28  C   UNL     1       5.306  -7.888  -5.743  0.00  0.00    -0.064 A 
ATOM     29  C   UNL     1       5.205  -6.510  -5.763  0.00  0.00    +0.002 A 
ATOM     30  C   UNL     1       4.798  -5.830  -4.629  0.00  0.00    +0.005 A 
BRANCH  28  31
ATOM     31  C   UNL     1       5.746  -8.629  -6.980  0.00  0.00    -0.043 C 
BRANCH  31  32
ATOM     32  N   UNL     1       4.569  -8.974  -7.788  0.00  0.00    +0.383 N 
ATOM     33  C   UNL     1       3.723  -9.913  -7.042  0.00  0.00    -0.078 C 
ATOM     34  C   UNL     1       2.455 -10.213  -7.846  0.00  0.00    -0.018 C 
ATOM     35  C   UNL     1       2.845 -10.832  -9.191  0.00  0.00    -0.001 C 
ATOM     36  C   UNL     1       3.787  -9.875  -9.928  0.00  0.00    -0.031 C 
ATOM     37  C   UNL     1       5.005  -9.588  -9.048  0.00  0.00    -0.075 C 
ATOM     38  C   UNL     1       4.243 -10.517 -11.240  0.00  0.00    +0.005 C 
ATOM     39  H   UNL     1       4.042  -8.136  -7.988  0.00  0.00    -0.081 HD
ENDBRANCH  31  32
ENDBRANCH  28  31
ENDBRANCH  24  25
ENDBRANCH   3  24
TORSDOF 9
