REMARK  Name = ZINC47138153
REMARK  7 active torsions:
REMARK  status: ('A' for Active; 'I' for Inactive)
REMARK    1  A    between atoms: C_4  and  O_31
REMARK    2  A    between atoms: C_5  and  C_7
REMARK    3  A    between atoms: N_8  and  N_9
REMARK    4  A    between atoms: N_11  and  C_25
REMARK    5  A    between atoms: C_15  and  C_16
REMARK    6  A    between atoms: C_21  and  O_22
REMARK    7  A    between atoms: C_25  and  C_26
REMARK                            x       y       z     vdW  Elec       q    Type
REMARK                         _______ _______ _______ _____ _____    ______ ____
ROOT
ATOM      1  N   UNL     1       3.556  -2.141  -0.272  0.00  0.00    -0.126 NA
ATOM      2  C   UNL     1       4.692  -2.776  -0.061  0.00  0.00    +0.190 C 
ATOM      3  N   UNL     1       4.933  -4.132  -0.088  0.00  0.00    -0.237 N 
ATOM      4  C   UNL     1       6.145  -4.606   0.149  0.00  0.00    +0.259 C 
ATOM      5  O   UNL     1       6.375  -5.801   0.129  0.00  0.00    -0.269 OA
ATOM      6  C   UNL     1       7.204  -3.621   0.439  0.00  0.00    +0.078 C 
ATOM      7  C   UNL     1       8.518  -3.824   0.714  0.00  0.00    +0.032 C 
ATOM      8  S   UNL     1       6.294  -2.087   0.322  0.00  0.00    -0.047 S 
ENDROOT
BRANCH   7   9
ATOM      9  C   UNL     1       9.432  -2.681   0.816  0.00  0.00    +0.019 A 
ATOM     10  C   UNL     1       9.077  -1.443   0.266  0.00  0.00    +0.031 A 
ATOM     11  C   UNL     1       9.941  -0.374   0.366  0.00  0.00    +0.042 A 
ATOM     12  C   UNL     1      11.161  -0.518   1.010  0.00  0.00    +0.023 A 
ATOM     13  C   UNL     1      11.524  -1.734   1.557  0.00  0.00    +0.047 A 
ATOM     14  C   UNL     1      10.667  -2.819   1.471  0.00  0.00    +0.124 A 
ATOM     15 CL   UNL     1       9.500   1.160  -0.316  0.00  0.00    -0.084 Cl
BRANCH  14  16
ATOM     16  O   UNL     1      11.021  -4.012   2.013  0.00  0.00    -0.506 OA
ATOM     17  H   UNL     1      11.503  -4.592   1.407  0.00  0.00    +0.292 HD
ENDBRANCH  14  16
ENDBRANCH   7   9
BRANCH   1  19
ATOM     18  C   UNL     1       1.359  -2.178  -0.749  0.00  0.00    +0.146 C 
ATOM     19  N   UNL     1       2.485  -2.807  -0.540  0.00  0.00    -0.155 NA
BRANCH  18  24
ATOM     20  C   UNL     1       2.487   1.393  -0.952  0.00  0.00    +0.001 A 
ATOM     21  C   UNL     1       1.283   2.065  -0.825  0.00  0.00    +0.004 A 
ATOM     22  C   UNL     1       0.102   1.363  -0.674  0.00  0.00    +0.046 A 
ATOM     23  C   UNL     1       0.115  -0.022  -0.648  0.00  0.00    +0.125 A 
ATOM     24  C   UNL     1       1.332  -0.708  -0.776  0.00  0.00    +0.036 A 
ATOM     25  C   UNL     1       2.520   0.014  -0.929  0.00  0.00    +0.013 A 
BRANCH  23  26
ATOM     26  O   UNL     1      -1.045  -0.712  -0.498  0.00  0.00    -0.506 OA
ATOM     27  H   UNL     1      -1.522  -0.863  -1.326  0.00  0.00    +0.292 HD
ENDBRANCH  23  26
ENDBRANCH  18  24
ENDBRANCH   1  19
BRANCH   3  28
ATOM     28  C   UNL     1       3.837  -5.058  -0.382  0.00  0.00    +0.190 C 
BRANCH  28  29
ATOM     29  C   UNL     1       3.764  -5.294  -1.869  0.00  0.00    +0.123 A 
ATOM     30  C   UNL     1       4.407  -6.264  -2.544  0.00  0.00    +0.046 A 
ATOM     31  C   UNL     1       4.056  -6.117  -3.905  0.00  0.00    +0.041 A 
ATOM     32  C   UNL     1       3.219  -5.066  -3.981  0.00  0.00    +0.195 A 
ATOM     33  O   UNL     1       3.042  -4.575  -2.744  0.00  0.00    -0.466 OA
ENDBRANCH  28  29
ENDBRANCH   3  28
TORSDOF 7
