REMARK  Name = ZINC33262957
REMARK  11 active torsions:
REMARK  status: ('A' for Active; 'I' for Inactive)
REMARK    1  A    between atoms: C_1  and  C_2
REMARK    2  A    between atoms: C_2  and  C_3
REMARK    3  A    between atoms: C_2  and  N_4
REMARK    4  A    between atoms: C_8  and  S_13
REMARK    5  A    between atoms: S_13  and  N_16
REMARK    6  A    between atoms: C_20  and  C_22
REMARK    7  A    between atoms: N_24  and  C_25
REMARK    8  A    between atoms: C_25  and  C_26
REMARK    9  A    between atoms: C_26  and  N_27
REMARK   10  A    between atoms: N_27  and  C_28
REMARK   11  A    between atoms: N_27  and  C_29
REMARK                            x       y       z     vdW  Elec       q    Type
REMARK                         _______ _______ _______ _____ _____    ______ ____
ROOT
ATOM      1  N   UNL     1      -3.702   0.914   1.075  0.00  0.00    -0.165 NA
ATOM      2  C   UNL     1      -2.963  -0.308   1.441  0.00  0.00    +0.110 C 
ATOM      3  C   UNL     1      -2.379  -0.009   2.847  0.00  0.00    +0.019 C 
ATOM      4  C   UNL     1      -3.531   0.804   3.494  0.00  0.00    +0.031 C 
ATOM      5  C   UNL     1      -4.088   1.618   2.307  0.00  0.00    +0.165 C 
ENDROOT
BRANCH   5   6
ATOM      6  C   UNL     1      -3.496   3.004   2.312  0.00  0.00    +0.232 C 
ATOM      7  O   UNL     1      -2.473   3.228   1.701  0.00  0.00    -0.274 OA
ATOM      8  N   UNL     1      -4.103   3.993   2.997  0.00  0.00    -0.316 N 
ATOM      9  H   UNL     1      -5.031   3.790   3.551  0.00  0.00    +0.149 HD
BRANCH   8  10
ATOM     10  C   UNL     1      -3.527   5.340   3.002  0.00  0.00    +0.086 C 
BRANCH  10  11
ATOM     11  C   UNL     1      -4.404   6.267   3.847  0.00  0.00    -0.060 C 
BRANCH  11  12
ATOM     12  N   UNL     1      -3.827   7.617   3.852  0.00  0.00    +0.381 N 
ATOM     13  C   UNL     1      -3.876   8.216   2.512  0.00  0.00    -0.096 C 
ATOM     14  H   UNL     1      -2.770   7.532   4.146  0.00  0.00    -0.082 HD
BRANCH  12  15
ATOM     15  C   UNL     1      -4.501   8.474   4.837  0.00  0.00    -0.069 C 
ATOM     16  C   UNL     1      -5.959   8.679   4.421  0.00  0.00    -0.015 C 
ATOM     17  C   UNL     1      -6.662   9.572   5.446  0.00  0.00    -0.002 C 
ATOM     18  C   UNL     1      -5.955  10.927   5.511  0.00  0.00    -0.000 C 
ATOM     19  C   UNL     1      -4.497  10.722   5.927  0.00  0.00    -0.002 C 
ATOM     20  C   UNL     1      -3.794   9.830   4.902  0.00  0.00    -0.015 C 
ENDBRANCH  12  15
ENDBRANCH  11  12
ENDBRANCH  10  11
ENDBRANCH   8  10
ENDBRANCH   5   6
BRANCH   1  21
ATOM     21  S   UNL     1      -4.047   1.408  -0.468  0.00  0.00    +0.062 S 
ATOM     22  O   UNL     1      -3.010   0.902  -1.297  0.00  0.00    -0.153 OA
ATOM     23  O   UNL     1      -4.354   2.793  -0.391  0.00  0.00    -0.153 OA
BRANCH  21  28
ATOM     24  N   UNL     1      -9.130  -1.109  -1.984  0.00  0.00    -0.241 N 
ATOM     25  C   UNL     1      -7.834  -0.715  -1.747  0.00  0.00    +0.089 A 
ATOM     26  C   UNL     1      -6.590  -1.240  -2.077  0.00  0.00    +0.031 A 
ATOM     27  C   UNL     1      -5.453  -0.593  -1.682  0.00  0.00    +0.031 A 
ATOM     28  C   UNL     1      -5.529   0.590  -0.958  0.00  0.00    +0.108 A 
ATOM     29  C   UNL     1      -6.737   1.122  -0.616  0.00  0.00    +0.060 A 
ATOM     30  C   UNL     1      -7.918   0.478  -1.009  0.00  0.00    +0.115 A 
ATOM     31  N   UNL     1      -9.225   0.757  -0.830  0.00  0.00    -0.129 NA
ATOM     32  N   UNL     1      -9.955  -0.145  -1.384  0.00  0.00    -0.064 NA
BRANCH  24  34
ATOM     33  C   UNL     1     -10.399  -3.191  -1.795  0.00  0.00    +0.032 C 
ATOM     34  C   UNL     1      -9.565  -2.300  -2.717  0.00  0.00    +0.103 C 
ATOM     35  C   UNL     1     -10.410  -1.878  -3.920  0.00  0.00    +0.032 C 
ENDBRANCH  24  34
ENDBRANCH  21  28
ENDBRANCH   1  21
TORSDOF 8
