REMARK  Name = ZINC04745247
REMARK  4 active torsions:
REMARK  status: ('A' for Active; 'I' for Inactive)
REMARK    1  A    between atoms: C_6  and  N_7
REMARK    2  A    between atoms: N_7  and  C_8
REMARK    3  A    between atoms: C_16  and  C_20
REMARK    4  A    between atoms: C_17  and  N_19
REMARK                            x       y       z     vdW  Elec       q    Type
REMARK                         _______ _______ _______ _____ _____    ______ ____
ROOT
ATOM      1  C   UNL     1       1.189  -0.704  -0.013  0.00  0.00    +0.055 A 
ATOM      2  C   UNL     1       2.403  -0.002  -0.021  0.00  0.00    +0.093 A 
ATOM      3  C   UNL     1       2.376   1.463  -0.013  0.00  0.00    +0.094 A 
ATOM      4  C   UNL     1       1.133   2.124   0.003  0.00  0.00    +0.070 A 
ATOM      5  C   UNL     1      -0.017   1.398   0.010  0.00  0.00    +0.146 A 
ATOM      6  C   UNL     1       0.002  -0.004   0.002  0.00  0.00    +0.065 A 
ATOM      7  F   UNL     1      -1.204   2.042   0.019  0.00  0.00    -0.203 F 
ATOM      8  N   UNL     1       3.525   2.138  -0.021  0.00  0.00    -0.231 NA
ATOM      9  C   UNL     1       4.671   1.478  -0.036  0.00  0.00    +0.180 A 
ATOM     10  C   UNL     1       4.698   0.065  -0.043  0.00  0.00    +0.153 A 
ATOM     11  N   UNL     1       3.580  -0.637  -0.036  0.00  0.00    -0.228 NA
ENDROOT
BRANCH  10  12
ATOM     12  N   UNL     1       5.915  -0.593  -0.059  0.00  0.00    -0.341 N 
ATOM     13  H   UNL     1       6.741  -0.085  -0.065  0.00  0.00    +0.144 HD
ATOM     14  H   UNL     1       5.942  -1.563  -0.065  0.00  0.00    +0.144 HD
ENDBRANCH  10  12
BRANCH   6  15
ATOM     15  N   UNL     1      -1.203  -0.704   0.010  0.00  0.00    -0.339 N 
ATOM     16  H   UNL     1      -2.044  -0.221   0.021  0.00  0.00    +0.146 HD
BRANCH  15  17
ATOM     17  C   UNL     1      -1.200  -2.169   0.002  0.00  0.00    +0.070 C 
ATOM     18  C   UNL     1      -1.087  -2.671  -1.438  0.00  0.00    +0.022 C 
ATOM     19  C   UNL     1      -1.084  -4.201  -1.447  0.00  0.00    +0.002 C 
ATOM     20  C   UNL     1      -2.384  -4.717  -0.827  0.00  0.00    +0.000 C 
ATOM     21  C   UNL     1      -2.496  -4.215   0.614  0.00  0.00    +0.002 C 
ATOM     22  C   UNL     1      -2.500  -2.685   0.622  0.00  0.00    +0.022 C 
ENDBRANCH  15  17
ENDBRANCH   6  15
BRANCH   9  23
ATOM     23  C   UNL     1       5.903   2.207  -0.044  0.00  0.00    +0.123 C 
ATOM     24  N   UNL     1       6.881   2.785  -0.050  0.00  0.00    -0.189 NA
ENDBRANCH   9  23
TORSDOF 4
