REMARK  Name = ZINC13468079
REMARK  8 active torsions:
REMARK  status: ('A' for Active; 'I' for Inactive)
REMARK    1  A    between atoms: C_1  and  C_2
REMARK    2  A    between atoms: C_5  and  C_8
REMARK    3  A    between atoms: C_11  and  C_36
REMARK    4  A    between atoms: C_14  and  C_29
REMARK    5  A    between atoms: C_19  and  C_22
REMARK    6  A    between atoms: C_25  and  C_28
REMARK    7  A    between atoms: C_32  and  C_35
REMARK    8  A    between atoms: C_39  and  C_42
REMARK                            x       y       z     vdW  Elec       q    Type
REMARK                         _______ _______ _______ _____ _____    ______ ____
ROOT
ATOM      1  C   UNL     1       0.203  -3.486   0.189  0.00  0.00    -0.028 C 
ATOM      2  C   UNL     1      -1.141  -4.187   0.448  0.00  0.00    +0.067 C 
ATOM      3  C   UNL     1      -0.903  -5.705   0.388  0.00  0.00    +0.093 C 
ATOM      4  N   UNL     1       0.134  -6.070   1.360  0.00  0.00    -0.301 NA
ATOM      5  C   UNL     1      -0.275  -5.794   2.742  0.00  0.00    +0.093 C 
ATOM      6  C   UNL     1      -0.484  -4.280   2.917  0.00  0.00    +0.067 C 
ATOM      7  C   UNL     1      -1.529  -3.865   1.887  0.00  0.00    +0.141 C 
ATOM      8  O   UNL     1      -2.570  -3.329   2.185  0.00  0.00    -0.297 OA
ATOM      9  C   UNL     1       0.824  -3.574   2.523  0.00  0.00    -0.028 C 
ATOM     10  N   UNL     1       1.195  -3.964   1.158  0.00  0.00    +0.389 N 
ATOM     11  H   UNL     1       0.410  -7.034   1.250  0.00  0.00    +0.123 HD
ATOM     12  H   UNL     1       1.253  -4.970   1.105  0.00  0.00    -0.084 HD
ATOM     13  H   UNL     1       2.095  -3.568   0.933  0.00  0.00    -0.084 HD
ENDROOT
BRANCH   1  18
ATOM     14  C   UNL     1      -0.459   2.226   0.760  0.00  0.00    +0.044 C 
ATOM     15  C   UNL     1      -0.286   0.737   0.611  0.00  0.00    -0.050 A 
ATOM     16  C   UNL     1       0.959   0.164   0.790  0.00  0.00    +0.003 A 
ATOM     17  C   UNL     1       1.117  -1.203   0.653  0.00  0.00    +0.002 A 
ATOM     18  C   UNL     1       0.030  -1.996   0.339  0.00  0.00    -0.061 A 
ATOM     19  C   UNL     1      -1.215  -1.424   0.162  0.00  0.00    +0.002 A 
ATOM     20  C   UNL     1      -1.375  -0.058   0.302  0.00  0.00    +0.003 A 
ENDBRANCH   1  18
BRANCH   9  21
ATOM     21  C   UNL     1       1.920  -3.975   3.477  0.00  0.00    -0.061 A 
ATOM     22  C   UNL     1       3.078  -4.556   2.994  0.00  0.00    +0.002 A 
ATOM     23  C   UNL     1       4.083  -4.924   3.869  0.00  0.00    +0.003 A 
ATOM     24  C   UNL     1       3.930  -4.712   5.226  0.00  0.00    -0.050 A 
ATOM     25  C   UNL     1       2.772  -4.131   5.709  0.00  0.00    +0.003 A 
ATOM     26  C   UNL     1       1.769  -3.759   4.834  0.00  0.00    +0.002 A 
ATOM     27  C   UNL     1       5.025  -5.115   6.180  0.00  0.00    +0.044 C 
ENDBRANCH   9  21
BRANCH   5  28
ATOM     28  C   UNL     1       0.798  -6.268   3.689  0.00  0.00    -0.030 A 
ATOM     29  C   UNL     1       0.629  -6.123   5.053  0.00  0.00    +0.005 A 
ATOM     30  C   UNL     1       1.613  -6.557   5.921  0.00  0.00    +0.003 A 
ATOM     31  C   UNL     1       2.766  -7.137   5.425  0.00  0.00    -0.050 A 
ATOM     32  C   UNL     1       2.934  -7.283   4.061  0.00  0.00    +0.003 A 
ATOM     33  C   UNL     1       1.948  -6.852   3.193  0.00  0.00    +0.005 A 
ATOM     34  C   UNL     1       3.839  -7.610   6.372  0.00  0.00    +0.044 C 
ENDBRANCH   5  28
BRANCH   3  35
ATOM     35  C   UNL     1      -0.453  -6.090  -0.998  0.00  0.00    -0.030 A 
ATOM     36  C   UNL     1       0.866  -5.909  -1.371  0.00  0.00    +0.005 A 
ATOM     37  C   UNL     1       1.278  -6.261  -2.643  0.00  0.00    +0.003 A 
ATOM     38  C   UNL     1       0.373  -6.796  -3.540  0.00  0.00    -0.050 A 
ATOM     39  C   UNL     1      -0.945  -6.978  -3.166  0.00  0.00    +0.003 A 
ATOM     40  C   UNL     1      -1.357  -6.629  -1.893  0.00  0.00    +0.005 A 
ATOM     41  C   UNL     1       0.823  -7.180  -4.926  0.00  0.00    +0.044 C 
ENDBRANCH   3  35
TORSDOF 4
