REMARK  Name = ZINC09065232
REMARK  8 active torsions:
REMARK  status: ('A' for Active; 'I' for Inactive)
REMARK    1  A    between atoms: C_4  and  C_7
REMARK    2  A    between atoms: C_7  and  C_9
REMARK    3  A    between atoms: C_14  and  N_15
REMARK    4  A    between atoms: N_15  and  C_16
REMARK    5  A    between atoms: C_17  and  C_18
REMARK    6  A    between atoms: C_17  and  C_20
REMARK    7  A    between atoms: C_22  and  C_25
REMARK    8  A    between atoms: C_29  and  N_31
REMARK                            x       y       z     vdW  Elec       q    Type
REMARK                         _______ _______ _______ _____ _____    ______ ____
ROOT
ATOM      1  C   UNL     1       7.441  -2.527  -0.071  0.00  0.00    +0.093 C 
ATOM      2  C   UNL     1       8.602  -1.716  -0.115  0.00  0.00    +0.098 C 
ENDROOT
BRANCH   2   3
ATOM      3  C   UNL     1       9.868  -2.308  -0.197  0.00  0.00    +0.120 A 
ATOM      4  N   UNL     1      11.067  -1.709  -0.243  0.00  0.00    -0.238 NA
ATOM      5  C   UNL     1      12.140  -2.437  -0.319  0.00  0.00    +0.079 A 
ATOM      6  C   UNL     1      11.953  -3.900  -0.350  0.00  0.00    +0.075 A 
ATOM      7  S   UNL     1      10.277  -4.043  -0.259  0.00  0.00    -0.074 S 
BRANCH   5   8
ATOM      8  C   UNL     1      13.482  -1.829  -0.373  0.00  0.00    +0.003 A 
ATOM      9  C   UNL     1      14.620  -2.641  -0.461  0.00  0.00    +0.010 A 
ATOM     10  C   UNL     1      15.871  -2.065  -0.511  0.00  0.00    +0.003 A 
ATOM     11  C   UNL     1      16.005  -0.687  -0.474  0.00  0.00    +0.033 A 
ATOM     12  C   UNL     1      14.885   0.124  -0.387  0.00  0.00    +0.127 A 
ATOM     13  C   UNL     1      13.626  -0.436  -0.342  0.00  0.00    +0.042 A 
BRANCH  12  14
ATOM     14  N   UNL     1      15.040   1.595  -0.347  0.00  0.00    +0.056 N 
ATOM     15  O   UNL     1      16.241   2.132  -0.395  0.00  0.00    -0.126 OA
ATOM     16  O   UNL     1      13.976   2.367  -0.264  0.00  0.00    -0.126 OA
ENDBRANCH  12  14
ENDBRANCH   5   8
ENDBRANCH   2   3
BRANCH   1  17
ATOM     17  N   UNL     1       6.237  -1.964   0.007  0.00  0.00    -0.319 N 
ATOM     18  H   UNL     1       6.157  -1.002   0.109  0.00  0.00    +0.152 HD
BRANCH  17  24
ATOM     19  C   UNL     1       3.826  -2.151  -0.088  0.00  0.00    +0.045 A 
ATOM     20  C   UNL     1       2.688  -2.956  -0.158  0.00  0.00    +0.033 A 
ATOM     21  C   UNL     1       2.816  -4.330  -0.191  0.00  0.00    +0.042 A 
ATOM     22  C   UNL     1       4.072  -4.918  -0.154  0.00  0.00    +0.022 A 
ATOM     23  C   UNL     1       5.208  -4.137  -0.085  0.00  0.00    +0.025 A 
ATOM     24  C   UNL     1       5.099  -2.750  -0.057  0.00  0.00    +0.042 A 
ATOM     25 CL   UNL     1       1.398  -5.328  -0.278  0.00  0.00    -0.084 Cl
BRANCH  19  26
ATOM     26  C   UNL     1       3.697  -0.682  -0.053  0.00  0.00    +0.195 C 
ATOM     27  O   UNL     1       3.427  -0.072  -1.069  0.00  0.00    -0.287 OA
BRANCH  26  31
ATOM     28  C   UNL     1       4.263   1.413   3.598  0.00  0.00    +0.000 A 
ATOM     29  C   UNL     1       4.068   2.117   2.423  0.00  0.00    +0.001 A 
ATOM     30  C   UNL     1       3.884   1.443   1.234  0.00  0.00    +0.012 A 
ATOM     31  C   UNL     1       3.894   0.047   1.218  0.00  0.00    +0.022 A 
ATOM     32  C   UNL     1       4.091  -0.658   2.408  0.00  0.00    +0.012 A 
ATOM     33  C   UNL     1       4.274   0.029   3.590  0.00  0.00    +0.001 A 
ENDBRANCH  26  31
ENDBRANCH  19  26
ENDBRANCH  17  24
ENDBRANCH   1  17
BRANCH   2  34
ATOM     34  C   UNL     1       8.480  -0.290  -0.076  0.00  0.00    +0.103 C 
ATOM     35  N   UNL     1       8.384   0.842  -0.045  0.00  0.00    -0.191 NA
ENDBRANCH   2  34
TORSDOF 8
