REMARK  Name = ZINC51680653
REMARK  4 active torsions:
REMARK  status: ('A' for Active; 'I' for Inactive)
REMARK    1  A    between atoms: C_3  and  C_6
REMARK    2  A    between atoms: C_6  and  C_8
REMARK    3  A    between atoms: C_6  and  N_18
REMARK    4  A    between atoms: C_25  and  C_28
REMARK                            x       y       z     vdW  Elec       q    Type
REMARK                         _______ _______ _______ _____ _____    ______ ____
ROOT
ATOM      1  C   UNL     1       3.757   1.843  -0.024  0.00  0.00    +0.142 C 
ENDROOT
BRANCH   1   2
ATOM      2  C   UNL     1       4.296   1.784  -1.429  0.00  0.00    -0.022 A 
ATOM      3  C   UNL     1       4.750   0.585  -1.948  0.00  0.00    +0.006 A 
ATOM      4  C   UNL     1       5.245   0.540  -3.235  0.00  0.00    +0.004 A 
ATOM      5  C   UNL     1       5.290   1.688  -4.015  0.00  0.00    -0.044 A 
ATOM      6  C   UNL     1       4.834   2.881  -3.500  0.00  0.00    -0.044 A 
ATOM      7  C   UNL     1       4.334   2.924  -2.205  0.00  0.00    +0.009 A 
ATOM      8  C   UNL     1       4.838   4.161  -4.294  0.00  0.00    +0.035 C 
ATOM      9  C   UNL     1       5.780   4.048  -5.491  0.00  0.00    +0.005 C 
ATOM     10  C   UNL     1       5.434   2.767  -6.259  0.00  0.00    +0.005 C 
ATOM     11  C   UNL     1       5.850   1.568  -5.409  0.00  0.00    +0.035 C 
ENDBRANCH   1   2
BRANCH   1  12
ATOM     12  N   UNL     1       4.583   1.008   0.852  0.00  0.00    -0.288 N 
ATOM     13  C   UNL     1       4.641   1.268   2.173  0.00  0.00    +0.303 C 
ATOM     14  O   UNL     1       4.082   2.249   2.625  0.00  0.00    -0.253 OA
ATOM     15  N   UNL     1       5.319   0.441   2.993  0.00  0.00    -0.280 N 
ATOM     16  C   UNL     1       6.103  -0.683   2.457  0.00  0.00    +0.137 C 
ATOM     17  C   UNL     1       7.509  -0.625   3.064  0.00  0.00    +0.180 C 
ATOM     18  O   UNL     1       7.405  -0.546   4.487  0.00  0.00    -0.364 OA
ATOM     19  C   UNL     1       6.744   0.630   4.961  0.00  0.00    +0.221 C 
ATOM     20  C   UNL     1       5.303   0.640   4.451  0.00  0.00    +0.150 C 
ATOM     21  H   UNL     1       5.088   0.267   0.481  0.00  0.00    +0.151 HD
BRANCH  19  22
ATOM     22  C   UNL     1       6.748   0.637   6.468  0.00  0.00    +0.241 C 
ATOM     23  O   UNL     1       7.184  -0.317   7.078  0.00  0.00    -0.273 OA
ATOM     24  N   UNL     1       6.267   1.703   7.138  0.00  0.00    -0.327 N 
ATOM     25  H   UNL     1       5.918   2.465   6.651  0.00  0.00    +0.145 HD
ATOM     26  H   UNL     1       6.270   1.707   8.108  0.00  0.00    +0.145 HD
ENDBRANCH  19  22
ENDBRANCH   1  12
BRANCH   1  29
ATOM     27  C   UNL     1      -0.021   1.360   0.020  0.00  0.00    +0.008 A 
ATOM     28  C   UNL     1       1.180   2.043   0.008  0.00  0.00    +0.013 A 
ATOM     29  C   UNL     1       2.338   1.338  -0.008  0.00  0.00    +0.014 A 
ATOM     30  S   UNL     1       1.744  -0.346  -0.007  0.00  0.00    -0.099 S 
ATOM     31  C   UNL     1      -0.006   0.004   0.015  0.00  0.00    +0.045 A 
ENDBRANCH   1  29
TORSDOF 4
