REMARK  Name = ZINC24214973
REMARK  7 active torsions:
REMARK  status: ('A' for Active; 'I' for Inactive)
REMARK    1  A    between atoms: C_1  and  C_2
REMARK    2  A    between atoms: C_6  and  C_13
REMARK    3  A    between atoms: C_13  and  N_14
REMARK    4  A    between atoms: C_20  and  C_22
REMARK    5  A    between atoms: C_23  and  C_34
REMARK    6  A    between atoms: N_25  and  C_28
REMARK    7  A    between atoms: C_26  and  C_27
REMARK                            x       y       z     vdW  Elec       q    Type
REMARK                         _______ _______ _______ _____ _____    ______ ____
ROOT
ATOM      1  N   UNL     1      -4.982   1.952   4.975  0.00  0.00    +0.394 N 
ATOM      2  C   UNL     1      -4.731   1.332   6.286  0.00  0.00    -0.058 C 
ATOM      3  C   UNL     1      -5.081  -0.155   6.202  0.00  0.00    +0.085 C 
ATOM      4  N   UNL     1      -6.412  -0.323   5.625  0.00  0.00    -0.318 N 
ATOM      5  C   UNL     1      -7.029   0.636   4.927  0.00  0.00    +0.204 C 
ATOM      6  O   UNL     1      -8.122   0.401   4.457  0.00  0.00    -0.277 OA
ATOM      7  C   UNL     1      -6.425   1.993   4.702  0.00  0.00    +0.054 C 
ATOM      8  H   UNL     1      -6.952  -1.272   5.756  0.00  0.00    +0.149 HD
ATOM      9  H   UNL     1      -4.498   1.340   4.199  0.00  0.00    -0.080 HD
ENDROOT
BRANCH   7  10
ATOM     10  C   UNL     1      -6.651   2.410   3.271  0.00  0.00    -0.009 A 
ATOM     11  C   UNL     1      -5.963   1.925   2.154  0.00  0.00    +0.063 A 
ATOM     12  N   UNL     1      -6.438   2.521   1.090  0.00  0.00    -0.171 NA
ATOM     13  N   UNL     1      -7.444   3.407   1.496  0.00  0.00    -0.237 N 
ATOM     14  C   UNL     1      -7.559   3.316   2.841  0.00  0.00    +0.044 A 
ATOM     15  C   UNL     1      -8.524   4.088   3.704  0.00  0.00    +0.066 C 
ATOM     16  C   UNL     1      -4.865   0.893   2.172  0.00  0.00    +0.068 C 
BRANCH  13  17
ATOM     17  C   UNL     1      -8.202   4.236   0.657  0.00  0.00    +0.066 A 
ATOM     18  C   UNL     1      -8.675   3.753  -0.555  0.00  0.00    +0.028 A 
ATOM     19  C   UNL     1      -9.425   4.571  -1.378  0.00  0.00    +0.002 A 
ATOM     20  C   UNL     1      -9.696   5.872  -0.999  0.00  0.00    +0.000 A 
ATOM     21  C   UNL     1      -9.223   6.358   0.206  0.00  0.00    +0.002 A 
ATOM     22  C   UNL     1      -8.476   5.543   1.035  0.00  0.00    +0.028 A 
ENDBRANCH  13  17
ENDBRANCH   7  10
BRANCH   1  23
ATOM     23  C   UNL     1      -4.395   3.297   4.908  0.00  0.00    -0.040 C 
BRANCH  23  29
ATOM     24  C   UNL     1       0.223   1.819   0.357  0.00  0.00    +0.044 C 
ATOM     25  C   UNL     1      -0.594   2.179   1.571  0.00  0.00    -0.047 A 
ATOM     26  C   UNL     1      -1.974   2.271   1.468  0.00  0.00    +0.004 A 
ATOM     27  C   UNL     1      -2.732   2.592   2.559  0.00  0.00    +0.012 A 
ATOM     28  C   UNL     1      -2.109   2.841   3.786  0.00  0.00    +0.019 A 
ATOM     29  C   UNL     1      -2.893   3.193   4.974  0.00  0.00    -0.046 A 
ATOM     30  C   UNL     1      -2.228   3.423   6.135  0.00  0.00    +0.094 A 
ATOM     31  C   UNL     1      -0.821   3.318   6.170  0.00  0.00    +0.337 A 
ATOM     32  O   UNL     1      -0.237   3.527   7.218  0.00  0.00    -0.245 OA
ATOM     33  O   UNL     1      -0.110   2.996   5.078  0.00  0.00    -0.422 OA
ATOM     34  C   UNL     1      -0.710   2.755   3.893  0.00  0.00    +0.139 A 
ATOM     35  C   UNL     1       0.040   2.421   2.772  0.00  0.00    +0.050 A 
ENDBRANCH  23  29
ENDBRANCH   1  23
TORSDOF 4
