REMARK  Name = ZINC16136165
REMARK  6 active torsions:
REMARK  status: ('A' for Active; 'I' for Inactive)
REMARK    1  A    between atoms: C_2  and  C_3
REMARK    2  A    between atoms: C_3  and  O_4
REMARK    3  A    between atoms: O_4  and  C_5
REMARK    4  A    between atoms: C_10  and  C_11
REMARK    5  A    between atoms: N_12  and  N_13
REMARK    6  A    between atoms: N_13  and  C_14
REMARK                            x       y       z     vdW  Elec       q    Type
REMARK                         _______ _______ _______ _____ _____    ______ ____
ROOT
ATOM      1  C   UNL     1       1.099   2.061   0.003  0.00  0.00    +0.141 C 
ATOM      2  N   UNL     1      -0.017   1.397   0.010  0.00  0.00    -0.190 NA
ENDROOT
BRANCH   1   8
ATOM      3  C   UNL     1      -0.142   4.223   0.020  0.00  0.00    +0.131 A 
ATOM      4  C   UNL     1      -0.150   5.608   0.033  0.00  0.00    +0.047 A 
ATOM      5  C   UNL     1       1.041   6.309   0.026  0.00  0.00    +0.019 A 
ATOM      6  C   UNL     1       2.251   5.633   0.011  0.00  0.00    +0.019 A 
ATOM      7  C   UNL     1       2.276   4.253   0.003  0.00  0.00    +0.028 A 
ATOM      8  C   UNL     1       1.079   3.535   0.011  0.00  0.00    +0.037 A 
ATOM      9 BR   UNL     1       3.872   6.606   0.001  0.00  0.00    -0.050 Br
BRANCH   3  10
ATOM     10  O   UNL     1      -1.313   3.534   0.022  0.00  0.00    -0.479 OA
BRANCH  10  11
ATOM     11  C   UNL     1      -2.518   4.303   0.032  0.00  0.00    +0.317 C 
BRANCH  11  13
ATOM     12  C   UNL     1      -4.603   2.674   0.032  0.00  0.00    +0.007 C 
ATOM     13  C   UNL     1      -3.678   3.396   0.032  0.00  0.00    -0.065 C 
ENDBRANCH  11  13
ENDBRANCH  10  11
ENDBRANCH   3  10
ENDBRANCH   1   8
BRANCH   2  14
ATOM     14  N   UNL     1       0.002  -0.004   0.002  0.00  0.00    -0.232 N 
ATOM     15  H   UNL     1       0.849  -0.478  -0.009  0.00  0.00    +0.175 HD
BRANCH  14  16
ATOM     16  C   UNL     1      -1.200  -0.720   0.010  0.00  0.00    +0.124 A 
ATOM     17  C   UNL     1      -2.389  -0.080   0.342  0.00  0.00    +0.187 A 
ATOM     18  C   UNL     1      -3.578  -0.790   0.342  0.00  0.00    +0.198 A 
ATOM     19  C   UNL     1      -3.582  -2.139   0.024  0.00  0.00    +0.199 A 
ATOM     20  C   UNL     1      -2.397  -2.780  -0.301  0.00  0.00    +0.198 A 
ATOM     21  C   UNL     1      -1.206  -2.073  -0.309  0.00  0.00    +0.187 A 
ATOM     22  F   UNL     1      -0.051  -2.699  -0.626  0.00  0.00    -0.200 F 
ATOM     23  F   UNL     1      -2.404  -4.095  -0.611  0.00  0.00    -0.199 F 
ATOM     24  F   UNL     1      -4.743  -2.830   0.031  0.00  0.00    -0.199 F 
ATOM     25  F   UNL     1      -4.735  -0.168   0.659  0.00  0.00    -0.199 F 
ATOM     26  F   UNL     1      -2.385   1.233   0.657  0.00  0.00    -0.200 F 
ENDBRANCH  14  16
ENDBRANCH   2  14
TORSDOF 6
