REMARK  Name = ZINC38971912
REMARK  5 active torsions:
REMARK  status: ('A' for Active; 'I' for Inactive)
REMARK    1  A    between atoms: C_1  and  C_2
REMARK    2  A    between atoms: C_6  and  S_8
REMARK    3  A    between atoms: S_8  and  N_11
REMARK    4  A    between atoms: C_13  and  N_23
REMARK    5  A    between atoms: N_23  and  C_24
REMARK                            x       y       z     vdW  Elec       q    Type
REMARK                         _______ _______ _______ _____ _____    ______ ____
ROOT
ATOM      1  N   UNL     1       1.671  -2.770   3.016  0.00  0.00    -0.110 NA
ATOM      2  C   UNL     1       1.889  -3.586   4.005  0.00  0.00    +0.192 C 
ATOM      3  C   UNL     1       3.301  -3.961   4.394  0.00  0.00    +0.237 C 
ATOM      4  N   UNL     1       3.480  -4.887   5.522  0.00  0.00    -0.359 N 
ATOM      5  C   UNL     1       2.419  -5.339   6.131  0.00  0.00    +0.063 A 
ATOM      6  C   UNL     1       2.544  -6.267   7.264  0.00  0.00    +0.027 A 
ATOM      7  C   UNL     1       1.421  -6.713   7.870  0.00  0.00    +0.002 A 
ATOM      8  C   UNL     1       0.143  -6.313   7.444  0.00  0.00    +0.002 A 
ATOM      9  C   UNL     1      -0.050  -5.464   6.412  0.00  0.00    +0.030 A 
ATOM     10  C   UNL     1       1.058  -4.933   5.703  0.00  0.00    +0.089 A 
ATOM     11  N   UNL     1       0.863  -4.103   4.700  0.00  0.00    -0.226 NA
ATOM     12  H   UNL     1       4.367  -5.156   5.807  0.00  0.00    +0.162 HD
ENDROOT
BRANCH   1  13
ATOM     13  S   UNL     1       0.120  -2.363   2.605  0.00  0.00    +0.100 S 
ATOM     14  O   UNL     1      -0.407  -1.618   3.695  0.00  0.00    -0.146 OA
ATOM     15  O   UNL     1      -0.498  -3.548   2.124  0.00  0.00    -0.146 OA
BRANCH  13  21
ATOM     16  C   UNL     1       0.461   2.462   0.623  0.00  0.00    +0.044 C 
ATOM     17  C   UNL     1       0.372   0.977   0.385  0.00  0.00    -0.049 A 
ATOM     18  C   UNL     1       0.368   0.483  -0.907  0.00  0.00    +0.003 A 
ATOM     19  C   UNL     1       0.286  -0.879  -1.126  0.00  0.00    +0.002 A 
ATOM     20  C   UNL     1       0.211  -1.748  -0.053  0.00  0.00    +0.029 A 
ATOM     21  C   UNL     1       0.217  -1.255   1.238  0.00  0.00    +0.113 A 
ATOM     22  C   UNL     1       0.302   0.107   1.457  0.00  0.00    +0.032 A 
ENDBRANCH  13  21
ENDBRANCH   1  13
BRANCH   3  23
ATOM     23  N   UNL     1       4.020  -2.725   4.713  0.00  0.00    -0.317 N 
ATOM     24  H   UNL     1       3.593  -2.040   5.250  0.00  0.00    +0.148 HD
BRANCH  23  25
ATOM     25  C   UNL     1       5.322  -2.533   4.242  0.00  0.00    +0.047 A 
ATOM     26  C   UNL     1       5.983  -3.561   3.583  0.00  0.00    +0.024 A 
ATOM     27  C   UNL     1       7.270  -3.368   3.120  0.00  0.00    +0.002 A 
ATOM     28  C   UNL     1       7.900  -2.152   3.311  0.00  0.00    +0.002 A 
ATOM     29  C   UNL     1       7.246  -1.126   3.966  0.00  0.00    +0.022 A 
ATOM     30  C   UNL     1       5.956  -1.310   4.428  0.00  0.00    +0.062 A 
ATOM     31 CL   UNL     1       5.133  -0.019   5.245  0.00  0.00    -0.082 Cl
ENDBRANCH  23  25
ENDBRANCH   3  23
TORSDOF 4
