REMARK  Name = ZINC10603782
REMARK  9 active torsions:
REMARK  status: ('A' for Active; 'I' for Inactive)
REMARK    1  A    between atoms: C_1  and  C_2
REMARK    2  A    between atoms: C_2  and  C_4
REMARK    3  A    between atoms: C_2  and  O_15
REMARK    4  A    between atoms: O_15  and  C_16
REMARK    5  A    between atoms: C_16  and  C_18
REMARK    6  A    between atoms: C_23  and  N_24
REMARK    7  A    between atoms: N_24  and  S_25
REMARK    8  A    between atoms: S_25  and  C_28
REMARK    9  A    between atoms: C_32  and  N_34
REMARK                            x       y       z     vdW  Elec       q    Type
REMARK                         _______ _______ _______ _____ _____    ______ ____
ROOT
ATOM      1  C   UNL     1      -1.540   0.381   0.597  0.00  0.00    +0.081 A 
ATOM      2  C   UNL     1      -2.639   1.062   0.065  0.00  0.00    +0.017 A 
ATOM      3  C   UNL     1      -2.453   1.990  -0.936  0.00  0.00    +0.001 A 
ATOM      4  C   UNL     1      -1.180   2.256  -1.417  0.00  0.00    +0.002 A 
ATOM      5  C   UNL     1      -0.085   1.596  -0.899  0.00  0.00    +0.025 A 
ATOM      6  C   UNL     1      -0.252   0.657   0.112  0.00  0.00    +0.062 A 
ENDROOT
BRANCH   1   7
ATOM      7  C   UNL     1      -1.733  -0.618   1.663  0.00  0.00    +0.342 C 
ATOM      8  O   UNL     1      -0.774  -1.205   2.125  0.00  0.00    -0.245 OA
BRANCH   7   9
ATOM      9  O   UNL     1      -2.971  -0.880   2.125  0.00  0.00    -0.449 OA
BRANCH   9  11
ATOM     10  C   UNL     1      -2.973  -1.191   4.540  0.00  0.00    +0.062 C 
ATOM     11  C   UNL     1      -3.086  -1.875   3.176  0.00  0.00    +0.259 C 
BRANCH  11  12
ATOM     12  C   UNL     1      -4.420  -2.567   3.070  0.00  0.00    +0.260 C 
ATOM     13  O   UNL     1      -5.291  -2.100   2.367  0.00  0.00    -0.271 OA
ATOM     14  N   UNL     1      -4.646  -3.705   3.756  0.00  0.00    -0.268 N 
ATOM     15  C   UNL     1      -3.717  -4.303   4.720  0.00  0.00    +0.118 C 
ATOM     16  C   UNL     1      -4.424  -5.570   5.227  0.00  0.00    +0.056 C 
ATOM     17  C   UNL     1      -5.738  -5.598   4.479  0.00  0.00    -0.024 A 
ATOM     18  C   UNL     1      -5.797  -4.491   3.648  0.00  0.00    +0.040 A 
ATOM     19  C   UNL     1      -6.927  -4.301   2.852  0.00  0.00    +0.024 A 
ATOM     20  C   UNL     1      -7.968  -5.205   2.893  0.00  0.00    +0.002 A 
ATOM     21  C   UNL     1      -7.899  -6.306   3.725  0.00  0.00    +0.000 A 
ATOM     22  C   UNL     1      -6.783  -6.502   4.518  0.00  0.00    +0.005 A 
ENDBRANCH  11  12
ENDBRANCH   9  11
ENDBRANCH   7   9
ENDBRANCH   1   7
BRANCH   6  23
ATOM     23  N   UNL     1       0.848  -0.009   0.635  0.00  0.00    -0.215 N 
ATOM     24  H   UNL     1       0.763  -0.928   0.931  0.00  0.00    +0.174 HD
BRANCH  23  25
ATOM     25  S   UNL     1       2.308   0.766   0.746  0.00  0.00    +0.072 S 
ATOM     26  O   UNL     1       3.184  -0.117   1.433  0.00  0.00    -0.150 OA
ATOM     27  O   UNL     1       2.599   1.273  -0.549  0.00  0.00    -0.150 OA
BRANCH  25  28
ATOM     28  C   UNL     1       2.078   2.163   1.795  0.00  0.00    +0.111 A 
ATOM     29  C   UNL     1       2.269   2.043   3.159  0.00  0.00    +0.029 A 
ATOM     30  C   UNL     1       2.089   3.139   3.981  0.00  0.00    +0.004 A 
ATOM     31  C   UNL     1       1.718   4.356   3.440  0.00  0.00    +0.033 A 
ATOM     32  C   UNL     1       1.526   4.476   2.076  0.00  0.00    +0.128 A 
ATOM     33  C   UNL     1       1.712   3.381   1.253  0.00  0.00    +0.061 A 
BRANCH  32  34
ATOM     34  N   UNL     1       1.129   5.779   1.497  0.00  0.00    +0.056 N 
ATOM     35  O   UNL     1       0.971   6.745   2.221  0.00  0.00    -0.126 OA
ATOM     36  O   UNL     1       0.960   5.884   0.295  0.00  0.00    -0.126 OA
ENDBRANCH  32  34
ENDBRANCH  25  28
ENDBRANCH  23  25
ENDBRANCH   6  23
TORSDOF 8
