REMARK  Name = ZINC20101730
REMARK  10 active torsions:
REMARK  status: ('A' for Active; 'I' for Inactive)
REMARK    1  A    between atoms: C_1  and  C_2
REMARK    2  A    between atoms: C_2  and  N_3
REMARK    3  A    between atoms: C_4  and  C_24
REMARK    4  A    between atoms: C_7  and  S_8
REMARK    5  A    between atoms: S_8  and  C_9
REMARK    6  A    between atoms: C_9  and  C_11
REMARK    7  A    between atoms: C_9  and  C_12
REMARK    8  A    between atoms: C_24  and  C_26
REMARK    9  A    between atoms: C_24  and  O_27
REMARK   10  A    between atoms: O_27  and  C_28
REMARK                            x       y       z     vdW  Elec       q    Type
REMARK                         _______ _______ _______ _____ _____    ______ ____
ROOT
ATOM      1  N   UNL     1       2.148  -2.577   1.310  0.00  0.00    -0.303 N 
ATOM      2  C   UNL     1       1.218  -2.015   0.479  0.00  0.00    +0.175 A 
ATOM      3  N   UNL     1       0.269  -2.891   0.310  0.00  0.00    -0.130 NA
ATOM      4  N   UNL     1       0.537  -3.964   0.965  0.00  0.00    -0.122 NA
ATOM      5  C   UNL     1       1.677  -3.825   1.600  0.00  0.00    +0.192 A 
ENDROOT
BRANCH   1   7
ATOM      6  C   UNL     1       3.122  -1.223   3.099  0.00  0.00    +0.027 C 
ATOM      7  C   UNL     1       3.390  -1.966   1.789  0.00  0.00    +0.122 C 
ENDBRANCH   1   7
BRANCH   2   8
ATOM      8  C   UNL     1       1.278  -0.635  -0.124  0.00  0.00    +0.238 C 
ATOM      9  C   UNL     1       1.650  -0.741  -1.605  0.00  0.00    +0.060 C 
BRANCH   8  10
ATOM     10  O   UNL     1       0.002  -0.004   0.002  0.00  0.00    -0.480 OA
BRANCH  10  11
ATOM     11  C   UNL     1      -0.016   1.355   0.009  0.00  0.00    +0.140 A 
ATOM     12  C   UNL     1       1.152   2.067  -0.218  0.00  0.00    +0.047 A 
ATOM     13  C   UNL     1       1.131   3.448  -0.210  0.00  0.00    +0.004 A 
ATOM     14  C   UNL     1      -0.054   4.122   0.022  0.00  0.00    +0.002 A 
ATOM     15  C   UNL     1      -1.221   3.416   0.248  0.00  0.00    +0.023 A 
ATOM     16  C   UNL     1      -1.206   2.033   0.237  0.00  0.00    +0.083 A 
ATOM     17 CL   UNL     1      -2.672   1.146   0.514  0.00  0.00    -0.080 Cl
ENDBRANCH  10  11
ENDBRANCH   8  10
ENDBRANCH   2   8
BRANCH   5  18
ATOM     18  S   UNL     1       2.454  -5.024   2.632  0.00  0.00    -0.075 S 
BRANCH  18  19
ATOM     19  C   UNL     1       1.248  -6.368   2.516  0.00  0.00    +0.117 C 
ATOM     20  C   UNL     1       1.198  -6.886   1.077  0.00  0.00    +0.027 C 
BRANCH  19  21
ATOM     21  C   UNL     1       1.653  -7.488   3.439  0.00  0.00    +0.124 A 
ATOM     22  N   UNL     1       0.674  -8.196   4.061  0.00  0.00    -0.309 N 
ATOM     23  H   UNL     1      -0.382  -7.946   3.885  0.00  0.00    +0.170 HD
ATOM     24  C   UNL     1       0.986  -9.212   4.899  0.00  0.00    +0.259 A 
ATOM     25  O   UNL     1       0.119  -9.855   5.463  0.00  0.00    -0.267 OA
ATOM     26  C   UNL     1       2.412  -9.508   5.104  0.00  0.00    +0.065 A 
ATOM     27  C   UNL     1       2.838 -10.532   5.947  0.00  0.00    +0.015 A 
ATOM     28  C   UNL     1       4.187 -10.766   6.102  0.00  0.00    +0.001 A 
ATOM     29  C   UNL     1       5.121  -9.991   5.426  0.00  0.00    +0.002 A 
ATOM     30  C   UNL     1       4.720  -8.974   4.589  0.00  0.00    +0.028 A 
ATOM     31  C   UNL     1       3.358  -8.717   4.415  0.00  0.00    +0.078 A 
ATOM     32  N   UNL     1       2.919  -7.729   3.596  0.00  0.00    -0.233 NA
ENDBRANCH  19  21
ENDBRANCH  18  19
ENDBRANCH   5  18
TORSDOF 7
