REMARK  Name = ZINC46912873
REMARK  10 active torsions:
REMARK  status: ('A' for Active; 'I' for Inactive)
REMARK    1  A    between atoms: C_1  and  N_2
REMARK    2  A    between atoms: N_2  and  S_3
REMARK    3  A    between atoms: S_3  and  C_6
REMARK    4  A    between atoms: C_6  and  C_7
REMARK    5  A    between atoms: C_10  and  C_13
REMARK    6  A    between atoms: C_13  and  N_14
REMARK    7  A    between atoms: C_15  and  C_17
REMARK    8  A    between atoms: C_21  and  N_23
REMARK    9  A    between atoms: N_23  and  S_24
REMARK   10  A    between atoms: S_24  and  C_27
REMARK                            x       y       z     vdW  Elec       q    Type
REMARK                         _______ _______ _______ _____ _____    ______ ____
ROOT
ATOM      1  N   UNL     1       3.200  -3.913   6.870  0.00  0.00    -0.307 N 
ATOM      2  C   UNL     1       3.894  -4.630   7.777  0.00  0.00    +0.244 C 
ATOM      3  O   UNL     1       3.543  -4.640   8.941  0.00  0.00    -0.270 OA
ATOM      4  H   UNL     1       3.480  -3.905   5.942  0.00  0.00    +0.149 HD
ENDROOT
BRANCH   2   5
ATOM      5  C   UNL     1       5.082  -5.403   7.357  0.00  0.00    +0.039 A 
ATOM      6  C   UNL     1       5.491  -5.388   6.022  0.00  0.00    +0.013 A 
ATOM      7  C   UNL     1       6.600  -6.110   5.632  0.00  0.00    +0.003 A 
ATOM      8  C   UNL     1       7.310  -6.850   6.559  0.00  0.00    +0.027 A 
ATOM      9  C   UNL     1       6.911  -6.872   7.890  0.00  0.00    +0.075 A 
ATOM     10  C   UNL     1       5.801  -6.144   8.293  0.00  0.00    +0.039 A 
BRANCH   9  11
ATOM     11  N   UNL     1       7.632  -7.622   8.823  0.00  0.00    -0.097 NA
BRANCH  11  12
ATOM     12  S   UNL     1       8.960  -8.485   8.342  0.00  0.00    +0.098 S 
ATOM     13  O   UNL     1       8.489  -9.507   7.475  0.00  0.00    -0.148 OA
ATOM     14  O   UNL     1       9.938  -7.536   7.940  0.00  0.00    -0.148 OA
BRANCH  12  15
ATOM     15  C   UNL     1       9.601  -9.293   9.771  0.00  0.00    +0.148 A 
ATOM     16  C   UNL     1       9.303 -10.521  10.263  0.00  0.00    +0.037 A 
ATOM     17  C   UNL     1       9.937 -10.954  11.412  0.00  0.00    +0.010 A 
ATOM     18  C   UNL     1      10.839 -10.140  12.013  0.00  0.00    +0.047 A 
ATOM     19  S   UNL     1      10.817  -8.712  10.941  0.00  0.00    -0.077 S 
ENDBRANCH  12  15
ENDBRANCH  11  12
ENDBRANCH   9  11
ENDBRANCH   2   5
BRANCH   1  20
ATOM     20  C   UNL     1       2.023  -3.148   7.287  0.00  0.00    +0.139 C 
BRANCH  20  24
ATOM     21  C   UNL     1       0.352  -1.147   3.903  0.00  0.00    -0.025 A 
ATOM     22  C   UNL     1      -0.072  -2.421   4.232  0.00  0.00    +0.005 A 
ATOM     23  C   UNL     1       0.468  -3.069   5.327  0.00  0.00    +0.005 A 
ATOM     24  C   UNL     1       1.434  -2.442   6.093  0.00  0.00    -0.030 A 
ATOM     25  C   UNL     1       1.859  -1.169   5.763  0.00  0.00    +0.005 A 
ATOM     26  C   UNL     1       1.321  -0.523   4.666  0.00  0.00    +0.005 A 
BRANCH  21  27
ATOM     27  C   UNL     1      -0.238  -0.442   2.709  0.00  0.00    +0.220 C 
BRANCH  27  28
ATOM     28  S   UNL     1       0.742  -0.829   1.233  0.00  0.00    +0.033 S 
ATOM     29  O   UNL     1       0.592  -2.200   0.891  0.00  0.00    -0.158 OA
ATOM     30  O   UNL     1       2.033  -0.245   1.335  0.00  0.00    -0.158 OA
BRANCH  28  32
ATOM     31  C   UNL     1      -0.018   1.461   0.010  0.00  0.00    +0.127 C 
ATOM     32  N   UNL     1       0.002  -0.004   0.002  0.00  0.00    -0.197 NA
ATOM     33  H   UNL     1      -0.418  -0.491  -0.724  0.00  0.00    +0.147 HD
ENDBRANCH  28  32
ENDBRANCH  27  28
ENDBRANCH  21  27
ENDBRANCH  20  24
ENDBRANCH   1  20
TORSDOF 9
