REMARK  Name = ZINC39947417
REMARK  8 active torsions:
REMARK  status: ('A' for Active; 'I' for Inactive)
REMARK    1  A    between atoms: C_1  and  C_2
REMARK    2  A    between atoms: C_2  and  C_4
REMARK    3  A    between atoms: C_2  and  S_15
REMARK    4  A    between atoms: C_4  and  C_6
REMARK    5  A    between atoms: S_15  and  C_16
REMARK    6  A    between atoms: C_20  and  C_25
REMARK    7  A    between atoms: N_21  and  C_22
REMARK    8  A    between atoms: C_22  and  C_23
REMARK                            x       y       z     vdW  Elec       q    Type
REMARK                         _______ _______ _______ _____ _____    ______ ____
ROOT
ATOM      1  C   UNL     1      -0.166  -0.072   2.855  0.00  0.00    +0.237 C 
ATOM      2  N   UNL     1      -0.370   1.387   2.817  0.00  0.00    -0.238 N 
ATOM      3  N   UNL     1      -1.748   1.582   2.670  0.00  0.00    -0.170 NA
ATOM      4  C   UNL     1      -2.380   0.468   2.615  0.00  0.00    +0.162 C 
ATOM      5  N   UNL     1      -1.525  -0.623   2.720  0.00  0.00    -0.282 N 
ATOM      6  H   UNL     1       0.313   2.073   2.882  0.00  0.00    +0.171 HD
ENDROOT
BRANCH   4   7
ATOM      7  C   UNL     1      -3.875   0.353   2.459  0.00  0.00    +0.275 C 
ATOM      8  C   UNL     1      -4.454   1.705   2.021  0.00  0.00    +0.281 C 
ATOM      9  O   UNL     1      -5.874   1.565   1.896  0.00  0.00    -0.484 OA
ATOM     10  C   UNL     1      -6.517   0.929   2.914  0.00  0.00    +0.162 A 
ATOM     11  C   UNL     1      -7.891   1.071   3.044  0.00  0.00    +0.049 A 
ATOM     12  C   UNL     1      -8.559   0.429   4.070  0.00  0.00    +0.004 A 
ATOM     13  C   UNL     1      -7.860  -0.356   4.968  0.00  0.00    +0.004 A 
ATOM     14  C   UNL     1      -6.491  -0.500   4.845  0.00  0.00    +0.049 A 
ATOM     15  C   UNL     1      -5.814   0.142   3.818  0.00  0.00    +0.163 A 
ATOM     16  O   UNL     1      -4.465  -0.004   3.714  0.00  0.00    -0.474 OA
ENDBRANCH   4   7
BRANCH   1  17
ATOM     17  S   UNL     1       0.879  -0.605   1.472  0.00  0.00    -0.107 S 
BRANCH  17  19
ATOM     18  C   UNL     1      -0.019   1.526   0.010  0.00  0.00    +0.027 C 
ATOM     19  C   UNL     1       0.002  -0.004   0.002  0.00  0.00    +0.117 C 
BRANCH  19  20
ATOM     20  C   UNL     1       0.707  -0.490  -1.238  0.00  0.00    +0.174 C 
ATOM     21  O   UNL     1       1.890  -0.763  -1.196  0.00  0.00    -0.291 OA
BRANCH  20  22
ATOM     22  C   UNL     1      -0.006  -0.628  -2.447  0.00  0.00    +0.024 C 
ATOM     23  C   UNL     1       0.486  -1.063  -3.664  0.00  0.00    +0.006 A 
ATOM     24  C   UNL     1       1.769  -1.486  -4.088  0.00  0.00    +0.010 A 
ATOM     25  C   UNL     1       1.972  -1.866  -5.369  0.00  0.00    +0.001 A 
ATOM     26  C   UNL     1       0.946  -1.863  -6.328  0.00  0.00    +0.002 A 
ATOM     27  C   UNL     1      -0.313  -1.478  -6.027  0.00  0.00    +0.026 A 
ATOM     28  C   UNL     1      -0.620  -1.048  -4.653  0.00  0.00    +0.043 A 
ATOM     29  N   UNL     1      -1.723  -0.635  -4.097  0.00  0.00    -0.380 N 
ATOM     30  C   UNL     1      -1.472  -0.337  -2.683  0.00  0.00    +0.152 C 
ATOM     31  H   UNL     1      -2.577  -0.542  -4.546  0.00  0.00    +0.160 HD
ENDBRANCH  20  22
ENDBRANCH  19  20
ENDBRANCH  17  19
ENDBRANCH   1  17
BRANCH   5  32
ATOM     32  C   UNL     1      -1.898  -2.039   2.697  0.00  0.00    +0.135 C 
BRANCH  32  33
ATOM     33  C   UNL     1      -2.174  -2.508   4.103  0.00  0.00    -0.016 C 
ATOM     34  C   UNL     1      -3.321  -3.071   4.392  0.00  0.00    +0.005 C 
ENDBRANCH  32  33
ENDBRANCH   5  32
TORSDOF 7
