REMARK  Name = ZINC61691094
REMARK  3 active torsions:
REMARK  status: ('A' for Active; 'I' for Inactive)
REMARK    1  A    between atoms: C_4  and  N_8
REMARK    2  A    between atoms: N_8  and  C_9
REMARK    3  A    between atoms: C_14  and  N_15
REMARK                            x       y       z     vdW  Elec       q    Type
REMARK                         _______ _______ _______ _____ _____    ______ ____
ROOT
ATOM      1  C   UNL     1       3.697  -2.040   0.046  0.00  0.00    +0.054 A 
ATOM      2  C   UNL     1       2.535  -2.792   0.041  0.00  0.00    +0.053 A 
ATOM      3  C   UNL     1       2.610  -4.181   0.123  0.00  0.00    +0.080 A 
ATOM      4  C   UNL     1       3.875  -4.807   0.209  0.00  0.00    +0.067 A 
ATOM      5  C   UNL     1       5.040  -4.039   0.213  0.00  0.00    +0.040 A 
ATOM      6  C   UNL     1       4.950  -2.664   0.126  0.00  0.00    +0.047 A 
ATOM      7  C   UNL     1       3.914  -6.272   0.294  0.00  0.00    +0.259 A 
ATOM      8  O   UNL     1       4.971  -6.873   0.372  0.00  0.00    -0.267 OA
ATOM      9  N   UNL     1       2.732  -6.930   0.284  0.00  0.00    -0.313 N 
ATOM     10  H   UNL     1       2.720  -7.899   0.339  0.00  0.00    +0.170 HD
ATOM     11  C   UNL     1       1.560  -6.247   0.198  0.00  0.00    +0.199 A 
ATOM     12  N   UNL     1       1.492  -4.953   0.121  0.00  0.00    -0.237 NA
ENDROOT
BRANCH   6  13
ATOM     13  N   UNL     1       6.115  -1.889   0.124  0.00  0.00    -0.357 N 
ATOM     14  H   UNL     1       6.055  -0.923   0.068  0.00  0.00    +0.142 HD
ATOM     15  H   UNL     1       6.983  -2.318   0.180  0.00  0.00    +0.142 HD
ENDBRANCH   6  13
BRANCH   1  16
ATOM     16  N   UNL     1       3.621  -0.651  -0.036  0.00  0.00    -0.312 N 
ATOM     17  H   UNL     1       4.227  -0.166  -0.618  0.00  0.00    +0.152 HD
BRANCH  16  21
ATOM     18  C   UNL     1       0.793   1.419   2.217  0.00  0.00    +0.017 A 
ATOM     19  C   UNL     1       1.578   2.098   1.302  0.00  0.00    +0.023 A 
ATOM     20  C   UNL     1       2.517   1.415   0.553  0.00  0.00    +0.062 A 
ATOM     21  C   UNL     1       2.672   0.043   0.720  0.00  0.00    +0.051 A 
ATOM     22  C   UNL     1       1.883  -0.635   1.639  0.00  0.00    +0.040 A 
ATOM     23  C   UNL     1       0.946   0.054   2.385  0.00  0.00    +0.020 A 
ATOM     24 BR   UNL     1      -0.130  -0.869   3.636  0.00  0.00    -0.050 Br
ATOM     25 CL   UNL     1       3.501   2.268  -0.594  0.00  0.00    -0.082 Cl
ENDBRANCH  16  21
ENDBRANCH   1  16
TORSDOF 3
