REMARK  Name = ZINC24350717
REMARK  7 active torsions:
REMARK  status: ('A' for Active; 'I' for Inactive)
REMARK    1  A    between atoms: C_1  and  C_2
REMARK    2  A    between atoms: C_6  and  O_8
REMARK    3  A    between atoms: O_8  and  C_9
REMARK    4  A    between atoms: C_9  and  C_10
REMARK    5  A    between atoms: N_12  and  N_13
REMARK    6  A    between atoms: C_14  and  C_16
REMARK    7  A    between atoms: C_19  and  N_22
REMARK                            x       y       z     vdW  Elec       q    Type
REMARK                         _______ _______ _______ _____ _____    ______ ____
ROOT
ATOM      1  N   UNL     1      -5.133  -2.849  -0.041  0.00  0.00    -0.230 N 
ATOM      2  C   UNL     1      -5.294  -4.186   0.004  0.00  0.00    +0.260 C 
ATOM      3  O   UNL     1      -4.321  -4.915   0.043  0.00  0.00    -0.269 OA
ATOM      4  H   UNL     1      -6.013  -2.190  -0.076  0.00  0.00    +0.173 HD
ENDROOT
BRANCH   2   5
ATOM      5  C   UNL     1      -6.651  -4.767   0.008  0.00  0.00    +0.038 A 
ATOM      6  C   UNL     1      -7.770  -3.932  -0.031  0.00  0.00    +0.015 A 
ATOM      7  C   UNL     1      -9.035  -4.477  -0.033  0.00  0.00    +0.027 A 
ATOM      8  C   UNL     1      -9.199  -5.857   0.014  0.00  0.00    +0.051 A 
ATOM      9  C   UNL     1      -8.087  -6.692   0.058  0.00  0.00    +0.027 A 
ATOM     10  C   UNL     1      -6.819  -6.154   0.055  0.00  0.00    +0.015 A 
BRANCH   8  11
ATOM     11  N   UNL     1     -10.483  -6.407   0.017  0.00  0.00    -0.267 N 
ATOM     12  C   UNL     1     -11.295  -6.219   1.094  0.00  0.00    +0.207 A 
ATOM     13  N   UNL     1     -12.499  -6.697   1.171  0.00  0.00    -0.237 NA
ATOM     14  C   UNL     1     -13.040  -7.429   0.164  0.00  0.00    +0.078 A 
ATOM     15  C   UNL     1     -14.336  -7.942   0.247  0.00  0.00    +0.028 A 
ATOM     16  C   UNL     1     -14.845  -8.680  -0.798  0.00  0.00    +0.002 A 
ATOM     17  C   UNL     1     -14.085  -8.921  -1.936  0.00  0.00    +0.001 A 
ATOM     18  C   UNL     1     -12.804  -8.425  -2.041  0.00  0.00    +0.015 A 
ATOM     19  C   UNL     1     -12.270  -7.676  -0.994  0.00  0.00    +0.065 A 
ATOM     20  C   UNL     1     -10.912  -7.117  -1.053  0.00  0.00    +0.266 A 
ATOM     21  O   UNL     1     -10.198  -7.288  -2.024  0.00  0.00    -0.267 OA
ENDBRANCH   8  11
ENDBRANCH   2   5
BRANCH   1  24
ATOM     22  C   UNL     1      -3.684  -0.961  -0.090  0.00  0.00    +0.267 C 
ATOM     23  O   UNL     1      -4.655  -0.234  -0.129  0.00  0.00    -0.271 OA
ATOM     24  N   UNL     1      -3.845  -2.298  -0.044  0.00  0.00    -0.231 N 
ATOM     25  H   UNL     1      -2.965  -2.957  -0.009  0.00  0.00    +0.173 HD
BRANCH  22  26
ATOM     26  C   UNL     1      -2.299  -0.368  -0.093  0.00  0.00    +0.326 C 
BRANCH  26  27
ATOM     27  O   UNL     1      -2.391   1.057  -0.145  0.00  0.00    -0.483 OA
BRANCH  27  33
ATOM     28  C   UNL     1      -0.064   5.346  -0.271  0.00  0.00    +0.044 C 
ATOM     29  C   UNL     1      -0.048   3.840  -0.216  0.00  0.00    -0.047 A 
ATOM     30  C   UNL     1       1.157   3.163  -0.182  0.00  0.00    +0.003 A 
ATOM     31  C   UNL     1       1.175   1.781  -0.131  0.00  0.00    +0.004 A 
ATOM     32  C   UNL     1      -0.012   1.074  -0.115  0.00  0.00    +0.045 A 
ATOM     33  C   UNL     1      -1.222   1.751  -0.155  0.00  0.00    +0.121 A 
ATOM     34  C   UNL     1      -1.237   3.138  -0.201  0.00  0.00    +0.049 A 
ENDBRANCH  27  33
ENDBRANCH  26  27
ENDBRANCH  22  26
ENDBRANCH   1  24
TORSDOF 6
