REMARK  Name = ZINC15276292
REMARK  5 active torsions:
REMARK  status: ('A' for Active; 'I' for Inactive)
REMARK    1  A    between atoms: C_1  and  C_2
REMARK    2  A    between atoms: C_2  and  C_29
REMARK    3  A    between atoms: C_7  and  C_9
REMARK    4  A    between atoms: C_14  and  O_15
REMARK    5  A    between atoms: N_19  and  C_22
REMARK                            x       y       z     vdW  Elec       q    Type
REMARK                         _______ _______ _______ _____ _____    ______ ____
ROOT
ATOM      1  C   UNL     1       3.450   7.491  -0.549  0.00  0.00    +0.002 C 
ATOM      2  C   UNL     1       2.403   6.846   0.362  0.00  0.00    +0.045 C 
ATOM      3  C   UNL     1       1.750   5.656  -0.343  0.00  0.00    +0.086 C 
ATOM      4  C   UNL     1       0.367   5.695   0.421  0.00  0.00    +0.077 C 
ATOM      5  C   UNL     1       0.004   7.116   0.292  0.00  0.00    -0.023 C 
ATOM      6  C   UNL     1      -0.153   4.379   0.153  0.00  0.00    +0.229 C 
ATOM      7  O   UNL     1      -1.310   4.062  -0.021  0.00  0.00    -0.275 OA
ATOM      8  N   UNL     1       0.951   3.562   0.138  0.00  0.00    -0.210 N 
ATOM      9  C   UNL     1       2.123   4.261   0.090  0.00  0.00    +0.229 C 
ATOM     10  O   UNL     1       3.234   3.844   0.342  0.00  0.00    -0.275 OA
ATOM     11  N   UNL     1       1.291   7.793   0.630  0.00  0.00    +0.395 N 
ATOM     12  H   UNL     1       1.403   8.634   0.051  0.00  0.00    -0.083 HD
ATOM     13  H   UNL     1       1.293   8.058   1.622  0.00  0.00    -0.083 HD
ENDROOT
BRANCH   5  14
ATOM     14  C   UNL     1      -1.080   7.486   1.272  0.00  0.00    -0.018 A 
ATOM     15  C   UNL     1      -0.756   8.132   2.449  0.00  0.00    +0.025 A 
ATOM     16  C   UNL     1      -1.751   8.472   3.349  0.00  0.00    +0.041 A 
ATOM     17  C   UNL     1      -3.072   8.164   3.071  0.00  0.00    +0.023 A 
ATOM     18  C   UNL     1      -3.399   7.518   1.895  0.00  0.00    +0.047 A 
ATOM     19  C   UNL     1      -2.403   7.182   0.989  0.00  0.00    +0.119 A 
ATOM     20 CL   UNL     1      -1.343   9.284   4.827  0.00  0.00    -0.084 Cl
BRANCH  19  21
ATOM     21  O   UNL     1      -2.724   6.551  -0.171  0.00  0.00    -0.507 OA
ATOM     22  H   UNL     1      -2.722   5.586  -0.108  0.00  0.00    +0.292 HD
ENDBRANCH  19  21
ENDBRANCH   5  14
BRANCH   8  23
ATOM     23  C   UNL     1       0.881   2.162   0.173  0.00  0.00    +0.044 A 
ATOM     24  C   UNL     1      -0.352   1.528   0.227  0.00  0.00    +0.025 A 
ATOM     25  C   UNL     1      -0.418   0.149   0.261  0.00  0.00    +0.022 A 
ATOM     26  C   UNL     1       0.745  -0.601   0.243  0.00  0.00    +0.041 A 
ATOM     27  C   UNL     1       1.976   0.029   0.189  0.00  0.00    +0.022 A 
ATOM     28  C   UNL     1       2.047   1.408   0.155  0.00  0.00    +0.025 A 
ATOM     29 CL   UNL     1       0.660  -2.334   0.287  0.00  0.00    -0.084 Cl
ENDBRANCH   8  23
BRANCH   2  30
ATOM     30  C   UNL     1       3.039   6.402   1.654  0.00  0.00    +0.346 C 
ATOM     31  O   UNL     1       4.210   6.103   1.680  0.00  0.00    -0.248 OA
ATOM     32  O   UNL     1       2.305   6.339   2.776  0.00  0.00    -0.248 OA
ENDBRANCH   2  30
TORSDOF 4
