REMARK  Name = ZINC32900906
REMARK  3 active torsions:
REMARK  status: ('A' for Active; 'I' for Inactive)
REMARK    1  A    between atoms: N_9  and  C_25
REMARK    2  A    between atoms: C_10  and  C_13
REMARK    3  A    between atoms: C_16  and  N_20
REMARK                            x       y       z     vdW  Elec       q    Type
REMARK                         _______ _______ _______ _____ _____    ______ ____
ROOT
ATOM      1  C   UNL     1      -1.992   0.144   4.897  0.00  0.00    +0.001 A 
ATOM      2  C   UNL     1      -2.641   1.168   4.224  0.00  0.00    +0.002 A 
ATOM      3  C   UNL     1      -2.796   1.118   2.852  0.00  0.00    +0.024 A 
ATOM      4  C   UNL     1      -2.297   0.038   2.145  0.00  0.00    +0.041 A 
ATOM      5  C   UNL     1      -1.623  -0.994   2.822  0.00  0.00    +0.058 A 
ATOM      6  C   UNL     1      -1.485  -0.937   4.207  0.00  0.00    +0.015 A 
ATOM      7  C   UNL     1      -1.096  -2.124   2.038  0.00  0.00    +0.254 C 
ATOM      8  O   UNL     1      -0.666  -3.113   2.600  0.00  0.00    -0.270 OA
ATOM      9  N   UNL     1      -1.093  -2.053   0.692  0.00  0.00    -0.244 N 
ATOM     10  C   UNL     1      -1.447  -0.813  -0.001  0.00  0.00    +0.198 C 
ATOM     11  N   UNL     1      -2.453  -0.071   0.767  0.00  0.00    -0.321 N 
ATOM     12  H   UNL     1      -3.310   0.387   0.252  0.00  0.00    +0.148 HD
ENDROOT
BRANCH  10  13
ATOM     13  C   UNL     1      -0.213   0.038  -0.161  0.00  0.00    -0.006 A 
ATOM     14  C   UNL     1       1.028  -0.561  -0.280  0.00  0.00    +0.009 A 
ATOM     15  C   UNL     1       2.160   0.215  -0.428  0.00  0.00    +0.031 A 
ATOM     16  C   UNL     1       2.054   1.599  -0.457  0.00  0.00    +0.102 A 
ATOM     17  C   UNL     1       0.806   2.199  -0.337  0.00  0.00    +0.149 A 
ATOM     18  C   UNL     1      -0.325   1.415  -0.190  0.00  0.00    +0.047 A 
ATOM     19  F   UNL     1       0.697   3.545  -0.365  0.00  0.00    -0.203 F 
BRANCH  16  20
ATOM     20  N   UNL     1       3.203   2.389  -0.606  0.00  0.00    -0.218 N 
ATOM     21  C   UNL     1       3.257   3.734  -0.657  0.00  0.00    +0.225 A 
ATOM     22  N   UNL     1       4.510   4.085  -0.799  0.00  0.00    -0.222 NA
ATOM     23  C   UNL     1       5.279   2.998  -0.852  0.00  0.00    +0.245 A 
ATOM     24  N   UNL     1       4.526   1.936  -0.739  0.00  0.00    -0.153 NA
ENDBRANCH  16  20
ENDBRANCH  10  13
BRANCH   9  25
ATOM     25  C   UNL     1      -0.746  -3.183  -0.056  0.00  0.00    +0.039 A 
ATOM     26  C   UNL     1      -1.640  -3.706  -0.982  0.00  0.00    +0.026 A 
ATOM     27  C   UNL     1      -1.293  -4.818  -1.723  0.00  0.00    +0.040 A 
ATOM     28  C   UNL     1      -0.059  -5.420  -1.536  0.00  0.00    +0.124 A 
ATOM     29  C   UNL     1       0.831  -4.903  -0.610  0.00  0.00    +0.040 A 
ATOM     30  C   UNL     1       0.490  -3.787   0.130  0.00  0.00    +0.026 A 
ATOM     31  F   UNL     1       0.276  -6.511  -2.258  0.00  0.00    -0.205 F 
ENDBRANCH   9  25
TORSDOF 3
