REMARK  Name = ZINC48290583
REMARK  12 active torsions:
REMARK  status: ('A' for Active; 'I' for Inactive)
REMARK    1  A    between atoms: C_1  and  C_2
REMARK    2  A    between atoms: N_7  and  S_9
REMARK    3  A    between atoms: S_9  and  C_12
REMARK    4  A    between atoms: C_15  and  N_21
REMARK    5  A    between atoms: C_16  and  N_18
REMARK    6  A    between atoms: N_21  and  C_22
REMARK    7  A    between atoms: C_22  and  C_23
REMARK    8  A    between atoms: N_26  and  C_29
REMARK    9  A    between atoms: C_29  and  C_30
REMARK   10  A    between atoms: C_30  and  N_31
REMARK   11  A    between atoms: N_31  and  C_32
REMARK   12  A    between atoms: N_31  and  C_33
REMARK                            x       y       z     vdW  Elec       q    Type
REMARK                         _______ _______ _______ _____ _____    ______ ____
ROOT
ATOM      1  C   UNL     1       1.602  -3.341   3.626  0.00  0.00    +0.108 A 
ATOM      2  C   UNL     1       2.627  -4.206   3.288  0.00  0.00    +0.030 A 
ATOM      3  C   UNL     1       3.805  -4.198   4.008  0.00  0.00    +0.027 A 
ATOM      4  C   UNL     1       3.961  -3.319   5.072  0.00  0.00    +0.058 A 
ATOM      5  C   UNL     1       2.930  -2.451   5.409  0.00  0.00    +0.149 A 
ATOM      6  C   UNL     1       1.756  -2.461   4.681  0.00  0.00    +0.063 A 
ENDROOT
BRANCH   1   7
ATOM      7  S   UNL     1       0.101  -3.355   2.704  0.00  0.00    +0.061 S 
ATOM      8  O   UNL     1      -0.905  -2.826   3.558  0.00  0.00    -0.153 OA
ATOM      9  O   UNL     1      -0.002  -4.643   2.114  0.00  0.00    -0.153 OA
BRANCH   7  15
ATOM     10  C   UNL     1      -1.365   1.022   0.592  0.00  0.00    +0.009 C 
ATOM     11  C   UNL     1      -1.066  -0.477   0.510  0.00  0.00    +0.002 C 
ATOM     12  C   UNL     1      -0.429  -0.797  -0.844  0.00  0.00    +0.006 C 
ATOM     13  C   UNL     1      -0.160  -2.301  -0.940  0.00  0.00    +0.017 C 
ATOM     14  C   UNL     1       0.819  -2.712   0.164  0.00  0.00    +0.109 C 
ATOM     15  N   UNL     1       0.280  -2.277   1.460  0.00  0.00    -0.176 NA
ATOM     16  C   UNL     1      -0.098  -0.867   1.631  0.00  0.00    +0.112 C 
ENDBRANCH   7  15
ENDBRANCH   1   7
BRANCH   5  17
ATOM     17  N   UNL     1       3.091  -1.513   6.542  0.00  0.00    +0.058 N 
ATOM     18  O   UNL     1       3.680  -1.864   7.538  0.00  0.00    -0.126 OA
ATOM     19  O   UNL     1       2.634  -0.396   6.473  0.00  0.00    -0.126 OA
ENDBRANCH   5  17
BRANCH   4  20
ATOM     20  N   UNL     1       5.152  -3.308   5.803  0.00  0.00    -0.342 N 
ATOM     21  H   UNL     1       5.293  -2.638   6.489  0.00  0.00    +0.146 HD
BRANCH  20  22
ATOM     22  C   UNL     1       6.187  -4.308   5.531  0.00  0.00    +0.105 C 
BRANCH  22  23
ATOM     23  C   UNL     1       7.378  -4.075   6.462  0.00  0.00    +0.003 C 
ATOM     24  C   UNL     1       8.031  -2.730   6.130  0.00  0.00    -0.014 C 
ATOM     25  C   UNL     1       9.269  -2.539   7.010  0.00  0.00    -0.078 C 
ATOM     26  N   UNL     1      10.225  -3.624   6.758  0.00  0.00    +0.381 N 
ATOM     27  C   UNL     1       9.631  -4.910   7.141  0.00  0.00    -0.078 C 
ATOM     28  C   UNL     1       8.407  -5.192   6.267  0.00  0.00    -0.014 C 
ATOM     29  H   UNL     1      10.460  -3.642   5.777  0.00  0.00    -0.082 HD
BRANCH  26  30
ATOM     30  C   UNL     1      11.443  -3.394   7.547  0.00  0.00    -0.063 C 
BRANCH  30  31
ATOM     31  C   UNL     1      12.487  -4.454   7.192  0.00  0.00    +0.065 C 
BRANCH  31  32
ATOM     32  N   UNL     1      13.705  -4.225   7.981  0.00  0.00    -0.310 NA
ATOM     33  C   UNL     1      13.455  -4.446   9.411  0.00  0.00    +0.104 C 
ATOM     34  C   UNL     1      14.809  -5.068   7.503  0.00  0.00    +0.104 C 
ENDBRANCH  31  32
ENDBRANCH  30  31
ENDBRANCH  26  30
ENDBRANCH  22  23
ENDBRANCH  20  22
ENDBRANCH   4  20
TORSDOF 9
