REMARK  Name = ZINC38703253
REMARK  5 active torsions:
REMARK  status: ('A' for Active; 'I' for Inactive)
REMARK    1  A    between atoms: C_1  and  C_2
REMARK    2  A    between atoms: C_2  and  C_3
REMARK    3  A    between atoms: C_6  and  C_9
REMARK    4  A    between atoms: C_16  and  C_26
REMARK    5  A    between atoms: C_18  and  C_25
REMARK                            x       y       z     vdW  Elec       q    Type
REMARK                         _______ _______ _______ _____ _____    ______ ____
ROOT
ATOM      1  C   UNL     1      -5.419  -2.005   0.043  0.00  0.00    +0.141 C 
ATOM      2  C   UNL     1      -6.381  -0.893  -0.216  0.00  0.00    +0.072 A 
ATOM      3  C   UNL     1      -6.658   0.340   0.530  0.00  0.00    +0.199 A 
ATOM      4  O   UNL     1      -5.966   0.730   1.454  0.00  0.00    -0.287 OA
ATOM      5  C   UNL     1      -7.861   1.067   0.051  0.00  0.00    +0.065 A 
ATOM      6  C   UNL     1      -8.370   2.143   0.777  0.00  0.00    +0.018 A 
ATOM      7  C   UNL     1      -9.482   2.800   0.325  0.00  0.00    -0.049 A 
ATOM      8  C   UNL     1     -10.102   2.397  -0.849  0.00  0.00    +0.010 A 
ATOM      9  C   UNL     1      -9.611   1.338  -1.579  0.00  0.00    -0.007 A 
ATOM     10  C   UNL     1      -8.477   0.653  -1.141  0.00  0.00    +0.142 A 
ATOM     11  O   UNL     1      -8.006  -0.378  -1.878  0.00  0.00    -0.449 OA
ATOM     12  C   UNL     1      -7.062  -1.189  -1.363  0.00  0.00    +0.199 A 
ATOM     13  C   UNL     1      -6.573  -2.484  -1.868  0.00  0.00    +0.281 C 
ATOM     14  O   UNL     1      -6.976  -3.036  -2.873  0.00  0.00    -0.267 OA
ATOM     15  N   UNL     1      -5.612  -2.969  -1.053  0.00  0.00    -0.298 N 
ATOM     16  C   UNL     1     -10.300   0.917  -2.852  0.00  0.00    +0.047 C 
ATOM     17  C   UNL     1     -10.035   3.964   1.106  0.00  0.00    +0.044 C 
ATOM     18  H   UNL     1      -5.133  -3.804  -1.168  0.00  0.00    +0.150 HD
ENDROOT
BRANCH   1  22
ATOM     19  C   UNL     1      -1.412  -0.526   0.013  0.00  0.00    -0.048 A 
ATOM     20  C   UNL     1      -2.051  -0.766   1.215  0.00  0.00    +0.004 A 
ATOM     21  C   UNL     1      -3.348  -1.244   1.225  0.00  0.00    +0.006 A 
ATOM     22  C   UNL     1      -4.006  -1.482   0.032  0.00  0.00    -0.023 A 
ATOM     23  C   UNL     1      -3.367  -1.241  -1.170  0.00  0.00    +0.006 A 
ATOM     24  C   UNL     1      -2.072  -0.758  -1.179  0.00  0.00    +0.004 A 
BRANCH  19  26
ATOM     25  C   UNL     1      -0.019   1.526   0.010  0.00  0.00    +0.009 C 
ATOM     26  C   UNL     1       0.002  -0.004   0.002  0.00  0.00    +0.032 C 
ENDBRANCH  19  26
ENDBRANCH   1  22
TORSDOF 2
