REMARK  Name = ZINC06443803
REMARK  6 active torsions:
REMARK  status: ('A' for Active; 'I' for Inactive)
REMARK    1  A    between atoms: C_1  and  C_2
REMARK    2  A    between atoms: C_12  and  C_14
REMARK    3  A    between atoms: C_14  and  C_16
REMARK    4  A    between atoms: C_14  and  N_69
REMARK    5  A    between atoms: N_20  and  C_21
REMARK    6  A    between atoms: N_29  and  C_32
REMARK                            x       y       z     vdW  Elec       q    Type
REMARK                         _______ _______ _______ _____ _____    ______ ____
ROOT
ATOM      1  C   UNL     1       0.087  -2.864   4.922  0.00  0.00    +0.039 C 
ENDROOT
BRANCH   1  13
ATOM      2  C   UNL     1      -0.018   1.503   0.010  0.00  0.00    +0.046 C 
ATOM      3  C   UNL     1       0.002  -0.004   0.002  0.00  0.00    -0.026 A 
ATOM      4  C   UNL     1      -0.006  -0.690  -1.194  0.00  0.00    +0.005 A 
ATOM      5  C   UNL     1       0.019  -2.077  -1.215  0.00  0.00    +0.001 A 
ATOM      6  C   UNL     1       0.039  -2.790  -0.050  0.00  0.00    +0.010 A 
ATOM      7  C   UNL     1       0.042  -2.116   1.175  0.00  0.00    -0.001 A 
ATOM      8  C   UNL     1       0.023  -0.709   1.201  0.00  0.00    +0.052 A 
ATOM      9  N   UNL     1       0.026  -0.049   2.412  0.00  0.00    -0.322 N 
ATOM     10  H   UNL     1       0.014   0.921   2.428  0.00  0.00    +0.169 HD
ATOM     11  C   UNL     1       0.046  -0.730   3.570  0.00  0.00    +0.251 A 
ATOM     12  O   UNL     1       0.048  -0.114   4.622  0.00  0.00    -0.268 OA
ATOM     13  C   UNL     1       0.065  -2.141   3.600  0.00  0.00    +0.011 A 
ATOM     14  C   UNL     1       0.064  -2.849   2.443  0.00  0.00    +0.017 A 
ENDBRANCH   1  13
BRANCH   1  20
ATOM     15  C   UNL     1       2.488  -2.552   4.991  0.00  0.00    -0.058 C 
ATOM     16  C   UNL     1       3.634  -1.972   5.824  0.00  0.00    +0.086 C 
ATOM     17  N   UNL     1       3.687  -2.657   7.123  0.00  0.00    -0.331 N 
ATOM     18  C   UNL     1       2.423  -2.493   7.854  0.00  0.00    +0.086 C 
ATOM     19  C   UNL     1       1.277  -3.072   7.021  0.00  0.00    -0.058 C 
ATOM     20  N   UNL     1       1.220  -2.361   5.727  0.00  0.00    +0.391 N 
ATOM     21  H   UNL     1       1.084  -1.358   5.903  0.00  0.00    -0.080 HD
BRANCH  17  22
ATOM     22  C   UNL     1       4.769  -2.203   7.884  0.00  0.00    +0.065 A 
ATOM     23  C   UNL     1       5.040  -2.778   9.119  0.00  0.00    +0.026 A 
ATOM     24  C   UNL     1       6.112  -2.330   9.867  0.00  0.00    +0.002 A 
ATOM     25  C   UNL     1       6.909  -1.304   9.393  0.00  0.00    +0.003 A 
ATOM     26  C   UNL     1       6.639  -0.726   8.166  0.00  0.00    +0.040 A 
ATOM     27  C   UNL     1       5.571  -1.171   7.410  0.00  0.00    +0.144 A 
ATOM     28  F   UNL     1       5.308  -0.605   6.212  0.00  0.00    -0.204 F 
ENDBRANCH  17  22
ENDBRANCH   1  20
BRANCH   1  29
ATOM     29  C   UNL     1      -1.197  -2.595   5.663  0.00  0.00    +0.143 A 
ATOM     30  N   UNL     1      -1.525  -1.489   6.284  0.00  0.00    -0.115 NA
ATOM     31  N   UNL     1      -2.699  -1.649   6.790  0.00  0.00    -0.023 NA
ATOM     32  N   UNL     1      -3.126  -2.832   6.514  0.00  0.00    -0.044 NA
ATOM     33  N   UNL     1      -2.228  -3.446   5.820  0.00  0.00    -0.227 N 
BRANCH  33  34
ATOM     34  C   UNL     1      -2.314  -4.814   5.301  0.00  0.00    +0.111 C 
ATOM     35  C   UNL     1      -3.517  -4.927   4.362  0.00  0.00    +0.027 C 
ATOM     36  C   UNL     1      -3.607  -6.355   3.819  0.00  0.00    +0.002 C 
ATOM     37  C   UNL     1      -3.775  -7.333   4.983  0.00  0.00    +0.000 C 
ATOM     38  C   UNL     1      -2.572  -7.220   5.922  0.00  0.00    +0.002 C 
ATOM     39  C   UNL     1      -2.482  -5.792   6.465  0.00  0.00    +0.027 C 
ENDBRANCH  33  34
ENDBRANCH   1  29
TORSDOF 5
