REMARK  Name = ZINC14882405
REMARK  13 active torsions:
REMARK  status: ('A' for Active; 'I' for Inactive)
REMARK    1  A    between atoms: C_1  and  C_2
REMARK    2  A    between atoms: C_2  and  N_3
REMARK    3  A    between atoms: N_3  and  C_4
REMARK    4  A    between atoms: C_4  and  C_6
REMARK    5  A    between atoms: C_4  and  C_13
REMARK    6  A    between atoms: C_6  and  C_7
REMARK    7  A    between atoms: C_18  and  C_19
REMARK    8  A    between atoms: C_18  and  N_79
REMARK    9  A    between atoms: C_19  and  C_20
REMARK   10  A    between atoms: C_20  and  C_22
REMARK   11  A    between atoms: C_20  and  C_23
REMARK   12  A    between atoms: C_26  and  C_28
REMARK   13  A    between atoms: C_29  and  C_31
REMARK                            x       y       z     vdW  Elec       q    Type
REMARK                         _______ _______ _______ _____ _____    ______ ____
ROOT
ATOM      1  C   UNL     1       4.885  -1.162   5.684  0.00  0.00    +0.083 C 
ENDROOT
BRANCH   1   2
ATOM      2  C   UNL     1       5.212  -1.569   4.246  0.00  0.00    +0.006 C 
ATOM      3  C   UNL     1       5.469  -0.316   3.405  0.00  0.00    -0.013 C 
ATOM      4  C   UNL     1       5.737  -0.726   1.955  0.00  0.00    -0.079 C 
ATOM      5  C   UNL     1       4.341  -2.692   2.193  0.00  0.00    -0.079 C 
ATOM      6  C   UNL     1       4.032  -2.341   3.650  0.00  0.00    -0.013 C 
ATOM      7  N   UNL     1       4.554  -1.442   1.433  0.00  0.00    +0.380 N 
ATOM      8  H   UNL     1       3.727  -0.843   1.540  0.00  0.00    -0.082 HD
BRANCH   7   9
ATOM      9  C   UNL     1       4.742  -1.749  -0.000  0.00  0.00    -0.078 C 
BRANCH   9  10
ATOM     10  C   UNL     1       3.649  -2.720  -0.453  0.00  0.00    -0.008 C 
BRANCH  10  11
ATOM     11  C   UNL     1       3.820  -3.021  -1.943  0.00  0.00    +0.050 C 
ATOM     12  C   UNL     1       5.139  -3.764  -2.165  0.00  0.00    +0.015 C 
BRANCH  11  13
ATOM     13  C   UNL     1       2.674  -3.878  -2.416  0.00  0.00    +0.108 A 
ATOM     14  C   UNL     1       1.791  -3.550  -3.377  0.00  0.00    +0.045 A 
ATOM     15  C   UNL     1       0.896  -4.638  -3.499  0.00  0.00    +0.044 A 
ATOM     16  C   UNL     1       1.281  -5.562  -2.600  0.00  0.00    +0.102 A 
ATOM     17  O   UNL     1       2.358  -5.096  -1.947  0.00  0.00    -0.465 OA
ATOM     18  C   UNL     1       0.616  -6.893  -2.365  0.00  0.00    +0.086 C 
ENDBRANCH  11  13
ENDBRANCH  10  11
ENDBRANCH   9  10
ENDBRANCH   7   9
ENDBRANCH   1   2
BRANCH   1  19
ATOM     19  N   UNL     1       4.836  -2.357   6.530  0.00  0.00    -0.298 N 
ATOM     20  C   UNL     1       5.711  -2.501   7.545  0.00  0.00    +0.219 C 
ATOM     21  O   UNL     1       6.580  -1.673   7.719  0.00  0.00    -0.275 OA
BRANCH  20  22
ATOM     22  C   UNL     1       5.611  -3.692   8.463  0.00  0.00    +0.079 C 
ATOM     23  C   UNL     1       4.489  -3.462   9.480  0.00  0.00    +0.041 C 
ATOM     24  C   UNL     1       4.446  -4.639  10.457  0.00  0.00    +0.160 C 
ATOM     25  O   UNL     1       5.717  -4.772  11.097  0.00  0.00    -0.380 OA
ATOM     26  C   UNL     1       6.797  -5.036  10.200  0.00  0.00    +0.160 C 
ATOM     27  C   UNL     1       6.934  -3.874   9.213  0.00  0.00    +0.041 C 
ENDBRANCH  20  22
BRANCH  19  29
ATOM     28  C   UNL     1       4.505  -4.596   5.604  0.00  0.00    +0.024 C 
ATOM     29  C   UNL     1       3.834  -3.395   6.274  0.00  0.00    +0.105 C 
ENDBRANCH  19  29
ENDBRANCH   1  19
BRANCH   1  30
ATOM     30  C   UNL     1       3.529  -0.456   5.718  0.00  0.00    +0.058 C 
BRANCH  30  31
ATOM     31  C   UNL     1       3.262   0.053   7.112  0.00  0.00    -0.046 A 
ATOM     32  C   UNL     1       2.603  -0.747   8.026  0.00  0.00    +0.004 A 
ATOM     33  C   UNL     1       2.363  -0.282   9.305  0.00  0.00    +0.000 A 
ATOM     34  C   UNL     1       2.773   0.987   9.667  0.00  0.00    +0.000 A 
ATOM     35  C   UNL     1       3.428   1.790   8.751  0.00  0.00    +0.000 A 
ATOM     36  C   UNL     1       3.672   1.323   7.474  0.00  0.00    +0.004 A 
ENDBRANCH  30  31
ENDBRANCH   1  30
TORSDOF 10
