REMARK  Name = ZINC36631677
REMARK  16 active torsions:
REMARK  status: ('A' for Active; 'I' for Inactive)
REMARK    1  A    between atoms: C_1  and  C_2
REMARK    2  A    between atoms: C_4  and  C_35
REMARK    3  A    between atoms: N_8  and  C_32
REMARK    4  A    between atoms: N_10  and  C_11
REMARK    5  A    between atoms: C_11  and  C_13
REMARK    6  A    between atoms: C_16  and  S_19
REMARK    7  A    between atoms: S_19  and  N_22
REMARK    8  A    between atoms: N_22  and  C_23
REMARK    9  A    between atoms: N_22  and  C_27
REMARK   10  A    between atoms: C_23  and  C_24
REMARK   11  A    between atoms: C_24  and  C_25
REMARK   12  A    between atoms: C_24  and  C_26
REMARK   13  A    between atoms: C_27  and  C_28
REMARK   14  A    between atoms: C_28  and  C_29
REMARK   15  A    between atoms: C_28  and  C_30
REMARK   16  A    between atoms: C_32  and  C_33
REMARK                            x       y       z     vdW  Elec       q    Type
REMARK                         _______ _______ _______ _____ _____    ______ ____
ROOT
ATOM      1  C   UNL     1      -0.577  -7.114   3.745  0.00  0.00    +0.039 A 
ATOM      2  C   UNL     1      -0.315  -6.831   5.085  0.00  0.00    +0.015 A 
ATOM      3  C   UNL     1      -0.087  -7.862   5.973  0.00  0.00    +0.029 A 
ATOM      4  C   UNL     1      -0.118  -9.175   5.536  0.00  0.00    +0.106 A 
ATOM      5  C   UNL     1      -0.377  -9.462   4.207  0.00  0.00    +0.029 A 
ATOM      6  C   UNL     1      -0.613  -8.439   3.311  0.00  0.00    +0.015 A 
ENDROOT
BRANCH   4   7
ATOM      7  S   UNL     1       0.175 -10.486   6.676  0.00  0.00    +0.061 S 
ATOM      8  O   UNL     1       0.770 -11.543   5.935  0.00  0.00    -0.153 OA
ATOM      9  O   UNL     1       0.801  -9.905   7.811  0.00  0.00    -0.153 OA
BRANCH   7  10
ATOM     10  N   UNL     1      -1.304 -11.036   7.179  0.00  0.00    -0.176 NA
BRANCH  10  11
ATOM     11  C   UNL     1      -1.906 -12.208   6.540  0.00  0.00    +0.112 C 
BRANCH  11  12
ATOM     12  C   UNL     1      -1.571 -13.461   7.352  0.00  0.00    -0.001 C 
ATOM     13  C   UNL     1      -2.301 -14.666   6.756  0.00  0.00    +0.008 C 
ATOM     14  C   UNL     1      -0.062 -13.708   7.310  0.00  0.00    +0.008 C 
ENDBRANCH  11  12
ENDBRANCH  10  11
BRANCH  10  15
ATOM     15  C   UNL     1      -2.009 -10.350   8.265  0.00  0.00    +0.112 C 
BRANCH  15  16
ATOM     16  C   UNL     1      -3.300  -9.732   7.723  0.00  0.00    -0.001 C 
ATOM     17  C   UNL     1      -4.074  -9.080   8.871  0.00  0.00    +0.008 C 
ATOM     18  C   UNL     1      -2.957  -8.673   6.673  0.00  0.00    +0.008 C 
ENDBRANCH  15  16
ENDBRANCH  10  15
ENDBRANCH   7  10
ENDBRANCH   4   7
BRANCH   1  19
ATOM     19  C   UNL     1      -0.823  -6.011   2.786  0.00  0.00    +0.269 C 
ATOM     20  O   UNL     1      -1.056  -6.261   1.617  0.00  0.00    -0.268 OA
BRANCH  19  30
ATOM     21  C   UNL     1      -1.626   2.097   0.527  0.00  0.00    +0.044 C 
ATOM     22  C   UNL     1      -1.579   0.592   0.460  0.00  0.00    -0.048 A 
ATOM     23  C   UNL     1      -1.805  -0.042  -0.751  0.00  0.00    +0.008 A 
ATOM     24  C   UNL     1      -1.761  -1.423  -0.812  0.00  0.00    -0.034 A 
ATOM     25  C   UNL     1      -1.494  -2.144   0.328  0.00  0.00    +0.042 A 
ATOM     26  C   UNL     1      -1.262  -1.528   1.567  0.00  0.00    +0.059 A 
ATOM     27  C   UNL     1      -1.307  -0.128   1.600  0.00  0.00    +0.030 A 
ATOM     28  N   UNL     1      -1.011  -2.418   2.594  0.00  0.00    -0.310 N 
ATOM     29  C   UNL     1      -1.008  -3.753   2.345  0.00  0.00    +0.168 A 
ATOM     30  N   UNL     1      -0.788  -4.742   3.204  0.00  0.00    -0.152 NA
ATOM     31  S   UNL     1      -1.345  -3.871   0.702  0.00  0.00    -0.052 S 
ATOM     32  C   UNL     1      -2.004  -2.134  -2.119  0.00  0.00    +0.045 C 
BRANCH  28  33
ATOM     33  C   UNL     1      -0.749  -1.923   3.948  0.00  0.00    +0.212 C 
BRANCH  33  34
ATOM     34  C   UNL     1      -2.019  -1.813   4.684  0.00  0.00    -0.084 C 
ATOM     35  C   UNL     1      -3.032  -1.725   5.271  0.00  0.00    +0.005 C 
ENDBRANCH  33  34
ENDBRANCH  28  33
ENDBRANCH  19  30
ENDBRANCH   1  19
TORSDOF 10
