REMARK  Name = ZINC63461725
REMARK  9 active torsions:
REMARK  status: ('A' for Active; 'I' for Inactive)
REMARK    1  A    between atoms: C_1  and  C_2
REMARK    2  A    between atoms: C_2  and  C_3
REMARK    3  A    between atoms: C_2  and  C_4
REMARK    4  A    between atoms: C_4  and  C_5
REMARK    5  A    between atoms: C_5  and  C_6
REMARK    6  A    between atoms: C_8  and  C_11
REMARK    7  A    between atoms: C_11  and  N_12
REMARK    8  A    between atoms: N_12  and  C_13
REMARK    9  A    between atoms: C_18  and  C_19
REMARK                            x       y       z     vdW  Elec       q    Type
REMARK                         _______ _______ _______ _____ _____    ______ ____
ROOT
ATOM      1  C   UNL     1      -7.577  -2.887   3.013  0.00  0.00    +0.040 A 
ATOM      2  C   UNL     1      -7.920  -4.173   3.411  0.00  0.00    +0.025 A 
ATOM      3  C   UNL     1      -9.049  -4.382   4.176  0.00  0.00    +0.022 A 
ATOM      4  C   UNL     1      -9.848  -3.313   4.555  0.00  0.00    +0.042 A 
ATOM      5  C   UNL     1      -9.522  -2.030   4.170  0.00  0.00    +0.035 A 
ATOM      6  C   UNL     1      -8.380  -1.803   3.399  0.00  0.00    +0.059 A 
ATOM      7 CL   UNL     1     -11.265  -3.593   5.518  0.00  0.00    -0.084 Cl
ENDROOT
BRANCH   6   8
ATOM      8  C   UNL     1      -8.022  -0.432   2.988  0.00  0.00    +0.248 C 
ATOM      9  O   UNL     1      -6.886  -0.028   3.144  0.00  0.00    -0.270 OA
ATOM     10  N   UNL     1      -8.955   0.372   2.441  0.00  0.00    -0.297 N 
ATOM     11  C   UNL     1     -10.383   0.052   2.294  0.00  0.00    +0.108 C 
ATOM     12  C   UNL     1     -11.051   1.254   1.593  0.00  0.00    +0.020 C 
ATOM     13  C   UNL     1      -9.861   1.944   0.876  0.00  0.00    +0.020 C 
ATOM     14  C   UNL     1      -8.714   1.720   1.895  0.00  0.00    +0.108 C 
ENDBRANCH   6   8
BRANCH   1  15
ATOM     15  N   UNL     1      -6.441  -2.675   2.241  0.00  0.00    -0.335 N 
ATOM     16  H   UNL     1      -6.245  -1.788   1.900  0.00  0.00    +0.147 HD
BRANCH  15  17
ATOM     17  C   UNL     1      -5.540  -3.790   1.943  0.00  0.00    +0.200 C 
BRANCH  17  20
ATOM     18  C   UNL     1      -2.472  -2.487   0.517  0.00  0.00    +0.172 A 
ATOM     19  N   UNL     1      -3.259  -2.834   1.541  0.00  0.00    -0.195 NA
ATOM     20  C   UNL     1      -4.394  -3.298   1.096  0.00  0.00    +0.244 A 
ATOM     21  O   UNL     1      -4.366  -3.261  -0.242  0.00  0.00    -0.336 OA
ATOM     22  N   UNL     1      -3.102  -2.722  -0.598  0.00  0.00    -0.061 NA
BRANCH  18  23
ATOM     23  C   UNL     1      -1.084  -1.912   0.634  0.00  0.00    +0.080 C 
BRANCH  23  24
ATOM     24  C   UNL     1      -1.168  -0.386   0.707  0.00  0.00    +0.011 C 
BRANCH  24  26
ATOM     25  C   UNL     1       0.166   1.725   0.773  0.00  0.00    +0.007 C 
ATOM     26  C   UNL     1       0.241   0.198   0.826  0.00  0.00    -0.017 C 
ATOM     27  C   UNL     1       0.862  -0.237   2.155  0.00  0.00    +0.007 C 
ENDBRANCH  24  26
ENDBRANCH  23  24
ENDBRANCH  18  23
ENDBRANCH  17  20
ENDBRANCH  15  17
ENDBRANCH   1  15
TORSDOF 7
