REMARK  Name = ZINC07473550
REMARK  3 active torsions:
REMARK  status: ('A' for Active; 'I' for Inactive)
REMARK    1  A    between atoms: C_1  and  C_2
REMARK    2  A    between atoms: N_11  and  C_15
REMARK    3  A    between atoms: C_15  and  C_16
REMARK                            x       y       z     vdW  Elec       q    Type
REMARK                         _______ _______ _______ _____ _____    ______ ____
ROOT
ATOM      1  C   UNL     1      -5.652   5.420   3.990  0.00  0.00    +0.010 C 
ATOM      2  C   UNL     1      -5.860   5.984   2.583  0.00  0.00    +0.018 C 
ATOM      3  C   UNL     1      -5.157   7.339   2.467  0.00  0.00    +0.006 C 
ATOM      4  C   UNL     1      -5.349   7.892   1.054  0.00  0.00    +0.000 C 
ATOM      5  C   UNL     1      -4.738   6.924   0.038  0.00  0.00    +0.003 C 
ATOM      6  C   UNL     1      -5.439   5.567   0.144  0.00  0.00    +0.035 C 
ATOM      7  C   UNL     1      -5.278   5.017   1.557  0.00  0.00    +0.115 C 
ATOM      8  C   UNL     1      -3.822   4.747   1.859  0.00  0.00    +0.247 C 
ATOM      9  O   UNL     1      -2.916   5.551   1.883  0.00  0.00    -0.273 OA
ATOM     10  N   UNL     1      -3.743   3.420   2.094  0.00  0.00    -0.215 N 
ATOM     11  C   UNL     1      -4.940   2.829   1.989  0.00  0.00    +0.310 C 
ATOM     12  O   UNL     1      -5.123   1.640   2.160  0.00  0.00    -0.252 OA
ATOM     13  N   UNL     1      -5.917   3.700   1.671  0.00  0.00    -0.285 N 
ATOM     14  H   UNL     1      -6.857   3.497   1.544  0.00  0.00    +0.151 HD
ENDROOT
BRANCH  10  15
ATOM     15  C   UNL     1      -2.503   2.716   2.429  0.00  0.00    +0.213 C 
BRANCH  15  16
ATOM     16  C   UNL     1      -1.839   2.238   1.163  0.00  0.00    +0.234 C 
ATOM     17  O   UNL     1      -2.351   2.464   0.088  0.00  0.00    -0.274 OA
ATOM     18  N   UNL     1      -0.676   1.560   1.227  0.00  0.00    -0.297 N 
ATOM     19  C   UNL     1      -0.037   1.275   2.521  0.00  0.00    +0.108 C 
ATOM     20  C   UNL     1       1.411   1.772   2.486  0.00  0.00    +0.019 C 
ATOM     21  C   UNL     1       2.133   1.172   1.276  0.00  0.00    +0.007 C 
ATOM     22  C   UNL     1       1.424   1.617  -0.003  0.00  0.00    +0.010 C 
ATOM     23  C   UNL     1      -0.013   1.086   0.008  0.00  0.00    +0.079 C 
ATOM     24  C   UNL     1      -0.742   1.593  -1.235  0.00  0.00    +0.023 C 
ATOM     25  C   UNL     1      -0.026   1.075  -2.483  0.00  0.00    +0.002 C 
ATOM     26  C   UNL     1       1.422   1.567  -2.494  0.00  0.00    +0.000 C 
ATOM     27  C   UNL     1       2.147   1.077  -1.236  0.00  0.00    +0.005 C 
ENDBRANCH  15  16
ENDBRANCH  10  15
TORSDOF 2
