REMARK  Name = ZINC10002267
REMARK  9 active torsions:
REMARK  status: ('A' for Active; 'I' for Inactive)
REMARK    1  A    between atoms: C_1  and  C_2
REMARK    2  A    between atoms: C_2  and  C_3
REMARK    3  A    between atoms: C_2  and  C_4
REMARK    4  A    between atoms: C_4  and  C_6
REMARK    5  A    between atoms: C_4  and  N_19
REMARK    6  A    between atoms: N_8  and  N_9
REMARK    7  A    between atoms: C_10  and  C_11
REMARK    8  A    between atoms: C_16  and  O_17
REMARK    9  A    between atoms: C_20  and  C_22
REMARK                            x       y       z     vdW  Elec       q    Type
REMARK                         _______ _______ _______ _____ _____    ______ ____
ROOT
ATOM      1  C   UNL     1      -6.068  -0.974   0.057  0.00  0.00    +0.163 C 
ENDROOT
BRANCH   1   2
ATOM      2  C   UNL     1      -4.776  -0.199   0.048  0.00  0.00    +0.253 C 
ATOM      3  O   UNL     1      -4.796   1.014   0.055  0.00  0.00    -0.272 OA
ATOM      4  N   UNL     1      -3.598  -0.853   0.033  0.00  0.00    -0.205 N 
ATOM      5  H   UNL     1      -3.582  -1.823   0.028  0.00  0.00    +0.177 HD
BRANCH   4   6
ATOM      6  N   UNL     1      -2.396  -0.132   0.025  0.00  0.00    -0.188 NA
ATOM      7  C   UNL     1      -1.262  -0.762   0.011  0.00  0.00    +0.142 C 
BRANCH   7   8
ATOM      8  C   UNL     1       0.002  -0.004   0.002  0.00  0.00    +0.037 A 
ATOM      9  C   UNL     1       1.225  -0.678  -0.013  0.00  0.00    +0.028 A 
ATOM     10  C   UNL     1       2.405   0.038  -0.021  0.00  0.00    +0.019 A 
ATOM     11  C   UNL     1       2.381   1.423  -0.013  0.00  0.00    +0.019 A 
ATOM     12  C   UNL     1       1.176   2.101   0.002  0.00  0.00    +0.047 A 
ATOM     13  C   UNL     1      -0.017   1.397   0.010  0.00  0.00    +0.126 A 
ATOM     14 BR   UNL     1       4.061  -0.875  -0.041  0.00  0.00    -0.050 Br
BRANCH  13  15
ATOM     15  O   UNL     1      -1.201   2.063   0.019  0.00  0.00    -0.506 OA
ATOM     16  H   UNL     1      -1.539   2.251   0.905  0.00  0.00    +0.292 HD
ENDBRANCH  13  15
ENDBRANCH   7   8
ENDBRANCH   4   6
ENDBRANCH   1   2
BRANCH   1  17
ATOM     17  N   UNL     1      -7.197  -0.041   0.073  0.00  0.00    -0.300 N 
ATOM     18  C   UNL     1      -8.386  -0.430   0.576  0.00  0.00    +0.245 C 
ATOM     19  O   UNL     1      -8.521  -1.555   1.017  0.00  0.00    -0.270 OA
ATOM     20  H   UNL     1      -7.090   0.857  -0.278  0.00  0.00    +0.150 HD
BRANCH  18  21
ATOM     21  C   UNL     1      -9.524   0.510   0.593  0.00  0.00    +0.040 A 
ATOM     22  C   UNL     1      -9.369   1.806   0.092  0.00  0.00    +0.017 A 
ATOM     23  C   UNL     1     -10.434   2.680   0.104  0.00  0.00    +0.050 A 
ATOM     24  C   UNL     1     -11.659   2.283   0.622  0.00  0.00    +0.166 A 
ATOM     25  C   UNL     1     -11.819   0.992   1.128  0.00  0.00    +0.167 A 
ATOM     26  C   UNL     1     -10.756   0.109   1.114  0.00  0.00    +0.062 A 
ATOM     27  O   UNL     1     -13.102   0.854   1.572  0.00  0.00    -0.453 OA
ATOM     28  C   UNL     1     -13.607   2.195   1.708  0.00  0.00    +0.466 C 
ATOM     29  O   UNL     1     -12.842   2.949   0.749  0.00  0.00    -0.453 OA
ENDBRANCH  18  21
ENDBRANCH   1  17
BRANCH   1  31
ATOM     30  C   UNL     1      -7.459  -2.635  -1.187  0.00  0.00    +0.009 C 
ATOM     31  C   UNL     1      -6.147  -1.848  -1.196  0.00  0.00    +0.012 C 
ATOM     32  C   UNL     1      -6.093  -0.961  -2.441  0.00  0.00    +0.009 C 
ENDBRANCH   1  31
TORSDOF 7
