REMARK  Name = ZINC40316833
REMARK  14 active torsions:
REMARK  status: ('A' for Active; 'I' for Inactive)
REMARK    1  A    between atoms: C_1  and  C_2
REMARK    2  A    between atoms: C_2  and  C_3
REMARK    3  A    between atoms: C_3  and  O_4
REMARK    4  A    between atoms: O_4  and  C_5
REMARK    5  A    between atoms: C_8  and  C_11
REMARK    6  A    between atoms: C_11  and  N_12
REMARK    7  A    between atoms: N_12  and  C_13
REMARK    8  A    between atoms: N_12  and  C_19
REMARK    9  A    between atoms: C_13  and  C_14
REMARK   10  A    between atoms: C_19  and  C_20
REMARK   11  A    between atoms: C_20  and  C_22
REMARK   12  A    between atoms: C_20  and  O_31
REMARK   13  A    between atoms: C_22  and  O_23
REMARK   14  A    between atoms: O_23  and  C_24
REMARK                            x       y       z     vdW  Elec       q    Type
REMARK                         _______ _______ _______ _____ _____    ______ ____
ROOT
ATOM      1  N   UNL     1       4.409  -4.383  -5.600  0.00  0.00    +0.389 N 
ATOM      2  H   UNL     1       4.779  -4.848  -4.785  0.00  0.00    -0.081 HD
ENDROOT
BRANCH   1   3
ATOM      3  C   UNL     1       2.942  -4.367  -5.529  0.00  0.00    -0.042 C 
BRANCH   3   7
ATOM      4  C   UNL     1       1.495  -8.353  -5.003  0.00  0.00    +0.121 A 
ATOM      5  C   UNL     1       1.903  -7.611  -3.904  0.00  0.00    +0.046 A 
ATOM      6  C   UNL     1       2.371  -6.323  -4.077  0.00  0.00    +0.005 A 
ATOM      7  C   UNL     1       2.431  -5.772  -5.344  0.00  0.00    -0.064 A 
ATOM      8  C   UNL     1       2.025  -6.510  -6.441  0.00  0.00    +0.005 A 
ATOM      9  C   UNL     1       1.562  -7.800  -6.274  0.00  0.00    +0.046 A 
BRANCH   4  10
ATOM     10  O   UNL     1       1.035  -9.621  -4.836  0.00  0.00    -0.492 OA
BRANCH  10  11
ATOM     11  C   UNL     1       0.879 -10.082  -3.492  0.00  0.00    +0.229 C 
BRANCH  11  13
ATOM     12  C   UNL     1       0.083 -11.971  -2.064  0.00  0.00    +0.007 C 
ATOM     13  C   UNL     1       0.250 -11.477  -3.502  0.00  0.00    +0.038 C 
ENDBRANCH  11  13
ENDBRANCH  10  11
ENDBRANCH   4  10
ENDBRANCH   3   7
ENDBRANCH   1   3
BRANCH   1  14
ATOM     14  C   UNL     1       4.912  -3.004  -5.649  0.00  0.00    -0.003 C 
BRANCH  14  15
ATOM     15  C   UNL     1       4.576  -2.301  -4.359  0.00  0.00    +0.089 A 
ATOM     16  C   UNL     1       5.356  -2.251  -3.264  0.00  0.00    +0.042 A 
ATOM     17  C   UNL     1       4.655  -1.494  -2.297  0.00  0.00    +0.041 A 
ATOM     18  C   UNL     1       3.490  -1.127  -2.859  0.00  0.00    +0.195 A 
ATOM     19  O   UNL     1       3.450  -1.614  -4.110  0.00  0.00    -0.470 OA
ENDBRANCH  14  15
ENDBRANCH   1  14
BRANCH   1  20
ATOM     20  C   UNL     1       4.833  -5.102  -6.809  0.00  0.00    -0.043 C 
BRANCH  20  21
ATOM     21  C   UNL     1       6.357  -5.229  -6.819  0.00  0.00    +0.135 C 
BRANCH  21  22
ATOM     22  O   UNL     1       6.775  -6.048  -5.726  0.00  0.00    -0.390 OA
ATOM     23  H   UNL     1       6.414  -6.946  -5.747  0.00  0.00    +0.210 HD
ENDBRANCH  21  22
BRANCH  21  24
ATOM     24  C   UNL     1       6.808  -5.865  -8.135  0.00  0.00    +0.258 C 
BRANCH  24  25
ATOM     25  O   UNL     1       8.235  -5.877  -8.195  0.00  0.00    -0.489 OA
BRANCH  25  26
ATOM     26  C   UNL     1       8.802  -6.413  -9.308  0.00  0.00    +0.121 A 
ATOM     27  C   UNL     1       8.000  -6.912 -10.324  0.00  0.00    +0.047 A 
ATOM     28  C   UNL     1       8.578  -7.457 -11.454  0.00  0.00    +0.019 A 
ATOM     29  C   UNL     1       9.956  -7.505 -11.573  0.00  0.00    +0.018 A 
ATOM     30  C   UNL     1      10.757  -7.008 -10.561  0.00  0.00    +0.019 A 
ATOM     31  C   UNL     1      10.183  -6.457  -9.432  0.00  0.00    +0.047 A 
ATOM     32 BR   UNL     1      10.744  -8.251 -13.122  0.00  0.00    -0.050 Br
ENDBRANCH  25  26
ENDBRANCH  24  25
ENDBRANCH  21  24
ENDBRANCH  20  21
ENDBRANCH   1  20
TORSDOF 13
