REMARK  Name = ZINC11782710
REMARK  10 active torsions:
REMARK  status: ('A' for Active; 'I' for Inactive)
REMARK    1  A    between atoms: C_1  and  C_2
REMARK    2  A    between atoms: C_2  and  C_3
REMARK    3  A    between atoms: C_3  and  C_4
REMARK    4  A    between atoms: C_4  and  C_19
REMARK    5  A    between atoms: N_7  and  C_11
REMARK    6  A    between atoms: C_11  and  C_12
REMARK    7  A    between atoms: C_12  and  C_13
REMARK    8  A    between atoms: C_18  and  N_72
REMARK    9  A    between atoms: C_25  and  C_27
REMARK   10  A    between atoms: C_28  and  C_29
REMARK                            x       y       z     vdW  Elec       q    Type
REMARK                         _______ _______ _______ _____ _____    ______ ____
ROOT
ATOM      1  C   UNL     1      -3.708  -1.272  -4.414  0.00  0.00    +0.115 C 
ATOM      2  C   UNL     1      -3.004  -0.281  -3.509  0.00  0.00    +0.247 C 
ATOM      3  O   UNL     1      -2.631   0.836  -3.796  0.00  0.00    -0.273 OA
ATOM      4  N   UNL     1      -2.876  -0.902  -2.319  0.00  0.00    -0.224 N 
ATOM      5  C   UNL     1      -3.402  -2.131  -2.344  0.00  0.00    +0.309 C 
ATOM      6  O   UNL     1      -3.411  -2.882  -1.389  0.00  0.00    -0.252 OA
ATOM      7  N   UNL     1      -3.922  -2.443  -3.546  0.00  0.00    -0.285 N 
ATOM      8  H   UNL     1      -4.353  -3.277  -3.792  0.00  0.00    +0.151 HD
ENDROOT
BRANCH   1   9
ATOM      9  C   UNL     1      -5.047  -0.704  -4.889  0.00  0.00    +0.024 C 
ATOM     10  C   UNL     1      -4.793   0.441  -5.874  0.00  0.00    +0.025 C 
ATOM     11  C   UNL     1      -6.135   0.985  -6.374  0.00  0.00    +0.108 C 
ATOM     12  N   UNL     1      -6.956   1.357  -5.214  0.00  0.00    -0.298 N 
ATOM     13  C   UNL     1      -7.187   0.358  -4.162  0.00  0.00    +0.108 C 
ATOM     14  C   UNL     1      -5.834  -0.179  -3.686  0.00  0.00    +0.025 C 
ATOM     15  C   UNL     1      -7.488   2.592  -5.117  0.00  0.00    +0.239 C 
ATOM     16  O   UNL     1      -8.236   2.862  -4.196  0.00  0.00    -0.271 OA
BRANCH  15  17
ATOM     17  C   UNL     1      -7.166   3.608  -6.120  0.00  0.00    +0.068 C 
ATOM     18  C   UNL     1      -7.604   4.874  -5.962  0.00  0.00    +0.016 C 
BRANCH  18  19
ATOM     19  C   UNL     1      -7.280   5.895  -6.970  0.00  0.00    +0.010 A 
ATOM     20  C   UNL     1      -6.514   5.559  -8.091  0.00  0.00    +0.011 A 
ATOM     21  C   UNL     1      -6.219   6.520  -9.034  0.00  0.00    +0.001 A 
ATOM     22  C   UNL     1      -6.669   7.820  -8.870  0.00  0.00    +0.003 A 
ATOM     23  C   UNL     1      -7.423   8.164  -7.763  0.00  0.00    +0.039 A 
ATOM     24  C   UNL     1      -7.733   7.211  -6.810  0.00  0.00    +0.131 A 
ATOM     25  F   UNL     1      -8.469   7.548  -5.728  0.00  0.00    -0.205 F 
ENDBRANCH  18  19
ENDBRANCH  15  17
ENDBRANCH   1   9
BRANCH   1  26
ATOM     26  C   UNL     1      -2.827  -1.642  -5.609  0.00  0.00    +0.035 C 
BRANCH  26  28
ATOM     27  C   UNL     1      -0.646  -2.644  -6.303  0.00  0.00    +0.004 C 
ATOM     28  C   UNL     1      -1.527  -2.274  -5.108  0.00  0.00    -0.001 C 
ENDBRANCH  26  28
ENDBRANCH   1  26
BRANCH   4  29
ATOM     29  C   UNL     1      -2.243  -0.301  -1.142  0.00  0.00    +0.116 C 
BRANCH  29  30
ATOM     30  C   UNL     1      -0.749  -0.629  -1.143  0.00  0.00    +0.004 C 
BRANCH  30  31
ATOM     31  C   UNL     1      -0.110  -0.104   0.144  0.00  0.00    -0.068 C 
ATOM     32  C   UNL     1      -0.687  -0.857   1.362  0.00  0.00    -0.017 C 
ATOM     33  C   UNL     1       0.548  -1.026   2.285  0.00  0.00    -0.020 C 
ATOM     34  C   UNL     1       1.682  -1.246   1.254  0.00  0.00    -0.079 C 
ATOM     35  C   UNL     1       1.755  -0.948  -1.156  0.00  0.00    -0.096 C 
ATOM     36  N   UNL     1       1.344  -0.343   0.138  0.00  0.00    +0.380 N 
ATOM     37  H   UNL     1       1.836   0.549   0.262  0.00  0.00    -0.082 HD
ENDBRANCH  30  31
ENDBRANCH  29  30
ENDBRANCH   4  29
TORSDOF 8
