REMARK  Name = ZINC15449997
REMARK  10 active torsions:
REMARK  status: ('A' for Active; 'I' for Inactive)
REMARK    1  A    between atoms: C_1  and  N_2
REMARK    2  A    between atoms: C_3  and  S_10
REMARK    3  A    between atoms: S_10  and  C_11
REMARK    4  A    between atoms: C_11  and  C_12
REMARK    5  A    between atoms: CA_13  and  C_36
REMARK    6  A    between atoms: CA_17  and  N_21
REMARK    7  A    between atoms: C_22  and  C_24
REMARK    8  A    between atoms: C_24  and  C_28
REMARK    9  A    between atoms: N_25  and  O_26
REMARK   10  A    between atoms: O_26  and  C_27
REMARK                            x       y       z     vdW  Elec       q    Type
REMARK                         _______ _______ _______ _____ _____    ______ ____
ROOT
ATOM      1  C   UNL     1       5.249   1.512   0.034  0.00  0.00    -0.021 C 
ATOM      2  CA  UNL     1       4.632   0.733   0.907  0.00  0.00    +0.127 C 
ATOM      3  N   UNL     1       3.289   0.355   0.703  0.00  0.00    -0.249 N 
ATOM      4  C   UNL     1       2.554   0.389  -0.597  0.00  0.00    +0.169 C 
ATOM      5  CA  UNL     1       1.331   0.324   0.304  0.00  0.00    +0.191 C 
ATOM      6  C   UNL     1       2.240   0.035   1.477  0.00  0.00    +0.244 C 
ATOM      7  O   UNL     1       2.088  -0.330   2.624  0.00  0.00    -0.273 OA
ATOM      8  S   UNL     1       2.910   2.026  -1.320  0.00  0.00    -0.131 S 
ATOM      9  C   UNL     1       4.728   2.061  -1.254  0.00  0.00    +0.104 C 
ENDROOT
BRANCH   5  10
ATOM     10  N   UNL     1       0.433  -0.787  -0.020  0.00  0.00    -0.296 N 
ATOM     11  C   UNL     1      -0.871  -0.718   0.312  0.00  0.00    +0.268 C 
ATOM     12  O   UNL     1      -1.283   0.220   0.966  0.00  0.00    -0.268 OA
ATOM     13  H   UNL     1       0.823  -1.678  -0.534  0.00  0.00    +0.150 HD
BRANCH  11  14
ATOM     14  C   UNL     1      -1.804  -1.786  -0.119  0.00  0.00    +0.190 C 
ATOM     15  N   UNL     1      -3.037  -1.782   0.299  0.00  0.00    -0.078 NA
BRANCH  14  16
ATOM     16  C   UNL     1      -1.333  -2.857  -1.024  0.00  0.00    +0.107 A 
ATOM     17  C   UNL     1      -2.210  -3.792  -1.506  0.00  0.00    +0.078 A 
ATOM     18  S   UNL     1      -1.116  -4.789  -2.508  0.00  0.00    -0.060 S 
ATOM     19  C   UNL     1       0.384  -3.872  -2.189  0.00  0.00    +0.156 A 
ATOM     20  N   UNL     1      -0.052  -2.920  -1.386  0.00  0.00    -0.223 NA
ATOM     21  N   UNL     1       1.665  -4.096  -2.664  0.00  0.00    -0.338 N 
ATOM     22  H   UNL     1       2.487  -3.428  -2.367  0.00  0.00    +0.144 HD
ATOM     23  H   UNL     1       1.861  -4.943  -3.338  0.00  0.00    +0.144 HD
ENDBRANCH  14  16
BRANCH  15  24
ATOM     24  O   UNL     1      -3.518  -0.700   1.076  0.00  0.00    -0.396 OA
ATOM     25  C   UNL     1      -4.887  -0.827   1.465  0.00  0.00    +0.313 C 
ENDBRANCH  15  24
ENDBRANCH  11  14
ENDBRANCH   5  10
BRANCH   2  26
ATOM     26  C   UNL     1       5.353   0.257   2.101  0.00  0.00    +0.401 C 
ATOM     27  O   UNL     1       4.755  -0.342   2.973  0.00  0.00    -0.239 OA
ATOM     28  OXT UNL     1       6.675   0.486   2.226  0.00  0.00    -0.239 OA
ENDBRANCH   2  26
BRANCH   1  29
ATOM     29  C   UNL     1       6.663   1.898   0.386  0.00  0.00    +0.111 C 
BRANCH  29  30
ATOM     30  S   UNL     1       7.791   0.573  -0.113  0.00  0.00    -0.082 S 
BRANCH  30  33
ATOM     31  C   UNL     1      10.357  -0.780  -0.442  0.00  0.00    +0.175 C 
ATOM     32  N   UNL     1      10.425   0.540   0.190  0.00  0.00    -0.241 N 
ATOM     33  C   UNL     1       9.282   1.249   0.387  0.00  0.00    +0.189 A 
ATOM     34  N   UNL     1       9.285   2.444   0.958  0.00  0.00    -0.179 NA
ATOM     35  C   UNL     1      10.422   3.010   1.364  0.00  0.00    +0.340 A 
ATOM     36  O   UNL     1      10.412   4.109   1.887  0.00  0.00    -0.260 OA
ATOM     37  C   UNL     1      11.712   2.275   1.166  0.00  0.00    +0.353 A 
ATOM     38  O   UNL     1      12.767   2.758   1.523  0.00  0.00    -0.258 OA
ATOM     39  N   UNL     1      11.668   1.057   0.579  0.00  0.00    -0.122 NA
ENDBRANCH  30  33
ENDBRANCH  29  30
ENDBRANCH   1  29
TORSDOF 8
