REMARK  Name = ZINC11785066
REMARK  9 active torsions:
REMARK  status: ('A' for Active; 'I' for Inactive)
REMARK    1  A    between atoms: C_1  and  N_73
REMARK    2  A    between atoms: C_2  and  C_3
REMARK    3  A    between atoms: C_2  and  N_73
REMARK    4  A    between atoms: C_7  and  O_9
REMARK    5  A    between atoms: O_9  and  C_10
REMARK    6  A    between atoms: C_10  and  C_11
REMARK    7  A    between atoms: C_18  and  C_20
REMARK    8  A    between atoms: C_29  and  C_30
REMARK    9  A    between atoms: C_29  and  N_73
REMARK                            x       y       z     vdW  Elec       q    Type
REMARK                         _______ _______ _______ _____ _____    ______ ____
ROOT
ATOM      1  C   UNL     1       2.447   1.472   0.347  0.00  0.00    -0.060 A 
ATOM      2  C   UNL     1       1.243   2.115   0.130  0.00  0.00    +0.002 A 
ATOM      3  C   UNL     1       0.103   1.380  -0.138  0.00  0.00    +0.004 A 
ATOM      4  C   UNL     1       0.165   0.001  -0.189  0.00  0.00    +0.045 A 
ATOM      5  C   UNL     1       1.372  -0.647   0.029  0.00  0.00    +0.121 A 
ATOM      6  C   UNL     1       2.515   0.093   0.298  0.00  0.00    +0.047 A 
ENDROOT
BRANCH   1   7
ATOM      7  C   UNL     1       3.688   2.276   0.638  0.00  0.00    -0.043 C 
BRANCH   7   9
ATOM      8  C   UNL     1       3.553   3.502  -1.445  0.00  0.00    -0.095 C 
ATOM      9  N   UNL     1       4.373   2.575  -0.637  0.00  0.00    +0.383 N 
ATOM     10  H   UNL     1       4.500   1.700  -1.160  0.00  0.00    -0.081 HD
BRANCH   9  11
ATOM     11  C   UNL     1       5.698   3.173  -0.371  0.00  0.00    -0.043 C 
BRANCH  11  12
ATOM     12  C   UNL     1       6.459   3.264  -1.669  0.00  0.00    -0.063 A 
ATOM     13  C   UNL     1       6.361   4.417  -2.445  0.00  0.00    +0.004 A 
ATOM     14  C   UNL     1       7.035   4.532  -3.621  0.00  0.00    +0.028 A 
ATOM     15  C   UNL     1       7.846   3.473  -4.066  0.00  0.00    +0.071 A 
ATOM     16  C   UNL     1       7.945   2.301  -3.275  0.00  0.00    +0.001 A 
ATOM     17  C   UNL     1       7.239   2.220  -2.064  0.00  0.00    +0.011 A 
ATOM     18  C   UNL     1       8.757   1.242  -3.722  0.00  0.00    +0.011 A 
ATOM     19  C   UNL     1       9.419   1.394  -4.908  0.00  0.00    +0.020 A 
ATOM     20  C   UNL     1       9.278   2.572  -5.637  0.00  0.00    +0.111 A 
ATOM     21  N   UNL     1       8.521   3.557  -5.217  0.00  0.00    -0.255 NA
ENDBRANCH  11  12
ENDBRANCH   9  11
ENDBRANCH   7   9
ENDBRANCH   1   7
BRANCH   5  22
ATOM     22  O   UNL     1       1.435  -2.003  -0.020  0.00  0.00    -0.492 OA
BRANCH  22  23
ATOM     23  C   UNL     1       0.220  -2.700  -0.302  0.00  0.00    +0.234 C 
BRANCH  23  24
ATOM     24  C   UNL     1       0.487  -4.206  -0.317  0.00  0.00    +0.044 C 
ATOM     25  C   UNL     1      -0.784  -4.946  -0.741  0.00  0.00    +0.010 C 
ATOM     26  C   UNL     1      -0.509  -6.451  -0.788  0.00  0.00    +0.019 C 
ATOM     27  C   UNL     1      -0.109  -6.937   0.609  0.00  0.00    +0.108 C 
ATOM     28  N   UNL     1       1.023  -6.131   1.084  0.00  0.00    -0.296 N 
ATOM     29  C   UNL     1       0.897  -4.667   1.085  0.00  0.00    +0.115 C 
ATOM     30  C   UNL     1       2.156  -6.723   1.511  0.00  0.00    +0.267 C 
ATOM     31  O   UNL     1       3.130  -6.047   1.782  0.00  0.00    -0.268 OA
BRANCH  30  32
ATOM     32  C   UNL     1       2.215  -8.192   1.650  0.00  0.00    +0.150 A 
ATOM     33  C   UNL     1       3.357  -8.964   1.962  0.00  0.00    +0.005 A 
ATOM     34  C   UNL     1       2.939 -10.248   1.984  0.00  0.00    +0.040 A 
ATOM     35  N   UNL     1       1.616 -10.239   1.699  0.00  0.00    -0.281 N 
ATOM     36  H   UNL     1       1.038 -11.053   1.642  0.00  0.00    +0.189 HD
ATOM     37  N   UNL     1       1.210  -9.035   1.513  0.00  0.00    -0.169 NA
ATOM     38  C   UNL     1       4.094 -11.167   2.312  0.00  0.00    +0.055 C 
ATOM     39  C   UNL     1       5.362 -10.320   2.067  0.00  0.00    +0.011 C 
ATOM     40  C   UNL     1       4.833  -8.883   2.271  0.00  0.00    +0.039 C 
ENDBRANCH  30  32
ENDBRANCH  23  24
ENDBRANCH  22  23
ENDBRANCH   5  22
TORSDOF 8
