REMARK  Name = ZINC38799071
REMARK  5 active torsions:
REMARK  status: ('A' for Active; 'I' for Inactive)
REMARK    1  A    between atoms: C_1  and  C_2
REMARK    2  A    between atoms: C_5  and  C_8
REMARK    3  A    between atoms: C_11  and  C_18
REMARK    4  A    between atoms: C_14  and  C_16
REMARK    5  A    between atoms: C_20  and  C_31
REMARK                            x       y       z     vdW  Elec       q    Type
REMARK                         _______ _______ _______ _____ _____    ______ ____
ROOT
ATOM      1  C   UNL     1      -2.067  -6.404   2.237  0.00  0.00    +0.152 C 
ATOM      2  C   UNL     1      -1.643  -6.838   3.627  0.00  0.00    -0.014 C 
ATOM      3  C   UNL     1      -1.790  -8.192   3.942  0.00  0.00    +0.002 A 
ATOM      4  C   UNL     1      -1.421  -8.681   5.212  0.00  0.00    +0.030 A 
ATOM      5  C   UNL     1      -1.575 -10.004   5.492  0.00  0.00    +0.042 A 
ATOM      6  C   UNL     1      -2.092 -10.889   4.548  0.00  0.00    +0.022 A 
ATOM      7  C   UNL     1      -2.466 -10.476   3.305  0.00  0.00    +0.025 A 
ATOM      8  C   UNL     1      -2.334  -9.122   2.946  0.00  0.00    +0.041 A 
ATOM      9  N   UNL     1      -2.703  -8.718   1.726  0.00  0.00    -0.284 N 
ATOM     10  C   UNL     1      -2.611  -7.470   1.314  0.00  0.00    +0.230 C 
ATOM     11  O   UNL     1      -2.965  -7.175   0.187  0.00  0.00    -0.274 OA
ATOM     12 CL   UNL     1      -1.120 -10.601   7.058  0.00  0.00    -0.084 Cl
ATOM     13  H   UNL     1      -3.056  -9.380   1.111  0.00  0.00    +0.155 HD
ENDROOT
BRANCH   1  16
ATOM     14  C   UNL     1       0.557  -4.606   0.028  0.00  0.00    +0.137 C 
ATOM     15  C   UNL     1      -0.907  -5.039   0.245  0.00  0.00    +0.083 C 
ATOM     16  C   UNL     1      -0.874  -5.774   1.565  0.00  0.00    +0.055 C 
ATOM     17  N   UNL     1       0.310  -5.781   2.023  0.00  0.00    -0.185 NA
ATOM     18  N   UNL     1       1.248  -5.131   1.217  0.00  0.00    -0.184 N 
ATOM     19  C   UNL     1       2.564  -5.004   1.482  0.00  0.00    +0.250 C 
ATOM     20  O   UNL     1       3.284  -4.415   0.704  0.00  0.00    -0.273 OA
BRANCH  14  25
ATOM     21  C   UNL     1       0.968   1.153  -0.195  0.00  0.00    +0.044 C 
ATOM     22  C   UNL     1       0.861  -0.349  -0.137  0.00  0.00    -0.050 A 
ATOM     23  C   UNL     1       0.903  -1.090  -1.303  0.00  0.00    +0.004 A 
ATOM     24  C   UNL     1       0.805  -2.468  -1.250  0.00  0.00    +0.006 A 
ATOM     25  C   UNL     1       0.665  -3.104  -0.030  0.00  0.00    -0.025 A 
ATOM     26  C   UNL     1       0.625  -2.363   1.136  0.00  0.00    +0.006 A 
ATOM     27  C   UNL     1       0.727  -0.985   1.083  0.00  0.00    +0.004 A 
ENDBRANCH  14  25
BRANCH  19  28
ATOM     28  C   UNL     1       3.139  -5.594   2.743  0.00  0.00    +0.206 C 
ATOM     29 CL   UNL     1       4.910  -5.260   2.810  0.00  0.00    -0.116 Cl
ENDBRANCH  19  28
ENDBRANCH   1  16
BRANCH   2  30
ATOM     30  C   UNL     1      -1.120  -5.913   4.565  0.00  0.00    -0.020 A 
ATOM     31  C   UNL     1       0.193  -6.057   5.044  0.00  0.00    +0.008 A 
ATOM     32  C   UNL     1       0.691  -5.152   5.955  0.00  0.00    +0.001 A 
ATOM     33  C   UNL     1      -0.098  -4.103   6.399  0.00  0.00    +0.000 A 
ATOM     34  C   UNL     1      -1.394  -3.952   5.933  0.00  0.00    +0.001 A 
ATOM     35  C   UNL     1      -1.909  -4.842   5.017  0.00  0.00    +0.008 A 
ENDBRANCH   2  30
TORSDOF 4
