REMARK  Name = ZINC36497226
REMARK  19 active torsions:
REMARK  status: ('A' for Active; 'I' for Inactive)
REMARK    1  A    between atoms: C_1  and  C_2
REMARK    2  A    between atoms: C_2  and  C_3
REMARK    3  A    between atoms: C_3  and  C_5
REMARK    4  A    between atoms: C_3  and  C_11
REMARK    5  A    between atoms: N_13  and  C_14
REMARK    6  A    between atoms: N_13  and  C_20
REMARK    7  A    between atoms: C_14  and  C_15
REMARK    8  A    between atoms: C_20  and  C_22
REMARK    9  A    between atoms: C_20  and  C_30
REMARK   10  A    between atoms: C_25  and  O_28
REMARK   11  A    between atoms: O_28  and  C_29
REMARK   12  A    between atoms: N_32  and  C_33
REMARK   13  A    between atoms: C_33  and  C_34
REMARK   14  A    between atoms: C_33  and  C_35
REMARK   15  A    between atoms: C_33  and  C_36
REMARK   16  A    between atoms: C_36  and  C_37
REMARK   17  A    between atoms: C_37  and  C_38
REMARK   18  A    between atoms: C_37  and  C_39
REMARK   19  A    between atoms: C_37  and  C_40
REMARK                            x       y       z     vdW  Elec       q    Type
REMARK                         _______ _______ _______ _____ _____    ______ ____
ROOT
ATOM      1  C   UNL     1      -1.562  -3.972  -1.050  0.00  0.00    +0.193 C 
ENDROOT
BRANCH   1   2
ATOM      2  C   UNL     1      -2.784  -4.226  -0.204  0.00  0.00    -0.018 A 
ATOM      3  C   UNL     1      -3.788  -3.277  -0.139  0.00  0.00    +0.009 A 
ATOM      4  C   UNL     1      -4.908  -3.507   0.636  0.00  0.00    +0.046 A 
ATOM      5  C   UNL     1      -5.025  -4.691   1.350  0.00  0.00    +0.120 A 
ATOM      6  C   UNL     1      -4.016  -5.641   1.283  0.00  0.00    +0.046 A 
ATOM      7  C   UNL     1      -2.900  -5.409   0.502  0.00  0.00    +0.009 A 
BRANCH   5   8
ATOM      8  O   UNL     1      -6.126  -4.920   2.113  0.00  0.00    -0.495 OA
ATOM      9  C   UNL     1      -6.178  -6.160   2.821  0.00  0.00    +0.277 C 
ENDBRANCH   5   8
ENDBRANCH   1   2
BRANCH   1  10
ATOM     10  C   UNL     1      -1.921  -4.118  -2.506  0.00  0.00    +0.239 C 
ATOM     11  O   UNL     1      -1.712  -3.205  -3.277  0.00  0.00    -0.273 OA
ATOM     12  N   UNL     1      -2.474  -5.263  -2.952  0.00  0.00    -0.308 N 
ATOM     13  H   UNL     1      -2.711  -5.964  -2.325  0.00  0.00    +0.149 HD
BRANCH  12  14
ATOM     14  C   UNL     1      -2.719  -5.449  -4.384  0.00  0.00    +0.030 C 
ATOM     15  C   UNL     1      -3.799  -4.469  -4.849  0.00  0.00    +0.031 C 
ATOM     16  C   UNL     1      -1.427  -5.189  -5.161  0.00  0.00    +0.031 C 
BRANCH  14  17
ATOM     17  C   UNL     1      -3.188  -6.883  -4.640  0.00  0.00    +0.031 C 
BRANCH  17  18
ATOM     18  C   UNL     1      -2.045  -7.854  -4.339  0.00  0.00    -0.036 C 
ATOM     19  C   UNL     1      -1.328  -7.418  -3.060  0.00  0.00    +0.010 C 
ATOM     20  C   UNL     1      -2.610  -9.264  -4.151  0.00  0.00    +0.010 C 
ATOM     21  C   UNL     1      -1.054  -7.853  -5.505  0.00  0.00    +0.010 C 
ENDBRANCH  17  18
ENDBRANCH  14  17
ENDBRANCH  12  14
ENDBRANCH   1  10
BRANCH   1  24
ATOM     22  C   UNL     1       0.084  -2.428  -0.131  0.00  0.00    +0.224 C 
ATOM     23  O   UNL     1       0.773  -3.381   0.166  0.00  0.00    -0.275 OA
ATOM     24  N   UNL     1      -1.070  -2.615  -0.802  0.00  0.00    -0.278 N 
BRANCH  22  25
ATOM     25  C   UNL     1       0.518  -1.036   0.250  0.00  0.00    +0.105 C 
BRANCH  25  26
ATOM     26  C   UNL     1       1.922  -1.079   0.794  0.00  0.00    -0.036 A 
ATOM     27  C   UNL     1       2.207  -1.840   1.913  0.00  0.00    +0.004 A 
ATOM     28  C   UNL     1       3.495  -1.880   2.413  0.00  0.00    +0.000 A 
ATOM     29  C   UNL     1       4.499  -1.158   1.794  0.00  0.00    +0.000 A 
ATOM     30  C   UNL     1       4.215  -0.398   0.675  0.00  0.00    +0.000 A 
ATOM     31  C   UNL     1       2.927  -0.362   0.172  0.00  0.00    +0.004 A 
ENDBRANCH  25  26
BRANCH  25  33
ATOM     32  C   UNL     1      -0.026   0.956   1.656  0.00  0.00    +0.005 C 
ATOM     33  C   UNL     1      -0.427  -0.482   1.318  0.00  0.00    +0.014 C 
ENDBRANCH  25  33
ENDBRANCH  22  25
BRANCH  24  34
ATOM     34  C   UNL     1      -1.832  -1.460  -1.283  0.00  0.00    +0.183 C 
BRANCH  34  35
ATOM     35  C   UNL     1      -1.000  -0.685  -2.272  0.00  0.00    +0.122 A 
ATOM     36  C   UNL     1      -0.875  -0.961  -3.582  0.00  0.00    +0.046 A 
ATOM     37  C   UNL     1      -0.006   0.013  -4.125  0.00  0.00    +0.041 A 
ATOM     38  C   UNL     1       0.349   0.826  -3.114  0.00  0.00    +0.195 A 
ATOM     39  O   UNL     1      -0.261   0.402  -1.995  0.00  0.00    -0.466 OA
ENDBRANCH  34  35
ENDBRANCH  24  34
ENDBRANCH   1  24
TORSDOF 12
