REMARK  Name = ZINC09479072
REMARK  8 active torsions:
REMARK  status: ('A' for Active; 'I' for Inactive)
REMARK    1  A    between atoms: C_4  and  O_27
REMARK    2  A    between atoms: C_5  and  N_7
REMARK    3  A    between atoms: C_8  and  C_10
REMARK    4  A    between atoms: C_10  and  N_51
REMARK    5  A    between atoms: C_11  and  C_13
REMARK    6  A    between atoms: C_11  and  C_22
REMARK    7  A    between atoms: C_11  and  N_51
REMARK    8  A    between atoms: O_27  and  C_28
REMARK                            x       y       z     vdW  Elec       q    Type
REMARK                         _______ _______ _______ _____ _____    ______ ____
ROOT
ATOM      1  N   UNL     1       2.082   5.294  -0.875  0.00  0.00    +0.392 N 
ATOM      2  H   UNL     1       2.670   6.083  -0.579  0.00  0.00    -0.084 HD
ATOM      3  H   UNL     1       2.627   4.425  -0.826  0.00  0.00    -0.084 HD
ENDROOT
BRANCH   1   4
ATOM      4  C   UNL     1       1.639   5.513  -2.265  0.00  0.00    +0.016 C 
BRANCH   4   6
ATOM      5  N   UNL     1       2.693   5.816  -4.482  0.00  0.00    -0.284 N 
ATOM      6  C   UNL     1       2.848   5.615  -3.159  0.00  0.00    +0.200 C 
ATOM      7  O   UNL     1       3.961   5.516  -2.687  0.00  0.00    -0.278 OA
ATOM      8  H   UNL     1       1.805   5.815  -4.872  0.00  0.00    +0.155 HD
BRANCH   5  13
ATOM      9  C   UNL     1       6.091   6.737  -5.551  0.00  0.00    +0.002 A 
ATOM     10  C   UNL     1       6.032   6.444  -6.902  0.00  0.00    +0.004 A 
ATOM     11  C   UNL     1       4.869   5.943  -7.455  0.00  0.00    +0.048 A 
ATOM     12  C   UNL     1       3.756   5.733  -6.655  0.00  0.00    +0.148 A 
ATOM     13  C   UNL     1       3.815   6.027  -5.295  0.00  0.00    +0.076 A 
ATOM     14  C   UNL     1       4.984   6.534  -4.748  0.00  0.00    +0.027 A 
BRANCH  12  15
ATOM     15  O   UNL     1       2.611   5.242  -7.198  0.00  0.00    -0.432 OA
BRANCH  15  16
ATOM     16  C   UNL     1       2.624   4.963  -8.600  0.00  0.00    +0.541 C 
ATOM     17  F   UNL     1       2.900   6.139  -9.306  0.00  0.00    -0.166 F 
ATOM     18  F   UNL     1       3.610   4.010  -8.877  0.00  0.00    -0.166 F 
ENDBRANCH  15  16
ENDBRANCH  12  15
ENDBRANCH   5  13
ENDBRANCH   4   6
ENDBRANCH   1   4
BRANCH   1  19
ATOM     19  C   UNL     1       0.917   5.190   0.024  0.00  0.00    -0.003 C 
BRANCH  19  20
ATOM     20  C   UNL     1       1.333   5.579   1.419  0.00  0.00    -0.056 A 
ATOM     21  C   UNL     1       2.558   5.173   1.914  0.00  0.00    +0.002 A 
ATOM     22  C   UNL     1       2.940   5.535   3.191  0.00  0.00    +0.004 A 
ATOM     23  C   UNL     1       2.093   6.293   3.983  0.00  0.00    -0.044 A 
ATOM     24  C   UNL     1       0.866   6.694   3.490  0.00  0.00    -0.044 A 
ATOM     25  C   UNL     1       0.488   6.335   2.207  0.00  0.00    +0.006 A 
ATOM     26  C   UNL     1       0.133   7.504   4.538  0.00  0.00    +0.036 C 
ATOM     27  C   UNL     1       0.850   7.188   5.867  0.00  0.00    +0.009 C 
ATOM     28  C   UNL     1       2.269   6.807   5.396  0.00  0.00    +0.036 C 
ENDBRANCH  19  20
BRANCH  19  29
ATOM     29  C   UNL     1       0.410   3.771   0.027  0.00  0.00    -0.020 A 
ATOM     30  C   UNL     1      -0.869   3.322   0.040  0.00  0.00    +0.010 A 
ATOM     31  C   UNL     1      -1.101   1.959   0.035  0.00  0.00    +0.008 A 
ATOM     32  C   UNL     1      -0.042   1.112   0.028  0.00  0.00    +0.045 A 
ATOM     33  S   UNL     1       1.337   2.245   0.016  0.00  0.00    -0.103 S 
ENDBRANCH  19  29
ENDBRANCH   1  19
TORSDOF 8
