REMARK  Name = ZINC40084430
REMARK  17 active torsions:
REMARK  status: ('A' for Active; 'I' for Inactive)
REMARK    1  A    between atoms: C_1  and  C_2
REMARK    2  A    between atoms: C_2  and  O_3
REMARK    3  A    between atoms: O_3  and  C_4
REMARK    4  A    between atoms: C_7  and  C_13
REMARK    5  A    between atoms: C_9  and  O_10
REMARK    6  A    between atoms: O_10  and  C_11
REMARK    7  A    between atoms: C_11  and  C_12
REMARK    8  A    between atoms: C_15  and  C_24
REMARK    9  A    between atoms: N_19  and  C_20
REMARK   10  A    between atoms: C_20  and  C_21
REMARK   11  A    between atoms: C_21  and  O_22
REMARK   12  A    between atoms: C_24  and  C_26
REMARK   13  A    between atoms: C_29  and  O_33
REMARK   14  A    between atoms: C_31  and  C_32
REMARK   15  A    between atoms: O_33  and  C_34
REMARK   16  A    between atoms: C_34  and  C_35
REMARK   17  A    between atoms: C_34  and  C_36
REMARK                            x       y       z     vdW  Elec       q    Type
REMARK                         _______ _______ _______ _____ _____    ______ ____
ROOT
ATOM      1  C   UNL     1       1.689  -5.522   2.099  0.00  0.00    +0.145 C 
ATOM      2  C   UNL     1       0.486  -6.335   2.517  0.00  0.00    +0.076 C 
ATOM      3  C   UNL     1       0.519  -7.480   1.797  0.00  0.00    +0.249 C 
ATOM      4  C   UNL     1       1.701  -7.463   0.911  0.00  0.00    +0.288 C 
ATOM      5  O   UNL     1       2.007  -8.349   0.139  0.00  0.00    -0.266 OA
ATOM      6  N   UNL     1       2.390  -6.318   1.085  0.00  0.00    -0.281 N 
ATOM      7  O   UNL     1      -0.387  -8.482   1.876  0.00  0.00    -0.282 OA
ENDROOT
BRANCH   1  11
ATOM      8  C   UNL     1       0.430  -1.794   0.425  0.00  0.00    +0.162 A 
ATOM      9  C   UNL     1       0.269  -2.968  -0.293  0.00  0.00    +0.050 A 
ATOM     10  C   UNL     1       0.677  -4.172   0.251  0.00  0.00    +0.009 A 
ATOM     11  C   UNL     1       1.246  -4.207   1.511  0.00  0.00    -0.019 A 
ATOM     12  C   UNL     1       1.409  -3.039   2.232  0.00  0.00    +0.055 A 
ATOM     13  C   UNL     1       1.008  -1.829   1.690  0.00  0.00    +0.162 A 
BRANCH   8  14
ATOM     14  O   UNL     1       0.030  -0.609  -0.109  0.00  0.00    -0.489 OA
BRANCH  14  16
ATOM     15  C   UNL     1      -0.939   0.768  -1.843  0.00  0.00    +0.048 C 
ATOM     16  C   UNL     1      -0.555  -0.649  -1.412  0.00  0.00    +0.226 C 
ENDBRANCH  14  16
ENDBRANCH   8  14
BRANCH  13  17
ATOM     17  O   UNL     1       1.174  -0.678   2.396  0.00  0.00    -0.489 OA
BRANCH  17  18
ATOM     18  C   UNL     1       1.872  -0.774   3.639  0.00  0.00    +0.226 C 
ATOM     19  C   UNL     1       1.920   0.603   4.305  0.00  0.00    +0.048 C 
ENDBRANCH  17  18
ENDBRANCH  13  17
ENDBRANCH   1  11
BRANCH   2  20
ATOM     20  C   UNL     1      -0.523  -5.956   3.512  0.00  0.00    +0.195 C 
ATOM     21  O   UNL     1      -0.383  -4.937   4.162  0.00  0.00    -0.287 OA
BRANCH  20  22
ATOM     22  C   UNL     1      -1.707  -6.812   3.725  0.00  0.00    +0.025 A 
ATOM     23  C   UNL     1      -1.795  -7.616   4.866  0.00  0.00    +0.015 A 
ATOM     24  C   UNL     1      -2.901  -8.412   5.061  0.00  0.00    +0.046 A 
ATOM     25  C   UNL     1      -3.930  -8.417   4.125  0.00  0.00    +0.121 A 
ATOM     26  C   UNL     1      -3.846  -7.619   2.989  0.00  0.00    +0.049 A 
ATOM     27  C   UNL     1      -2.746  -6.815   2.790  0.00  0.00    -0.036 A 
ATOM     28  C   UNL     1      -2.659  -5.946   1.562  0.00  0.00    +0.044 C 
BRANCH  25  29
ATOM     29  O   UNL     1      -5.018  -9.203   4.321  0.00  0.00    -0.489 OA
BRANCH  29  30
ATOM     30  C   UNL     1      -4.990 -10.081   5.448  0.00  0.00    +0.167 C 
ATOM     31  C   UNL     1      -5.487  -9.335   6.688  0.00  0.00    +0.051 C 
ATOM     32  C   UNL     1      -5.897 -11.284   5.180  0.00  0.00    +0.051 C 
ENDBRANCH  29  30
ENDBRANCH  25  29
ENDBRANCH  20  22
ENDBRANCH   2  20
BRANCH   6  33
ATOM     33  C   UNL     1       3.619  -5.935   0.387  0.00  0.00    +0.137 C 
BRANCH  33  34
ATOM     34  C   UNL     1       4.831  -6.430   1.179  0.00  0.00    +0.175 C 
BRANCH  34  35
ATOM     35  O   UNL     1       4.837  -7.859   1.197  0.00  0.00    -0.393 OA
ATOM     36  H   UNL     1       5.579  -8.243   1.683  0.00  0.00    +0.209 HD
ENDBRANCH  34  35
ENDBRANCH  33  34
ENDBRANCH   6  33
TORSDOF 12
