REMARK  Name = ZINC21257920
REMARK  10 active torsions:
REMARK  status: ('A' for Active; 'I' for Inactive)
REMARK    1  A    between atoms: C_1  and  C_2
REMARK    2  A    between atoms: C_2  and  C_3
REMARK    3  A    between atoms: C_2  and  O_4
REMARK    4  A    between atoms: O_4  and  C_5
REMARK    5  A    between atoms: C_8  and  C_11
REMARK    6  A    between atoms: C_16  and  C_22
REMARK    7  A    between atoms: C_24  and  O_31
REMARK    8  A    between atoms: C_25  and  O_29
REMARK    9  A    between atoms: O_29  and  C_30
REMARK   10  A    between atoms: O_31  and  C_32
REMARK                            x       y       z     vdW  Elec       q    Type
REMARK                         _______ _______ _______ _____ _____    ______ ____
ROOT
ATOM      1  C   UNL     1       2.490   1.045  -0.010  0.00  0.00    +0.032 C 
ATOM      2  C   UNL     1       3.395   1.630  -1.096  0.00  0.00    +0.059 C 
ATOM      3  C   UNL     1       4.728   0.924  -1.078  0.00  0.00    +0.018 C 
ATOM      4  C   UNL     1       5.233   0.429   0.071  0.00  0.00    +0.020 C 
ATOM      5  C   UNL     1       6.575  -0.264   0.067  0.00  0.00    +0.064 C 
ATOM      6  C   UNL     1       6.747  -1.030  -1.245  0.00  0.00    +0.109 C 
ATOM      7  C   UNL     1       6.389  -0.126  -2.396  0.00  0.00    +0.218 C 
ATOM      8  O   UNL     1       6.974  -0.232  -3.453  0.00  0.00    -0.275 OA
ATOM      9  N   UNL     1       5.423   0.798  -2.254  0.00  0.00    -0.289 N 
ATOM     10  C   UNL     1       4.534   0.541   1.285  0.00  0.00    +0.162 C 
ATOM     11  O   UNL     1       5.026   0.093   2.302  0.00  0.00    -0.292 OA
ATOM     12  C   UNL     1       3.186   1.207   1.346  0.00  0.00    +0.088 C 
ATOM     13  H   UNL     1       5.194   1.460  -3.102  0.00  0.00    +0.155 HD
ENDROOT
BRANCH   5  14
ATOM     14  C   UNL     1       7.671   0.763   0.196  0.00  0.00    -0.022 A 
ATOM     15  C   UNL     1       7.806   1.752  -0.761  0.00  0.00    +0.054 A 
ATOM     16  C   UNL     1       8.810   2.699  -0.641  0.00  0.00    +0.162 A 
ATOM     17  C   UNL     1       9.687   2.647   0.438  0.00  0.00    +0.163 A 
ATOM     18  C   UNL     1       9.550   1.652   1.391  0.00  0.00    +0.065 A 
ATOM     19  C   UNL     1       8.542   0.711   1.269  0.00  0.00    +0.025 A 
ATOM     20 BR   UNL     1       8.356  -0.647   2.571  0.00  0.00    -0.050 Br
BRANCH  17  21
ATOM     21  O   UNL     1      10.677   3.572   0.557  0.00  0.00    -0.491 OA
ATOM     22  C   UNL     1      11.540   3.457   1.690  0.00  0.00    +0.277 C 
ENDBRANCH  17  21
BRANCH  16  23
ATOM     23  O   UNL     1       8.941   3.675  -1.579  0.00  0.00    -0.491 OA
ATOM     24  C   UNL     1       8.005   3.666  -2.660  0.00  0.00    +0.277 C 
ENDBRANCH  16  23
ENDBRANCH   5  14
BRANCH   1  28
ATOM     25  C   UNL     1      -1.237   3.137   0.032  0.00  0.00    +0.121 A 
ATOM     26  C   UNL     1      -1.210   1.769  -0.199  0.00  0.00    +0.046 A 
ATOM     27  C   UNL     1      -0.005   1.094  -0.207  0.00  0.00    +0.007 A 
ATOM     28  C   UNL     1       1.176   1.783   0.005  0.00  0.00    -0.043 A 
ATOM     29  C   UNL     1       1.152   3.147   0.231  0.00  0.00    +0.007 A 
ATOM     30  C   UNL     1      -0.051   3.825   0.245  0.00  0.00    +0.046 A 
BRANCH  25  31
ATOM     31  O   UNL     1      -2.422   3.802   0.045  0.00  0.00    -0.489 OA
BRANCH  31  33
ATOM     32  C   UNL     1      -3.631   5.837  -0.441  0.00  0.00    +0.051 C 
ATOM     33  C   UNL     1      -2.365   5.225   0.163  0.00  0.00    +0.167 C 
ATOM     34  C   UNL     1      -2.268   5.611   1.641  0.00  0.00    +0.051 C 
ENDBRANCH  31  33
ENDBRANCH  25  31
ENDBRANCH   1  28
TORSDOF 6
