REMARK  Name = ZINC12135907
REMARK  8 active torsions:
REMARK  status: ('A' for Active; 'I' for Inactive)
REMARK    1  A    between atoms: C_4  and  C_7
REMARK    2  A    between atoms: C_7  and  C_8
REMARK    3  A    between atoms: C_7  and  C_30
REMARK    4  A    between atoms: C_8  and  C_9
REMARK    5  A    between atoms: C_9  and  N_72
REMARK    6  A    between atoms: C_10  and  N_72
REMARK    7  A    between atoms: N_13  and  C_16
REMARK    8  A    between atoms: C_19  and  C_22
REMARK                            x       y       z     vdW  Elec       q    Type
REMARK                         _______ _______ _______ _____ _____    ______ ____
ROOT
ATOM      1  C   UNL     1      -6.970   4.937  -2.236  0.00  0.00    -0.069 C 
ATOM      2  C   UNL     1      -5.785   5.206  -1.305  0.00  0.00    +0.003 C 
ATOM      3  C   UNL     1      -4.522   4.581  -1.901  0.00  0.00    +0.103 C 
ATOM      4  N   UNL     1      -4.720   3.135  -2.065  0.00  0.00    -0.330 N 
ATOM      5  C   UNL     1      -5.822   2.852  -2.992  0.00  0.00    +0.103 C 
ATOM      6  C   UNL     1      -7.125   3.426  -2.429  0.00  0.00    +0.003 C 
ENDROOT
BRANCH   4   7
ATOM      7  C   UNL     1      -3.547   2.516  -2.481  0.00  0.00    +0.030 A 
ATOM      8  C   UNL     1      -3.526   1.140  -2.695  0.00  0.00    +0.024 A 
ATOM      9  C   UNL     1      -2.366   0.524  -3.107  0.00  0.00    +0.015 A 
ATOM     10  C   UNL     1      -1.209   1.281  -3.312  0.00  0.00    +0.037 A 
ATOM     11  C   UNL     1      -1.232   2.661  -3.091  0.00  0.00    +0.015 A 
ATOM     12  C   UNL     1      -2.396   3.272  -2.684  0.00  0.00    +0.024 A 
BRANCH  10  13
ATOM     13  C   UNL     1       0.035   0.624  -3.753  0.00  0.00    +0.247 C 
ATOM     14  O   UNL     1      -0.015  -0.336  -4.498  0.00  0.00    -0.270 OA
ATOM     15  N   UNL     1       1.229   1.090  -3.336  0.00  0.00    -0.293 N 
ATOM     16  C   UNL     1       1.320   2.300  -2.503  0.00  0.00    +0.136 C 
ATOM     17  C   UNL     1       2.196   1.976  -1.282  0.00  0.00    +0.179 C 
ATOM     18  O   UNL     1       3.435   1.418  -1.728  0.00  0.00    -0.377 OA
ATOM     19  C   UNL     1       3.300   0.180  -2.430  0.00  0.00    +0.179 C 
ATOM     20  C   UNL     1       2.480   0.408  -3.705  0.00  0.00    +0.136 C 
ENDBRANCH  10  13
ENDBRANCH   4   7
BRANCH   1  21
ATOM     21  N   UNL     1      -8.198   5.487  -1.631  0.00  0.00    +0.381 N 
ATOM     22  H   UNL     1      -8.592   4.799  -0.979  0.00  0.00    -0.086 HD
ATOM     23  H   UNL     1      -7.968   6.348  -1.123  0.00  0.00    -0.086 HD
BRANCH  21  24
ATOM     24  C   UNL     1      -9.193   5.790  -2.678  0.00  0.00    -0.081 C 
BRANCH  24  25
ATOM     25  C   UNL     1     -10.453   6.358  -2.021  0.00  0.00    -0.006 C 
BRANCH  25  26
ATOM     26  C   UNL     1     -11.491   6.675  -3.100  0.00  0.00    +0.047 C 
BRANCH  26  30
ATOM     27  C   UNL     1     -12.735   3.052  -4.989  0.00  0.00    +0.000 A 
ATOM     28  C   UNL     1     -12.774   3.162  -3.612  0.00  0.00    +0.000 A 
ATOM     29  C   UNL     1     -12.370   4.334  -3.000  0.00  0.00    +0.004 A 
ATOM     30  C   UNL     1     -11.930   5.397  -3.766  0.00  0.00    -0.040 A 
ATOM     31  C   UNL     1     -11.897   5.289  -5.144  0.00  0.00    +0.004 A 
ATOM     32  C   UNL     1     -12.295   4.115  -5.755  0.00  0.00    +0.000 A 
ENDBRANCH  26  30
BRANCH  26  33
ATOM     33  C   UNL     1     -12.682   7.347  -2.468  0.00  0.00    -0.040 A 
ATOM     34  C   UNL     1     -13.309   6.765  -1.382  0.00  0.00    +0.004 A 
ATOM     35  C   UNL     1     -14.399   7.384  -0.799  0.00  0.00    +0.000 A 
ATOM     36  C   UNL     1     -14.869   8.580  -1.309  0.00  0.00    +0.000 A 
ATOM     37  C   UNL     1     -14.246   9.159  -2.398  0.00  0.00    +0.000 A 
ATOM     38  C   UNL     1     -13.152   8.543  -2.978  0.00  0.00    +0.004 A 
ENDBRANCH  26  33
ENDBRANCH  25  26
ENDBRANCH  24  25
ENDBRANCH  21  24
ENDBRANCH   1  21
TORSDOF 8
