REMARK  Name = ZINC24270350
REMARK  8 active torsions:
REMARK  status: ('A' for Active; 'I' for Inactive)
REMARK    1  A    between atoms: C_1  and  C_2
REMARK    2  A    between atoms: C_6  and  N_9
REMARK    3  A    between atoms: C_7  and  C_8
REMARK    4  A    between atoms: C_10  and  S_14
REMARK    5  A    between atoms: S_14  and  C_15
REMARK    6  A    between atoms: C_15  and  C_17
REMARK    7  A    between atoms: C_15  and  C_18
REMARK    8  A    between atoms: C_23  and  C_26
REMARK                            x       y       z     vdW  Elec       q    Type
REMARK                         _______ _______ _______ _____ _____    ______ ____
ROOT
ATOM      1  C   UNL     1      -1.983  -1.863   0.004  0.00  0.00    +0.232 C 
ATOM      2  O   UNL     1      -1.118  -2.627   0.375  0.00  0.00    -0.274 OA
ATOM      3  N   UNL     1      -3.142  -2.344  -0.488  0.00  0.00    -0.264 N 
ATOM      4  C   UNL     1      -3.346  -3.716  -0.569  0.00  0.00    +0.165 A 
ATOM      5  N   UNL     1      -4.396  -4.380  -1.014  0.00  0.00    -0.225 NA
ATOM      6  C   UNL     1      -4.422  -5.704  -1.019  0.00  0.00    +0.080 A 
ATOM      7  C   UNL     1      -3.339  -6.398  -0.555  0.00  0.00    +0.076 A 
ATOM      8  S   UNL     1      -2.252  -5.051  -0.106  0.00  0.00    -0.060 S 
ATOM      9  H   UNL     1      -3.926  -1.651  -0.826  0.00  0.00    +0.157 HD
ENDROOT
BRANCH   6  10
ATOM     10  C   UNL     1      -5.614  -6.428  -1.524  0.00  0.00    +0.004 A 
ATOM     11  C   UNL     1      -6.716  -5.716  -1.996  0.00  0.00    +0.013 A 
ATOM     12  C   UNL     1      -7.824  -6.393  -2.465  0.00  0.00    +0.042 A 
ATOM     13  C   UNL     1      -7.843  -7.777  -2.466  0.00  0.00    +0.158 A 
ATOM     14  C   UNL     1      -6.750  -8.491  -1.996  0.00  0.00    +0.159 A 
ATOM     15  C   UNL     1      -5.634  -7.821  -1.532  0.00  0.00    +0.051 A 
ATOM     16  F   UNL     1      -6.774  -9.842  -2.000  0.00  0.00    -0.202 F 
ATOM     17  F   UNL     1      -8.931  -8.435  -2.925  0.00  0.00    -0.202 F 
ENDBRANCH   6  10
BRANCH   1  18
ATOM     18  C   UNL     1      -1.762  -0.375   0.091  0.00  0.00    +0.137 C 
ATOM     19  C   UNL     1      -2.365   0.154   1.394  0.00  0.00    +0.029 C 
BRANCH  18  20
ATOM     20  S   UNL     1       0.014  -0.026   0.062  0.00  0.00    -0.072 S 
BRANCH  20  22
ATOM     21  N   UNL     1       1.057   2.567  -0.008  0.00  0.00    -0.187 N 
ATOM     22  C   UNL     1      -0.021   1.736   0.023  0.00  0.00    +0.215 A 
ATOM     23  N   UNL     1      -1.094   2.498   0.013  0.00  0.00    -0.101 NA
ATOM     24  N   UNL     1      -0.764   3.738  -0.013  0.00  0.00    -0.022 NA
ATOM     25  N   UNL     1       0.518   3.866  -0.031  0.00  0.00    -0.038 NA
BRANCH  21  31
ATOM     26  C   UNL     1       5.557   3.048  -1.937  0.00  0.00    +0.044 C 
ATOM     27  C   UNL     1       4.614   2.425  -0.939  0.00  0.00    -0.046 A 
ATOM     28  C   UNL     1       5.086   1.495  -0.030  0.00  0.00    +0.004 A 
ATOM     29  C   UNL     1       4.224   0.921   0.886  0.00  0.00    +0.002 A 
ATOM     30  C   UNL     1       2.890   1.278   0.899  0.00  0.00    +0.028 A 
ATOM     31  C   UNL     1       2.412   2.207  -0.016  0.00  0.00    +0.073 A 
ATOM     32  C   UNL     1       3.280   2.782  -0.934  0.00  0.00    -0.022 A 
ATOM     33  C   UNL     1       2.767   3.794  -1.926  0.00  0.00    +0.046 C 
ENDBRANCH  21  31
ENDBRANCH  20  22
ENDBRANCH  18  20
ENDBRANCH   1  18
TORSDOF 5
