REMARK  Name = ZINC39674438
REMARK  9 active torsions:
REMARK  status: ('A' for Active; 'I' for Inactive)
REMARK    1  A    between atoms: C_1  and  C_2
REMARK    2  A    between atoms: C_4  and  C_9
REMARK    3  A    between atoms: C_5  and  C_8
REMARK    4  A    between atoms: C_9  and  C_11
REMARK    5  A    between atoms: C_9  and  N_12
REMARK    6  A    between atoms: C_13  and  C_15
REMARK    7  A    between atoms: C_26  and  C_28
REMARK    8  A    between atoms: C_33  and  O_34
REMARK    9  A    between atoms: O_34  and  C_35
REMARK                            x       y       z     vdW  Elec       q    Type
REMARK                         _______ _______ _______ _____ _____    ______ ____
ROOT
ATOM      1  C   UNL     1      -2.810  -1.831  -4.575  0.00  0.00    +0.100 C 
ATOM      2  C   UNL     1      -2.358  -0.462  -5.130  0.00  0.00    +0.121 C 
ATOM      3  N   UNL     1      -2.996  -0.370  -6.464  0.00  0.00    -0.296 N 
ATOM      4  C   UNL     1      -4.345  -0.953  -6.269  0.00  0.00    +0.115 C 
ATOM      5  C   UNL     1      -4.115  -2.150  -5.324  0.00  0.00    -0.004 C 
ATOM      6  C   UNL     1      -3.961  -3.436  -6.129  0.00  0.00    -0.010 C 
ATOM      7  C   UNL     1      -5.288  -3.763  -6.820  0.00  0.00    -0.082 C 
ATOM      8  N   UNL     1      -6.342  -3.917  -5.810  0.00  0.00    +0.379 N 
ATOM      9  C   UNL     1      -6.547  -2.647  -5.102  0.00  0.00    -0.082 C 
ATOM     10  C   UNL     1      -5.273  -2.274  -4.339  0.00  0.00    -0.010 C 
ATOM     11  C   UNL     1      -2.470   0.131  -7.599  0.00  0.00    +0.252 C 
ATOM     12  O   UNL     1      -3.155   0.220  -8.600  0.00  0.00    -0.270 OA
ATOM     13  H   UNL     1      -7.201  -4.191  -6.262  0.00  0.00    -0.086 HD
ATOM     14  H   UNL     1      -6.070  -4.629  -5.148  0.00  0.00    -0.086 HD
ENDROOT
BRANCH  11  15
ATOM     15  C   UNL     1      -1.062   0.573  -7.628  0.00  0.00    +0.099 A 
ATOM     16  C   UNL     1      -0.477   1.161  -6.500  0.00  0.00    +0.020 A 
ATOM     17  C   UNL     1       0.846   1.557  -6.578  0.00  0.00    +0.021 A 
ATOM     18  C   UNL     1       1.547   1.363  -7.755  0.00  0.00    +0.114 A 
ATOM     19  N   UNL     1       0.976   0.806  -8.805  0.00  0.00    -0.220 NA
ATOM     20  C   UNL     1      -0.284   0.404  -8.783  0.00  0.00    +0.233 A 
BRANCH  20  21
ATOM     21  O   UNL     1      -0.828  -0.167  -9.883  0.00  0.00    -0.437 OA
BRANCH  21  22
ATOM     22  C   UNL     1      -0.014  -0.412 -10.944  0.00  0.00    +0.130 A 
ATOM     23  C   UNL     1      -0.064   0.409 -12.061  0.00  0.00    +0.046 A 
ATOM     24  C   UNL     1       0.765   0.159 -13.138  0.00  0.00    +0.004 A 
ATOM     25  C   UNL     1       1.644  -0.909 -13.102  0.00  0.00    +0.000 A 
ATOM     26  C   UNL     1       1.695  -1.728 -11.990  0.00  0.00    +0.004 A 
ATOM     27  C   UNL     1       0.872  -1.479 -10.908  0.00  0.00    +0.046 A 
ENDBRANCH  21  22
ENDBRANCH  20  21
ENDBRANCH  11  15
BRANCH   1  29
ATOM     28  N   UNL     1      -3.030  -2.848  -2.331  0.00  0.00    -0.309 N 
ATOM     29  C   UNL     1      -3.066  -1.737  -3.092  0.00  0.00    +0.219 C 
ATOM     30  O   UNL     1      -3.304  -0.661  -2.585  0.00  0.00    -0.275 OA
ATOM     31  H   UNL     1      -2.840  -3.708  -2.736  0.00  0.00    +0.149 HD
BRANCH  28  32
ATOM     32  C   UNL     1      -3.278  -2.757  -0.890  0.00  0.00    +0.100 C 
ATOM     33  C   UNL     1      -1.977  -2.399  -0.170  0.00  0.00    +0.033 C 
BRANCH  32  36
ATOM     34  C   UNL     1      -1.773  -5.506   0.082  0.00  0.00    +0.039 C 
ATOM     35  C   UNL     1      -3.159  -5.454  -0.563  0.00  0.00    +0.154 C 
ATOM     36  C   UNL     1      -3.785  -4.083  -0.383  0.00  0.00    -0.001 C 
ATOM     37  C   UNL     1      -4.887  -4.324   0.331  0.00  0.00    +0.063 C 
ATOM     38  N   UNL     1      -5.006  -5.643   0.600  0.00  0.00    -0.159 NA
ATOM     39  N   UNL     1      -4.096  -6.346   0.142  0.00  0.00    -0.180 NA
ATOM     40  C   UNL     1      -5.866  -3.268   0.776  0.00  0.00    +0.067 C 
ENDBRANCH  32  36
ENDBRANCH  28  32
ENDBRANCH   1  29
TORSDOF 6
