REMARK  Name = ZINC09644796
REMARK  9 active torsions:
REMARK  status: ('A' for Active; 'I' for Inactive)
REMARK    1  A    between atoms: C_1  and  C_2
REMARK    2  A    between atoms: C_7  and  C_8
REMARK    3  A    between atoms: C_11  and  S_13
REMARK    4  A    between atoms: S_13  and  C_14
REMARK    5  A    between atoms: C_14  and  C_15
REMARK    6  A    between atoms: N_17  and  C_18
REMARK    7  A    between atoms: N_17  and  C_27
REMARK    8  A    between atoms: C_18  and  C_19
REMARK    9  A    between atoms: C_20  and  C_21
REMARK                            x       y       z     vdW  Elec       q    Type
REMARK                         _______ _______ _______ _____ _____    ______ ____
ROOT
ATOM      1  C   UNL     1       4.778   0.020  -0.156  0.00  0.00    +0.230 C 
ATOM      2  O   UNL     1       5.790  -0.578  -0.454  0.00  0.00    -0.274 OA
ATOM      3  N   UNL     1       3.663  -0.664   0.168  0.00  0.00    -0.267 N 
ENDROOT
BRANCH   3   4
ATOM      4  C   UNL     1       2.469   0.023   0.422  0.00  0.00    +0.040 A 
ATOM      5  C   UNL     1       1.925   0.022   1.700  0.00  0.00    +0.027 A 
ATOM      6  C   UNL     1       0.747   0.700   1.950  0.00  0.00    +0.051 A 
ATOM      7  C   UNL     1       0.104   1.382   0.928  0.00  0.00    +0.162 A 
ATOM      8  C   UNL     1       0.648   1.387  -0.352  0.00  0.00    +0.164 A 
ATOM      9  C   UNL     1       1.829   0.706  -0.603  0.00  0.00    +0.073 A 
ATOM     10  O   UNL     1       0.036   2.058  -1.366  0.00  0.00    -0.485 OA
ATOM     11  C   UNL     1      -1.336   2.416  -1.166  0.00  0.00    +0.270 C 
ATOM     12  C   UNL     1      -1.475   3.021   0.237  0.00  0.00    +0.270 C 
ATOM     13  O   UNL     1      -1.060   2.037   1.192  0.00  0.00    -0.485 OA
ENDBRANCH   3   4
BRANCH   1  14
ATOM     14  C   UNL     1       4.767   1.527  -0.147  0.00  0.00    +0.175 C 
BRANCH  14  15
ATOM     15  S   UNL     1       6.440   2.144  -0.459  0.00  0.00    -0.056 S 
BRANCH  15  19
ATOM     16  C   UNL     1       6.398   6.023  -0.434  0.00  0.00    +0.249 A 
ATOM     17  N   UNL     1       5.140   5.739  -0.199  0.00  0.00    -0.106 NA
ATOM     18  N   UNL     1       4.986   4.462  -0.181  0.00  0.00    -0.101 NA
ATOM     19  C   UNL     1       6.143   3.879  -0.396  0.00  0.00    +0.278 A 
ATOM     20  O   UNL     1       7.059   4.852  -0.564  0.00  0.00    -0.411 OA
BRANCH  16  27
ATOM     21  C   UNL     1       4.705   8.347  -0.106  0.00  0.00    +0.044 C 
ATOM     22  C   UNL     1       6.178   8.504  -0.381  0.00  0.00    -0.038 A 
ATOM     23  C   UNL     1       6.733   9.763  -0.479  0.00  0.00    +0.004 A 
ATOM     24  C   UNL     1       8.085   9.909  -0.732  0.00  0.00    +0.000 A 
ATOM     25  C   UNL     1       8.890   8.794  -0.888  0.00  0.00    +0.001 A 
ATOM     26  C   UNL     1       8.350   7.529  -0.788  0.00  0.00    +0.013 A 
ATOM     27  C   UNL     1       6.985   7.375  -0.538  0.00  0.00    +0.041 A 
ENDBRANCH  16  27
ENDBRANCH  15  19
ENDBRANCH  14  15
ENDBRANCH   1  14
BRANCH   3  28
ATOM     28  C   UNL     1       3.699  -2.126   0.255  0.00  0.00    +0.141 C 
BRANCH  28  29
ATOM     29  C   UNL     1       3.367  -2.717  -1.091  0.00  0.00    -0.007 C 
ATOM     30  C   UNL     1       4.202  -3.574  -1.662  0.00  0.00    +0.005 C 
BRANCH  30  31
ATOM     31  C   UNL     1       3.876  -4.154  -2.982  0.00  0.00    -0.025 A 
ATOM     32  C   UNL     1       2.688  -3.807  -3.627  0.00  0.00    +0.008 A 
ATOM     33  C   UNL     1       2.393  -4.347  -4.861  0.00  0.00    +0.001 A 
ATOM     34  C   UNL     1       3.266  -5.241  -5.455  0.00  0.00    +0.000 A 
ATOM     35  C   UNL     1       4.443  -5.594  -4.819  0.00  0.00    +0.001 A 
ATOM     36  C   UNL     1       4.753  -5.056  -3.586  0.00  0.00    +0.008 A 
ENDBRANCH  30  31
ENDBRANCH  28  29
ENDBRANCH   3  28
TORSDOF 8
