REMARK  Name = ZINC02111211
REMARK  7 active torsions:
REMARK  status: ('A' for Active; 'I' for Inactive)
REMARK    1  A    between atoms: C_1  and  C_2
REMARK    2  A    between atoms: C_3  and  C_31
REMARK    3  A    between atoms: C_11  and  O_13
REMARK    4  A    between atoms: O_13  and  C_14
REMARK    5  A    between atoms: C_14  and  C_16
REMARK    6  A    between atoms: C_14  and  C_17
REMARK    7  A    between atoms: C_22  and  O_30
REMARK                            x       y       z     vdW  Elec       q    Type
REMARK                         _______ _______ _______ _____ _____    ______ ____
ROOT
ATOM      1  C   UNL     1       3.530   3.075   0.093  0.00  0.00    +0.256 C 
ATOM      2  C   UNL     1       4.000   2.985  -1.360  0.00  0.00    +0.062 C 
ENDROOT
BRANCH   1   3
ATOM      3  C   UNL     1       4.553   3.825   0.907  0.00  0.00    +0.256 C 
ATOM      4  O   UNL     1       4.321   4.955   1.280  0.00  0.00    -0.272 OA
ATOM      5  N   UNL     1       5.725   3.239   1.220  0.00  0.00    -0.298 N 
ATOM      6  C   UNL     1       6.066   1.912   0.688  0.00  0.00    +0.110 C 
ATOM      7  C   UNL     1       6.431   0.992   1.857  0.00  0.00    +0.054 C 
ATOM      8  C   UNL     1       7.546   1.639   2.683  0.00  0.00    +0.072 C 
ATOM      9  C   UNL     1       7.922   0.708   3.839  0.00  0.00    +0.035 C 
ATOM     10  C   UNL     1       6.690   0.460   4.711  0.00  0.00    +0.003 C 
ATOM     11  C   UNL     1       6.185   1.790   5.274  0.00  0.00    +0.001 C 
ATOM     12  C   UNL     1       5.817   2.727   4.121  0.00  0.00    +0.008 C 
ATOM     13  C   UNL     1       7.055   2.976   3.244  0.00  0.00    +0.038 C 
ATOM     14  C   UNL     1       6.691   3.916   2.096  0.00  0.00    +0.114 C 
BRANCH   8  15
ATOM     15  O   UNL     1       8.690   1.859   1.855  0.00  0.00    -0.388 OA
ATOM     16  H   UNL     1       9.055   1.053   1.466  0.00  0.00    +0.210 HD
ENDBRANCH   8  15
ENDBRANCH   1   3
BRANCH   1  17
ATOM     17  O   UNL     1       2.280   3.765   0.147  0.00  0.00    -0.480 OA
BRANCH  17  28
ATOM     18  C   UNL     1      -3.711   1.336  -0.564  0.00  0.00    +0.045 C 
ATOM     19  C   UNL     1      -2.337   0.736  -0.714  0.00  0.00    -0.030 A 
ATOM     20  C   UNL     1      -2.179  -0.567  -1.062  0.00  0.00    +0.037 A 
ATOM     21  C   UNL     1      -0.882  -1.105  -1.196  0.00  0.00    +0.340 A 
ATOM     22  O   UNL     1      -0.755  -2.275  -1.508  0.00  0.00    -0.245 OA
ATOM     23  O   UNL     1       0.215  -0.358  -0.999  0.00  0.00    -0.422 OA
ATOM     24  C   UNL     1       0.128   0.943  -0.646  0.00  0.00    +0.143 A 
ATOM     25  C   UNL     1      -1.135   1.543  -0.489  0.00  0.00    +0.021 A 
ATOM     26  C   UNL     1      -1.230   2.892  -0.128  0.00  0.00    +0.015 A 
ATOM     27  C   UNL     1      -0.094   3.619   0.082  0.00  0.00    +0.046 A 
ATOM     28  C   UNL     1       1.159   3.029  -0.066  0.00  0.00    +0.125 A 
ATOM     29  C   UNL     1       1.272   1.696  -0.428  0.00  0.00    +0.092 A 
ATOM     30  C   UNL     1      -3.386  -1.436  -1.304  0.00  0.00    +0.051 C 
ENDBRANCH  17  28
ENDBRANCH   1  17
TORSDOF 4
