REMARK  Name = ZINC02177032
REMARK  15 active torsions:
REMARK  status: ('A' for Active; 'I' for Inactive)
REMARK    1  A    between atoms: C_1  and  C_2
REMARK    2  A    between atoms: C_2  and  O_3
REMARK    3  A    between atoms: O_3  and  C_4
REMARK    4  A    between atoms: C_5  and  C_12
REMARK    5  A    between atoms: C_9  and  O_10
REMARK    6  A    between atoms: O_10  and  C_11
REMARK    7  A    between atoms: C_14  and  C_34
REMARK    8  A    between atoms: C_15  and  C_33
REMARK    9  A    between atoms: C_22  and  C_23
REMARK   10  A    between atoms: C_26  and  N_29
REMARK   11  A    between atoms: N_29  and  C_30
REMARK   12  A    between atoms: N_29  and  C_31
REMARK   13  A    between atoms: C_34  and  O_36
REMARK   14  A    between atoms: O_36  and  C_37
REMARK   15  A    between atoms: C_37  and  C_38
REMARK                            x       y       z     vdW  Elec       q    Type
REMARK                         _______ _______ _______ _____ _____    ______ ____
ROOT
ATOM      1  C   UNL     1       1.512   2.869   2.380  0.00  0.00    +0.165 C 
ATOM      2  C   UNL     1       2.514   2.442   1.332  0.00  0.00    +0.085 C 
ATOM      3  C   UNL     1       3.702   3.116   1.265  0.00  0.00    +0.053 C 
ATOM      4  N   UNL     1       3.959   4.113   2.101  0.00  0.00    -0.228 NA
ATOM      5  C   UNL     1       3.143   4.538   3.033  0.00  0.00    +0.178 A 
ATOM      6  N   UNL     1       1.898   4.000   3.269  0.00  0.00    -0.275 N 
ATOM      7  C   UNL     1       1.150   4.520   4.251  0.00  0.00    +0.268 A 
ATOM      8  O   UNL     1       0.043   4.078   4.497  0.00  0.00    -0.266 OA
ATOM      9  C   UNL     1       1.706   5.640   5.022  0.00  0.00    +0.081 A 
ATOM     10  C   UNL     1       1.157   6.334   6.054  0.00  0.00    +0.028 C 
ATOM     11  S   UNL     1       3.297   5.842   4.237  0.00  0.00    -0.046 S 
ATOM     12  C   UNL     1       4.728   2.721   0.234  0.00  0.00    +0.066 C 
ENDROOT
BRANCH   1  14
ATOM     13  C   UNL     1       2.181   1.198   4.123  0.00  0.00    +0.167 A 
ATOM     14  C   UNL     1       1.216   1.675   3.251  0.00  0.00    +0.025 A 
ATOM     15  C   UNL     1      -0.018   1.057   3.180  0.00  0.00    +0.010 A 
ATOM     16  C   UNL     1      -0.293  -0.038   3.977  0.00  0.00    +0.004 A 
ATOM     17  C   UNL     1       0.665  -0.520   4.850  0.00  0.00    +0.049 A 
ATOM     18  C   UNL     1       1.906   0.092   4.922  0.00  0.00    +0.162 A 
BRANCH  18  19
ATOM     19  O   UNL     1       2.852  -0.385   5.776  0.00  0.00    -0.491 OA
ATOM     20  C   UNL     1       2.499  -1.523   6.564  0.00  0.00    +0.277 C 
ENDBRANCH  18  19
BRANCH  13  21
ATOM     21  O   UNL     1       3.396   1.805   4.195  0.00  0.00    -0.488 OA
BRANCH  21  23
ATOM     22  C   UNL     1       5.042   3.234   5.238  0.00  0.00    +0.048 C 
ATOM     23  C   UNL     1       3.603   2.716   5.276  0.00  0.00    +0.226 C 
ENDBRANCH  21  23
ENDBRANCH  13  21
ENDBRANCH   1  14
BRANCH  10  24
ATOM     24  C   UNL     1       1.963   7.317   6.787  0.00  0.00    -0.024 A 
ATOM     25  C   UNL     1       3.360   7.205   6.808  0.00  0.00    +0.010 A 
ATOM     26  C   UNL     1       4.109   8.130   7.490  0.00  0.00    +0.023 A 
ATOM     27  C   UNL     1       3.483   9.170   8.171  0.00  0.00    +0.029 A 
ATOM     28  C   UNL     1       2.095   9.282   8.158  0.00  0.00    +0.023 A 
ATOM     29  C   UNL     1       1.338   8.366   7.474  0.00  0.00    +0.010 A 
BRANCH  27  30
ATOM     30  N   UNL     1       4.247  10.102   8.867  0.00  0.00    -0.336 N 
ATOM     31  C   UNL     1       3.590  11.126   9.683  0.00  0.00    +0.129 C 
ATOM     32  C   UNL     1       5.709  10.060   8.783  0.00  0.00    +0.129 C 
ENDBRANCH  27  30
ENDBRANCH  10  24
BRANCH   2  33
ATOM     33  C   UNL     1       2.233   1.384   0.452  0.00  0.00    +0.339 C 
ATOM     34  O   UNL     1       3.095   0.977  -0.306  0.00  0.00    -0.245 OA
BRANCH  33  35
ATOM     35  O   UNL     1       1.007   0.818   0.447  0.00  0.00    -0.462 OA
BRANCH  35  36
ATOM     36  C   UNL     1       0.824  -0.325  -0.391  0.00  0.00    +0.229 C 
ATOM     37  C   UNL     1      -0.645  -0.752  -0.357  0.00  0.00    +0.048 C 
ENDBRANCH  35  36
ENDBRANCH  33  35
ENDBRANCH   2  33
TORSDOF 9
