REMARK  Name = ZINC20357488
REMARK  3 active torsions:
REMARK  status: ('A' for Active; 'I' for Inactive)
REMARK    1  A    between atoms: C_6  and  C_7
REMARK    2  A    between atoms: C_10  and  C_12
REMARK    3  A    between atoms: C_24  and  C_25
REMARK                            x       y       z     vdW  Elec       q    Type
REMARK                         _______ _______ _______ _____ _____    ______ ____
ROOT
ATOM      1  C   UNL     1      -4.808  -1.052   0.036  0.00  0.00    +0.063 C 
ATOM      2  C   UNL     1      -5.353   0.218   0.147  0.00  0.00    +0.088 A 
ATOM      3  C   UNL     1      -6.820   0.434   0.278  0.00  0.00    +0.160 A 
ATOM      4  N   UNL     1      -7.616  -0.395   0.903  0.00  0.00    -0.281 NA
ATOM      5  N   UNL     1      -7.266   1.621  -0.337  0.00  0.00    -0.212 N 
ATOM      6  C   UNL     1      -6.350   2.643  -0.495  0.00  0.00    +0.199 A 
ATOM      7  N   UNL     1      -5.069   2.599  -0.253  0.00  0.00    -0.182 NA
ATOM      8  C   UNL     1      -4.508   1.433   0.146  0.00  0.00    +0.283 A 
ATOM      9  O   UNL     1      -3.338   1.382   0.491  0.00  0.00    -0.265 OA
ATOM     10  S   UNL     1      -7.340   3.984  -1.101  0.00  0.00    -0.031 S 
ATOM     11  C   UNL     1      -8.891   3.107  -1.234  0.00  0.00    +0.101 A 
ATOM     12  N   UNL     1      -8.551   1.849  -0.788  0.00  0.00    -0.283 N 
ATOM     13  C   UNL     1     -10.101   3.566  -1.666  0.00  0.00    +0.102 C 
ATOM     14  H   UNL     1      -8.565  -0.206   0.959  0.00  0.00    +0.188 HD
ATOM     15  H   UNL     1      -9.205   1.133  -0.790  0.00  0.00    +0.188 HD
ENDROOT
BRANCH  13  16
ATOM     16  C   UNL     1     -11.210   2.705  -1.692  0.00  0.00    +0.242 C 
ATOM     17  O   UNL     1     -11.091   1.547  -1.330  0.00  0.00    -0.271 OA
ATOM     18  N   UNL     1     -12.405   3.158  -2.118  0.00  0.00    -0.298 N 
ATOM     19  C   UNL     1     -12.687   4.523  -2.587  0.00  0.00    +0.108 C 
ATOM     20  C   UNL     1     -14.186   4.584  -2.945  0.00  0.00    +0.020 C 
ATOM     21  C   UNL     1     -14.788   3.413  -2.124  0.00  0.00    +0.020 C 
ATOM     22  C   UNL     1     -13.646   2.366  -2.198  0.00  0.00    +0.108 C 
ENDBRANCH  13  16
BRANCH   1  26
ATOM     23  C   UNL     1      -1.418  -0.744  -0.995  0.00  0.00    +0.136 A 
ATOM     24  C   UNL     1      -1.460  -2.103  -0.758  0.00  0.00    +0.050 A 
ATOM     25  C   UNL     1      -2.754  -2.404  -0.335  0.00  0.00    +0.050 A 
ATOM     26  C   UNL     1      -3.461  -1.210  -0.327  0.00  0.00    +0.129 A 
ATOM     27  O   UNL     1      -2.628  -0.224  -0.725  0.00  0.00    -0.455 OA
BRANCH  23  33
ATOM     28  C   UNL     1      -0.326   1.393  -1.657  0.00  0.00    +0.013 A 
ATOM     29  C   UNL     1       0.779   2.094  -2.091  0.00  0.00    +0.021 A 
ATOM     30  C   UNL     1       1.972   1.433  -2.333  0.00  0.00    +0.041 A 
ATOM     31  C   UNL     1       2.063   0.064  -2.140  0.00  0.00    +0.021 A 
ATOM     32  C   UNL     1       0.966  -0.649  -1.706  0.00  0.00    +0.013 A 
ATOM     33  C   UNL     1      -0.240   0.012  -1.460  0.00  0.00    +0.017 A 
ATOM     34 CL   UNL     1       3.358   2.323  -2.880  0.00  0.00    -0.084 Cl
ENDBRANCH  23  33
ENDBRANCH   1  26
TORSDOF 3
