REMARK  Name = ZINC13494737
REMARK  13 active torsions:
REMARK  status: ('A' for Active; 'I' for Inactive)
REMARK    1  A    between atoms: C_1  and  C_2
REMARK    2  A    between atoms: C_2  and  C_3
REMARK    3  A    between atoms: C_3  and  C_5
REMARK    4  A    between atoms: C_3  and  N_16
REMARK    5  A    between atoms: N_9  and  C_10
REMARK    6  A    between atoms: C_10  and  C_11
REMARK    7  A    between atoms: N_16  and  C_17
REMARK    8  A    between atoms: N_16  and  C_24
REMARK    9  A    between atoms: C_17  and  C_18
REMARK   10  A    between atoms: C_24  and  C_25
REMARK   11  A    between atoms: C_29  and  O_37
REMARK   12  A    between atoms: O_37  and  C_38
REMARK   13  A    between atoms: C_38  and  C_39
REMARK                            x       y       z     vdW  Elec       q    Type
REMARK                         _______ _______ _______ _____ _____    ______ ____
ROOT
ATOM      1  N   UNL     1      -2.075  -0.286   1.399  0.00  0.00    -0.284 NA
ENDROOT
BRANCH   1   2
ATOM      2  C   UNL     1      -1.705  -0.600   0.013  0.00  0.00    +0.127 C 
BRANCH   2   3
ATOM      3  C   UNL     1      -2.896  -0.389  -0.886  0.00  0.00    +0.169 A 
ATOM      4  N   UNL     1      -4.127  -0.777  -0.657  0.00  0.00    -0.112 NA
ATOM      5  N   UNL     1      -4.852  -0.412  -1.657  0.00  0.00    -0.023 NA
ATOM      6  N   UNL     1      -4.116   0.200  -2.518  0.00  0.00    -0.043 NA
ATOM      7  N   UNL     1      -2.904   0.238  -2.076  0.00  0.00    -0.220 N 
BRANCH   7   8
ATOM      8  C   UNL     1      -1.753   0.848  -2.746  0.00  0.00    +0.221 C 
BRANCH   8   9
ATOM      9  C   UNL     1      -1.085  -0.175  -3.628  0.00  0.00    +0.126 A 
ATOM     10  C   UNL     1      -1.374  -0.408  -4.921  0.00  0.00    +0.046 A 
ATOM     11  C   UNL     1      -0.513  -1.443  -5.353  0.00  0.00    +0.041 A 
ATOM     12  C   UNL     1       0.251  -1.780  -4.298  0.00  0.00    +0.195 A 
ATOM     13  O   UNL     1      -0.096  -1.005  -3.258  0.00  0.00    -0.466 OA
ENDBRANCH   8   9
ENDBRANCH   7   8
ENDBRANCH   2   3
BRANCH   2  15
ATOM     14  C   UNL     1       0.030  -2.244   0.742  0.00  0.00    +0.006 C 
ATOM     15  C   UNL     1      -1.250  -2.058  -0.077  0.00  0.00    +0.023 C 
ENDBRANCH   2  15
ENDBRANCH   1   2
BRANCH   1  16
ATOM     16  C   UNL     1      -3.279  -1.026   1.802  0.00  0.00    +0.120 C 
BRANCH  16  17
ATOM     17  C   UNL     1      -3.397  -1.013   3.304  0.00  0.00    -0.033 A 
ATOM     18  C   UNL     1      -2.713  -1.947   4.059  0.00  0.00    +0.005 A 
ATOM     19  C   UNL     1      -2.821  -1.936   5.437  0.00  0.00    +0.000 A 
ATOM     20  C   UNL     1      -3.613  -0.990   6.061  0.00  0.00    +0.000 A 
ATOM     21  C   UNL     1      -4.296  -0.055   5.306  0.00  0.00    +0.000 A 
ATOM     22  C   UNL     1      -4.185  -0.064   3.928  0.00  0.00    +0.005 A 
ENDBRANCH  16  17
ENDBRANCH   1  16
BRANCH   1  23
ATOM     23  C   UNL     1      -2.260   1.160   1.581  0.00  0.00    +0.126 C 
BRANCH  23  24
ATOM     24  C   UNL     1      -0.914   1.834   1.641  0.00  0.00    +0.031 A 
ATOM     25  C   UNL     1      -0.402   2.422   0.532  0.00  0.00    +0.020 A 
ATOM     26  C   UNL     1       0.908   3.069   0.624  0.00  0.00    +0.002 A 
ATOM     27  C   UNL     1       1.486   3.692  -0.488  0.00  0.00    +0.055 A 
ATOM     28  C   UNL     1       2.722   4.293  -0.366  0.00  0.00    +0.121 A 
ATOM     29  C   UNL     1       3.393   4.280   0.855  0.00  0.00    +0.047 A 
ATOM     30  C   UNL     1       2.835   3.671   1.956  0.00  0.00    +0.030 A 
ATOM     31  C   UNL     1       1.590   3.059   1.855  0.00  0.00    +0.049 A 
ATOM     32  N   UNL     1       1.013   2.443   2.948  0.00  0.00    -0.322 N 
ATOM     33  H   UNL     1       1.484   2.437   3.796  0.00  0.00    +0.169 HD
ATOM     34  C   UNL     1      -0.193   1.857   2.855  0.00  0.00    +0.254 A 
ATOM     35  O   UNL     1      -0.673   1.327   3.841  0.00  0.00    -0.268 OA
BRANCH  28  36
ATOM     36  O   UNL     1       3.288   4.899  -1.443  0.00  0.00    -0.492 OA
BRANCH  36  37
ATOM     37  C   UNL     1       4.570   5.502  -1.249  0.00  0.00    +0.225 C 
ATOM     38  C   UNL     1       5.042   6.129  -2.562  0.00  0.00    +0.048 C 
ENDBRANCH  36  37
ENDBRANCH  28  36
ENDBRANCH  23  24
ENDBRANCH   1  23
TORSDOF 11
