REMARK  Name = ZINC39495710
REMARK  9 active torsions:
REMARK  status: ('A' for Active; 'I' for Inactive)
REMARK    1  A    between atoms: C_4  and  O_7
REMARK    2  A    between atoms: O_7  and  S_8
REMARK    3  A    between atoms: S_8  and  C_11
REMARK    4  A    between atoms: C_14  and  C_25
REMARK    5  A    between atoms: C_15  and  C_18
REMARK    6  A    between atoms: C_23  and  O_24
REMARK    7  A    between atoms: C_25  and  C_27
REMARK    8  A    between atoms: C_25  and  N_30
REMARK    9  A    between atoms: C_27  and  C_28
REMARK                            x       y       z     vdW  Elec       q    Type
REMARK                         _______ _______ _______ _____ _____    ______ ____
ROOT
ATOM      1  C   UNL     1       3.456  -2.645   1.979  0.00  0.00    +0.143 A 
ATOM      2  C   UNL     1       2.389  -2.228   2.755  0.00  0.00    +0.032 A 
ATOM      3  C   UNL     1       1.499  -3.153   3.271  0.00  0.00    +0.008 A 
ATOM      4  C   UNL     1       1.672  -4.498   3.015  0.00  0.00    -0.018 A 
ATOM      5  C   UNL     1       2.745  -4.925   2.235  0.00  0.00    +0.006 A 
ATOM      6  C   UNL     1       3.636  -3.988   1.712  0.00  0.00    +0.054 A 
ATOM      7 BR   UNL     1       5.090  -4.556   0.645  0.00  0.00    -0.048 Br
ENDROOT
BRANCH   5   8
ATOM      8  C   UNL     1       2.935  -6.370   1.957  0.00  0.00    +0.025 A 
ATOM      9  C   UNL     1       2.430  -6.929   0.786  0.00  0.00    +0.012 A 
ATOM     10  C   UNL     1       2.611  -8.274   0.532  0.00  0.00    +0.001 A 
ATOM     11  C   UNL     1       3.291  -9.069   1.437  0.00  0.00    +0.004 A 
ATOM     12  C   UNL     1       3.796  -8.524   2.602  0.00  0.00    +0.046 A 
ATOM     13  C   UNL     1       3.627  -7.174   2.867  0.00  0.00    +0.125 A 
BRANCH  13  14
ATOM     14  O   UNL     1       4.128  -6.636   4.010  0.00  0.00    -0.506 OA
ATOM     15  H   UNL     1       3.546  -6.729   4.776  0.00  0.00    +0.292 HD
ENDBRANCH  13  14
ENDBRANCH   5   8
BRANCH   1  16
ATOM     16  S   UNL     1       4.585  -1.460   1.326  0.00  0.00    +0.152 S 
ATOM     17  O   UNL     1       5.803  -2.150   1.083  0.00  0.00    -0.131 OA
ATOM     18  O   UNL     1       4.511  -0.320   2.171  0.00  0.00    -0.131 OA
BRANCH  16  19
ATOM     19  O   UNL     1       4.050  -1.030  -0.032  0.00  0.00    -0.342 OA
BRANCH  19  23
ATOM     20  C   UNL     1       0.811   1.517   0.169  0.00  0.00    +0.000 A 
ATOM     21  C   UNL     1       2.094   2.033   0.142  0.00  0.00    +0.004 A 
ATOM     22  C   UNL     1       3.180   1.182   0.075  0.00  0.00    +0.048 A 
ATOM     23  C   UNL     1       2.983  -0.191   0.035  0.00  0.00    +0.157 A 
ATOM     24  C   UNL     1       1.695  -0.706   0.062  0.00  0.00    +0.048 A 
ATOM     25  C   UNL     1       0.612   0.150   0.129  0.00  0.00    +0.004 A 
ENDBRANCH  19  23
ENDBRANCH  16  19
ENDBRANCH   1  16
BRANCH   4  26
ATOM     26  C   UNL     1       0.702  -5.504   3.579  0.00  0.00    +0.110 C 
BRANCH  26  27
ATOM     27  N   UNL     1      -0.167  -5.998   2.508  0.00  0.00    -0.311 N 
ATOM     28  C   UNL     1      -0.905  -5.132   1.785  0.00  0.00    +0.326 C 
ATOM     29  O   UNL     1      -0.780  -3.938   1.958  0.00  0.00    -0.280 OA
ATOM     30  H   UNL     1      -0.212  -6.949   2.319  0.00  0.00    +0.149 HD
ENDBRANCH  26  27
BRANCH  26  31
ATOM     31  C   UNL     1      -0.151  -4.839   4.662  0.00  0.00    +0.097 C 
BRANCH  31  32
ATOM     32  C   UNL     1      -1.048  -5.869   5.298  0.00  0.00    +0.225 C 
ATOM     33  O   UNL     1      -1.030  -6.029   6.495  0.00  0.00    -0.301 OA
ENDBRANCH  31  32
ENDBRANCH  26  31
ENDBRANCH   4  26
TORSDOF 9
