REMARK  Name = ZINC27364791
REMARK  12 active torsions:
REMARK  status: ('A' for Active; 'I' for Inactive)
REMARK    1  A    between atoms: C_1  and  C_2
REMARK    2  A    between atoms: C_2  and  N_3
REMARK    3  A    between atoms: C_6  and  N_9
REMARK    4  A    between atoms: C_10  and  C_12
REMARK    5  A    between atoms: C_12  and  S_13
REMARK    6  A    between atoms: S_13  and  C_14
REMARK    7  A    between atoms: C_22  and  C_26
REMARK    8  A    between atoms: N_29  and  C_30
REMARK    9  A    between atoms: C_30  and  C_31
REMARK   10  A    between atoms: C_31  and  C_32
REMARK   11  A    between atoms: C_32  and  C_33
REMARK   12  A    between atoms: C_32  and  C_34
REMARK                            x       y       z     vdW  Elec       q    Type
REMARK                         _______ _______ _______ _____ _____    ______ ____
ROOT
ATOM      1  C   UNL     1       4.051   0.561   5.661  0.00  0.00    +0.173 A 
ATOM      2  N   UNL     1       4.505   0.887   4.458  0.00  0.00    -0.216 NA
ATOM      3  C   UNL     1       3.610   1.025   3.488  0.00  0.00    +0.117 A 
ATOM      4  C   UNL     1       2.219   0.844   3.665  0.00  0.00    +0.076 A 
ATOM      5  C   UNL     1       1.393   1.037   2.484  0.00  0.00    -0.023 A 
ATOM      6  C   UNL     1       2.037   1.368   1.341  0.00  0.00    -0.004 A 
ATOM      7  S   UNL     1       3.756   1.439   1.778  0.00  0.00    -0.073 S 
ATOM      8  C   UNL     1       1.426   1.621  -0.003  0.00  0.00    +0.046 C 
ATOM      9  C   UNL     1      -0.013   1.086   0.008  0.00  0.00    -0.009 C 
ATOM     10  C   UNL     1      -0.710   1.583   1.277  0.00  0.00    +0.008 C 
ATOM     11  C   UNL     1      -0.125   0.880   2.502  0.00  0.00    +0.037 C 
ATOM     12  C   UNL     1      -0.759   1.596  -1.226  0.00  0.00    +0.008 C 
ATOM     13  C   UNL     1       1.766   0.492   4.978  0.00  0.00    +0.263 A 
ATOM     14  O   UNL     1       0.587   0.316   5.230  0.00  0.00    -0.267 OA
ATOM     15  N   UNL     1       2.729   0.369   5.922  0.00  0.00    -0.287 N 
ENDROOT
BRANCH   1  16
ATOM     16  S   UNL     1       5.208   0.369   6.976  0.00  0.00    -0.078 S 
BRANCH  16  17
ATOM     17  C   UNL     1       6.748   0.728   6.095  0.00  0.00    +0.173 C 
BRANCH  17  19
ATOM     18  N   UNL     1       9.164   0.847   6.612  0.00  0.00    -0.312 N 
ATOM     19  C   UNL     1       7.910   0.621   7.049  0.00  0.00    +0.224 C 
ATOM     20  O   UNL     1       7.715   0.330   8.211  0.00  0.00    -0.275 OA
ATOM     21  H   UNL     1       9.340   1.111   5.559  0.00  0.00    +0.149 HD
BRANCH  18  25
ATOM     22  N   UNL     1      12.888   1.671   8.403  0.00  0.00    +0.380 N 
ATOM     23  C   UNL     1      12.756   0.376   7.724  0.00  0.00    -0.077 C 
ATOM     24  C   UNL     1      11.570   0.423   6.758  0.00  0.00    +0.003 C 
ATOM     25  C   UNL     1      10.293   0.743   7.540  0.00  0.00    +0.069 C 
ATOM     26  C   UNL     1      10.475   2.073   8.276  0.00  0.00    +0.003 C 
ATOM     27  C   UNL     1      11.693   1.978   9.198  0.00  0.00    -0.077 C 
ATOM     28  H   UNL     1      12.984   2.447   7.629  0.00  0.00    -0.082 HD
BRANCH  22  30
ATOM     29  C   UNL     1      14.075   2.961  10.113  0.00  0.00    -0.017 C 
ATOM     30  C   UNL     1      14.098   1.708   9.235  0.00  0.00    -0.082 C 
ENDBRANCH  22  30
ENDBRANCH  18  25
ENDBRANCH  17  19
ENDBRANCH  16  17
ENDBRANCH   1  16
BRANCH  15  31
ATOM     31  C   UNL     1       2.330   0.012   7.285  0.00  0.00    +0.127 C 
BRANCH  31  32
ATOM     32  C   UNL     1       2.051   1.286   8.085  0.00  0.00    +0.025 C 
BRANCH  32  33
ATOM     33  C   UNL     1       1.634   0.913   9.509  0.00  0.00    -0.016 C 
ATOM     34  C   UNL     1       1.476   2.186  10.344  0.00  0.00    +0.007 C 
ATOM     35  C   UNL     1       0.302   0.161   9.470  0.00  0.00    +0.007 C 
ENDBRANCH  32  33
ENDBRANCH  31  32
ENDBRANCH  15  31
TORSDOF 8
