REMARK  Name = ZINC13980773
REMARK  5 active torsions:
REMARK  status: ('A' for Active; 'I' for Inactive)
REMARK    1  A    between atoms: C_3  and  S_18
REMARK    2  A    between atoms: C_6  and  N_7
REMARK    3  A    between atoms: N_8  and  C_9
REMARK    4  A    between atoms: C_14  and  O_15
REMARK    5  A    between atoms: S_18  and  N_21
REMARK                            x       y       z     vdW  Elec       q    Type
REMARK                         _______ _______ _______ _____ _____    ______ ____
ROOT
ATOM      1  C   UNL     1      -0.017   1.393   0.010  0.00  0.00    +0.031 A 
ATOM      2  C   UNL     1       1.170   2.096   0.002  0.00  0.00    +0.030 A 
ATOM      3  C   UNL     1       2.378   1.420  -0.013  0.00  0.00    +0.106 A 
ATOM      4  C   UNL     1       2.404   0.036  -0.022  0.00  0.00    +0.030 A 
ATOM      5  C   UNL     1       1.225  -0.679  -0.014  0.00  0.00    +0.031 A 
ATOM      6  C   UNL     1       0.002  -0.004   0.002  0.00  0.00    +0.086 A 
ENDROOT
BRANCH   3   7
ATOM      7  S   UNL     1       3.889   2.326  -0.024  0.00  0.00    +0.061 S 
ATOM      8  O   UNL     1       4.872   1.470  -0.589  0.00  0.00    -0.153 OA
ATOM      9  O   UNL     1       3.592   3.606  -0.565  0.00  0.00    -0.153 OA
BRANCH   7  10
ATOM     10  N   UNL     1       4.325   2.569   1.555  0.00  0.00    -0.177 NA
ATOM     11  C   UNL     1       3.850   3.756   2.230  0.00  0.00    +0.109 C 
ATOM     12  C   UNL     1       4.858   4.913   2.018  0.00  0.00    +0.017 C 
ATOM     13  C   UNL     1       6.087   4.667   2.788  0.00  0.00    +0.001 C 
ATOM     14  C   UNL     1       6.853   3.416   2.367  0.00  0.00    +0.001 C 
ATOM     15  C   UNL     1       6.279   2.215   3.078  0.00  0.00    +0.017 C 
ATOM     16  C   UNL     1       5.177   1.562   2.217  0.00  0.00    +0.109 C 
ENDBRANCH   7  10
ENDBRANCH   3   7
BRANCH   6  17
ATOM     17  N   UNL     1      -1.171  -0.707   0.010  0.00  0.00    -0.149 NA
ATOM     18  N   UNL     1      -1.149  -1.997   0.003  0.00  0.00    -0.146 NA
BRANCH  18  19
ATOM     19  C   UNL     1      -2.320  -2.698   0.011  0.00  0.00    +0.130 A 
ATOM     20  C   UNL     1      -3.544  -2.023   0.021  0.00  0.00    +0.053 A 
ATOM     21  C   UNL     1      -4.723  -2.738   0.028  0.00  0.00    +0.044 A 
ATOM     22  C   UNL     1      -4.700  -4.125   0.026  0.00  0.00    +0.039 A 
ATOM     23  C   UNL     1      -3.497  -4.804   0.017  0.00  0.00    +0.063 A 
ATOM     24  C   UNL     1      -2.302  -4.101   0.003  0.00  0.00    +0.158 A 
ATOM     25 BR   UNL     1      -3.480  -6.695   0.015  0.00  0.00    -0.046 Br
ATOM     26 CL   UNL     1      -6.243  -1.899   0.040  0.00  0.00    -0.083 Cl
BRANCH  24  27
ATOM     27  O   UNL     1      -1.119  -4.767  -0.012  0.00  0.00    -0.504 OA
ATOM     28  H   UNL     1      -0.767  -4.965   0.867  0.00  0.00    +0.292 HD
ENDBRANCH  24  27
ENDBRANCH  18  19
ENDBRANCH   6  17
TORSDOF 5
