REMARK  Name = ZINC39683582
REMARK  9 active torsions:
REMARK  status: ('A' for Active; 'I' for Inactive)
REMARK    1  A    between atoms: C_1  and  C_2
REMARK    2  A    between atoms: C_2  and  C_3
REMARK    3  A    between atoms: C_3  and  C_4
REMARK    4  A    between atoms: C_4  and  N_5
REMARK    5  A    between atoms: C_8  and  C_11
REMARK    6  A    between atoms: C_11  and  N_12
REMARK    7  A    between atoms: C_13  and  C_15
REMARK    8  A    between atoms: C_26  and  C_28
REMARK    9  A    between atoms: C_31  and  C_33
REMARK                            x       y       z     vdW  Elec       q    Type
REMARK                         _______ _______ _______ _____ _____    ______ ____
ROOT
ATOM      1  C   UNL     1       3.259  -8.030  -7.254  0.00  0.00    +0.100 C 
ATOM      2  C   UNL     1       1.843  -8.645  -7.312  0.00  0.00    +0.121 C 
ATOM      3  N   UNL     1       1.583  -8.851  -8.757  0.00  0.00    -0.294 N 
ATOM      4  C   UNL     1       2.880  -9.320  -9.301  0.00  0.00    +0.115 C 
ATOM      5  C   UNL     1       3.938  -8.479  -8.559  0.00  0.00    -0.004 C 
ATOM      6  C   UNL     1       5.167  -9.328  -8.251  0.00  0.00    -0.010 C 
ATOM      7  C   UNL     1       5.858  -9.713  -9.562  0.00  0.00    -0.082 C 
ATOM      8  N   UNL     1       6.248  -8.498 -10.287  0.00  0.00    +0.379 N 
ATOM      9  C   UNL     1       5.053  -7.733 -10.661  0.00  0.00    -0.082 C 
ATOM     10  C   UNL     1       4.327  -7.264  -9.396  0.00  0.00    -0.010 C 
ATOM     11  C   UNL     1       0.429  -8.658  -9.424  0.00  0.00    +0.282 C 
ATOM     12  O   UNL     1       0.374  -8.874 -10.621  0.00  0.00    -0.267 OA
ATOM     13  H   UNL     1       6.838  -7.930  -9.696  0.00  0.00    -0.086 HD
ATOM     14  H   UNL     1       6.757  -8.753 -11.120  0.00  0.00    -0.086 HD
ENDROOT
BRANCH  11  15
ATOM     15  C   UNL     1      -0.760  -8.187  -8.710  0.00  0.00    +0.190 A 
ATOM     16  C   UNL     1      -1.999  -7.954  -9.267  0.00  0.00    +0.055 A 
ATOM     17  C   UNL     1      -2.831  -7.518  -8.231  0.00  0.00    +0.050 A 
ATOM     18  C   UNL     1      -2.079  -7.500  -7.092  0.00  0.00    +0.136 A 
ATOM     19  O   UNL     1      -0.835  -7.911  -7.391  0.00  0.00    -0.450 OA
BRANCH  18  20
ATOM     20  C   UNL     1      -2.555  -7.103  -5.752  0.00  0.00    +0.017 A 
ATOM     21  C   UNL     1      -3.881  -6.705  -5.569  0.00  0.00    +0.014 A 
ATOM     22  C   UNL     1      -4.321  -6.335  -4.316  0.00  0.00    +0.039 A 
ATOM     23  C   UNL     1      -3.449  -6.357  -3.238  0.00  0.00    +0.123 A 
ATOM     24  C   UNL     1      -2.131  -6.751  -3.414  0.00  0.00    +0.039 A 
ATOM     25  C   UNL     1      -1.683  -7.129  -4.662  0.00  0.00    +0.014 A 
ATOM     26  F   UNL     1      -3.885  -5.994  -2.012  0.00  0.00    -0.205 F 
ENDBRANCH  18  20
ENDBRANCH  11  15
BRANCH   1  28
ATOM     27  N   UNL     1       4.153  -5.822  -6.590  0.00  0.00    -0.315 N 
ATOM     28  C   UNL     1       3.177  -6.527  -7.195  0.00  0.00    +0.218 C 
ATOM     29  O   UNL     1       2.232  -5.951  -7.692  0.00  0.00    -0.275 OA
ATOM     30  H   UNL     1       4.909  -6.282  -6.193  0.00  0.00    +0.149 HD
BRANCH  27  31
ATOM     31  C   UNL     1       4.073  -4.360  -6.533  0.00  0.00    +0.107 C 
BRANCH  31  35
ATOM     32  N   UNL     1       7.585  -2.033  -5.803  0.00  0.00    +0.380 N 
ATOM     33  C   UNL     1       6.417  -1.741  -4.963  0.00  0.00    -0.079 C 
ATOM     34  C   UNL     1       5.155  -2.295  -5.627  0.00  0.00    -0.014 C 
ATOM     35  C   UNL     1       5.297  -3.811  -5.798  0.00  0.00    +0.003 C 
ATOM     36  C   UNL     1       6.559  -4.106  -6.613  0.00  0.00    -0.014 C 
ATOM     37  C   UNL     1       7.770  -3.485  -5.912  0.00  0.00    -0.079 C 
ATOM     38  H   UNL     1       7.441  -1.643  -6.723  0.00  0.00    -0.082 HD
BRANCH  32  39
ATOM     39  C   UNL     1       8.782  -1.432  -5.201  0.00  0.00    -0.079 C 
BRANCH  39  40
ATOM     40  C   UNL     1       8.643   0.091  -5.200  0.00  0.00    -0.019 C 
BRANCH  40  42
ATOM     41  C   UNL     1       9.751   2.241  -4.573  0.00  0.00    +0.004 C 
ATOM     42  C   UNL     1       9.890   0.717  -4.573  0.00  0.00    -0.005 C 
ENDBRANCH  40  42
ENDBRANCH  39  40
ENDBRANCH  32  39
ENDBRANCH  31  35
ENDBRANCH  27  31
ENDBRANCH   1  28
TORSDOF 8
