REMARK  Name = ZINC24260043
REMARK  7 active torsions:
REMARK  status: ('A' for Active; 'I' for Inactive)
REMARK    1  A    between atoms: C_1  and  N_2
REMARK    2  A    between atoms: N_2  and  C_3
REMARK    3  A    between atoms: N_2  and  C_14
REMARK    4  A    between atoms: C_3  and  C_4
REMARK    5  A    between atoms: C_6  and  N_11
REMARK    6  A    between atoms: C_14  and  C_15
REMARK    7  A    between atoms: C_21  and  C_26
REMARK                            x       y       z     vdW  Elec       q    Type
REMARK                         _______ _______ _______ _____ _____    ______ ____
ROOT
ATOM      1  C   UNL     1      -0.672  -0.733  -2.312  0.00  0.00    +0.125 A 
ATOM      2  N   UNL     1      -0.445  -1.260  -3.543  0.00  0.00    -0.309 N 
ATOM      3  H   UNL     1       0.396  -1.710  -3.719  0.00  0.00    +0.170 HD
ATOM      4  C   UNL     1      -1.364  -1.171  -4.522  0.00  0.00    +0.260 A 
ATOM      5  O   UNL     1      -1.145  -1.650  -5.622  0.00  0.00    -0.267 OA
ATOM      6  C   UNL     1      -2.603  -0.506  -4.253  0.00  0.00    +0.080 A 
ATOM      7  C   UNL     1      -3.741  -0.283  -5.136  0.00  0.00    +0.004 A 
ATOM      8  C   UNL     1      -4.819   0.380  -4.655  0.00  0.00    +0.056 A 
ATOM      9  S   UNL     1      -4.361   0.746  -2.971  0.00  0.00    -0.076 S 
ATOM     10  C   UNL     1      -2.748   0.007  -2.954  0.00  0.00    +0.116 A 
ATOM     11  N   UNL     1      -1.795  -0.125  -2.035  0.00  0.00    -0.225 NA
ENDROOT
BRANCH   7  12
ATOM     12  C   UNL     1      -3.718  -0.773  -6.535  0.00  0.00    -0.016 A 
ATOM     13  C   UNL     1      -2.625  -0.497  -7.356  0.00  0.00    +0.010 A 
ATOM     14  C   UNL     1      -2.609  -0.956  -8.657  0.00  0.00    +0.020 A 
ATOM     15  C   UNL     1      -3.676  -1.688  -9.149  0.00  0.00    +0.041 A 
ATOM     16  C   UNL     1      -4.764  -1.964  -8.339  0.00  0.00    +0.020 A 
ATOM     17  C   UNL     1      -4.788  -1.515  -7.034  0.00  0.00    +0.010 A 
ATOM     18 CL   UNL     1      -3.649  -2.262 -10.787  0.00  0.00    -0.084 Cl
ENDBRANCH   7  12
BRANCH   1  19
ATOM     19  C   UNL     1       0.385  -0.858  -1.246  0.00  0.00    +0.158 C 
BRANCH  19  21
ATOM     20  C   UNL     1      -0.237   1.229  -0.187  0.00  0.00    +0.105 C 
ATOM     21  N   UNL     1      -0.088  -0.222  -0.009  0.00  0.00    -0.294 NA
BRANCH  21  22
ATOM     22  C   UNL     1       0.806  -0.526   1.115  0.00  0.00    +0.121 C 
BRANCH  22  23
ATOM     23  C   UNL     1       0.079  -0.292   2.414  0.00  0.00    -0.013 A 
ATOM     24  C   UNL     1       0.359   0.830   3.171  0.00  0.00    +0.039 A 
ATOM     25  C   UNL     1      -0.308   1.044   4.362  0.00  0.00    +0.127 A 
ATOM     26  C   UNL     1      -1.256   0.137   4.797  0.00  0.00    +0.034 A 
ATOM     27  C   UNL     1      -1.538  -0.985   4.041  0.00  0.00    +0.022 A 
ATOM     28  C   UNL     1      -0.874  -1.197   2.845  0.00  0.00    +0.046 A 
ATOM     29 CL   UNL     1      -1.232  -2.602   1.891  0.00  0.00    -0.083 Cl
BRANCH  25  30
ATOM     30  N   UNL     1      -0.007   2.246   5.173  0.00  0.00    +0.056 N 
ATOM     31  O   UNL     1       0.822   3.039   4.793  0.00  0.00    -0.126 OA
ATOM     32  O   UNL     1      -0.591   2.433   6.215  0.00  0.00    -0.126 OA
ENDBRANCH  25  30
ENDBRANCH  22  23
ENDBRANCH  21  22
ENDBRANCH  19  21
ENDBRANCH   1  19
TORSDOF 6
