REMARK  Name = ZINC39696503
REMARK  11 active torsions:
REMARK  status: ('A' for Active; 'I' for Inactive)
REMARK    1  A    between atoms: C_1  and  C_2
REMARK    2  A    between atoms: C_2  and  C_3
REMARK    3  A    between atoms: C_2  and  C_4
REMARK    4  A    between atoms: C_2  and  S_5
REMARK    5  A    between atoms: S_5  and  C_6
REMARK    6  A    between atoms: C_6  and  C_7
REMARK    7  A    between atoms: C_7  and  N_8
REMARK    8  A    between atoms: C_9  and  C_11
REMARK    9  A    between atoms: C_22  and  C_24
REMARK   10  A    between atoms: C_29  and  O_30
REMARK   11  A    between atoms: O_30  and  C_31
REMARK                            x       y       z     vdW  Elec       q    Type
REMARK                         _______ _______ _______ _____ _____    ______ ____
ROOT
ATOM      1  C   UNL     1       6.618   0.231  -3.486  0.00  0.00    +0.100 C 
ATOM      2  C   UNL     1       7.361  -0.033  -2.158  0.00  0.00    +0.121 C 
ATOM      3  N   UNL     1       8.309  -1.128  -2.470  0.00  0.00    -0.296 N 
ATOM      4  C   UNL     1       8.810  -0.806  -3.828  0.00  0.00    +0.115 C 
ATOM      5  C   UNL     1       7.574  -0.275  -4.580  0.00  0.00    -0.004 C 
ATOM      6  C   UNL     1       6.918  -1.400  -5.376  0.00  0.00    -0.010 C 
ATOM      7  C   UNL     1       7.865  -1.847  -6.493  0.00  0.00    -0.082 C 
ATOM      8  N   UNL     1       8.162  -0.709  -7.370  0.00  0.00    +0.379 N 
ATOM      9  C   UNL     1       8.875   0.331  -6.618  0.00  0.00    -0.082 C 
ATOM     10  C   UNL     1       7.971   0.870  -5.506  0.00  0.00    -0.010 C 
ATOM     11  C   UNL     1       8.642  -2.179  -1.694  0.00  0.00    +0.252 C 
ATOM     12  O   UNL     1       9.512  -2.949  -2.054  0.00  0.00    -0.270 OA
ATOM     13  H   UNL     1       8.736  -1.020  -8.140  0.00  0.00    -0.086 HD
ATOM     14  H   UNL     1       7.299  -0.329  -7.731  0.00  0.00    -0.086 HD
ENDROOT
BRANCH  11  15
ATOM     15  C   UNL     1       7.950  -2.395  -0.409  0.00  0.00    +0.099 A 
ATOM     16  C   UNL     1       7.538  -1.308   0.370  0.00  0.00    +0.020 A 
ATOM     17  C   UNL     1       6.894  -1.565   1.567  0.00  0.00    +0.021 A 
ATOM     18  C   UNL     1       6.676  -2.875   1.956  0.00  0.00    +0.114 A 
ATOM     19  N   UNL     1       7.073  -3.884   1.206  0.00  0.00    -0.220 NA
ATOM     20  C   UNL     1       7.689  -3.695   0.051  0.00  0.00    +0.233 A 
BRANCH  20  21
ATOM     21  O   UNL     1       8.074  -4.761  -0.689  0.00  0.00    -0.437 OA
BRANCH  21  22
ATOM     22  C   UNL     1       7.892  -6.002  -0.164  0.00  0.00    +0.130 A 
ATOM     23  C   UNL     1       6.630  -6.579  -0.167  0.00  0.00    +0.048 A 
ATOM     24  C   UNL     1       6.447  -7.840   0.366  0.00  0.00    +0.023 A 
ATOM     25  C   UNL     1       7.521  -8.527   0.904  0.00  0.00    +0.041 A 
ATOM     26  C   UNL     1       8.780  -7.953   0.908  0.00  0.00    +0.023 A 
ATOM     27  C   UNL     1       8.969  -6.695   0.370  0.00  0.00    +0.048 A 
ATOM     28 CL   UNL     1       7.289 -10.111   1.574  0.00  0.00    -0.084 Cl
ENDBRANCH  21  22
ENDBRANCH  20  21
ENDBRANCH  11  15
BRANCH   1  30
ATOM     29  N   UNL     1       4.281  -0.069  -4.240  0.00  0.00    -0.314 N 
ATOM     30  C   UNL     1       5.322  -0.538  -3.525  0.00  0.00    +0.218 C 
ATOM     31  O   UNL     1       5.217  -1.580  -2.912  0.00  0.00    -0.275 OA
ATOM     32  H   UNL     1       4.365   0.764  -4.731  0.00  0.00    +0.149 HD
BRANCH  29  33
ATOM     33  C   UNL     1       3.022  -0.817  -4.278  0.00  0.00    +0.115 C 
BRANCH  33  34
ATOM     34  C   UNL     1       2.012  -0.072  -5.154  0.00  0.00    +0.088 C 
BRANCH  34  35
ATOM     35  S   UNL     1       0.453  -0.997  -5.200  0.00  0.00    -0.153 S 
BRANCH  35  37
ATOM     36  C   UNL     1       0.013   0.136  -7.650  0.00  0.00    +0.022 C 
ATOM     37  C   UNL     1      -0.621   0.005  -6.264  0.00  0.00    +0.008 C 
ATOM     38  C   UNL     1      -0.794   1.396  -5.649  0.00  0.00    +0.022 C 
ATOM     39  C   UNL     1      -1.988  -0.670  -6.390  0.00  0.00    +0.022 C 
ENDBRANCH  35  37
ENDBRANCH  34  35
ENDBRANCH  33  34
ENDBRANCH  29  33
ENDBRANCH   1  30
TORSDOF 8
