REMARK  Name = ZINC58929958
REMARK  11 active torsions:
REMARK  status: ('A' for Active; 'I' for Inactive)
REMARK    1  A    between atoms: C_1  and  C_2
REMARK    2  A    between atoms: C_2  and  C_30
REMARK    3  A    between atoms: N_7  and  C_9
REMARK    4  A    between atoms: C_9  and  C_10
REMARK    5  A    between atoms: C_10  and  C_11
REMARK    6  A    between atoms: C_14  and  O_19
REMARK    7  A    between atoms: C_15  and  O_17
REMARK    8  A    between atoms: O_17  and  C_18
REMARK    9  A    between atoms: O_19  and  C_20
REMARK   10  A    between atoms: C_23  and  O_28
REMARK   11  A    between atoms: O_28  and  C_29
REMARK                            x       y       z     vdW  Elec       q    Type
REMARK                         _______ _______ _______ _____ _____    ______ ____
ROOT
ATOM      1  C   UNL     1      -0.019   1.526   0.010  0.00  0.00    +0.037 C 
ATOM      2  C   UNL     1       0.002  -0.004   0.002  0.00  0.00    +0.060 C 
ATOM      3  C   UNL     1       0.724  -0.492  -1.215  0.00  0.00    +0.039 A 
ATOM      4  C   UNL     1       2.062  -0.835  -1.241  0.00  0.00    +0.028 A 
ATOM      5  C   UNL     1       2.519  -1.232  -2.496  0.00  0.00    +0.102 A 
ATOM      6  S   UNL     1       4.151  -1.677  -2.760  0.00  0.00    -0.031 S 
ATOM      7  N   UNL     1       1.609  -1.249  -3.493  0.00  0.00    -0.304 N 
ATOM      8  S   UNL     1       0.188  -0.742  -2.766  0.00  0.00    -0.013 S 
ATOM      9  C   UNL     1       2.834  -0.764   0.034  0.00  0.00    +0.010 A 
ATOM     10  C   UNL     1       4.213  -0.892   0.058  0.00  0.00    +0.056 A 
ATOM     11  C   UNL     1       4.885  -0.796   1.269  0.00  0.00    +0.121 A 
ATOM     12  C   UNL     1       4.175  -0.571   2.440  0.00  0.00    +0.047 A 
ATOM     13  C   UNL     1       2.798  -0.451   2.418  0.00  0.00    +0.027 A 
ATOM     14  C   UNL     1       2.112  -0.557   1.218  0.00  0.00    +0.036 A 
ATOM     15  N   UNL     1       0.713  -0.497   1.193  0.00  0.00    -0.334 N 
ATOM     16  C   UNL     1      -1.431  -0.539   0.000  0.00  0.00    +0.037 C 
ATOM     17  H   UNL     1       0.207  -0.783   1.969  0.00  0.00    +0.147 HD
ENDROOT
BRANCH  11  18
ATOM     18  O   UNL     1       6.238  -0.922   1.307  0.00  0.00    -0.495 OA
ATOM     19  C   UNL     1       6.864  -0.813   2.587  0.00  0.00    +0.277 C 
ENDBRANCH  11  18
BRANCH   7  20
ATOM     20  C   UNL     1       1.818  -1.625  -4.893  0.00  0.00    +0.135 C 
BRANCH  20  21
ATOM     21  C   UNL     1       1.689  -3.142  -5.038  0.00  0.00    +0.057 C 
BRANCH  21  22
ATOM     22  C   UNL     1       1.903  -3.529  -6.479  0.00  0.00    -0.042 A 
ATOM     23  C   UNL     1       0.828  -3.580  -7.347  0.00  0.00    +0.007 A 
ATOM     24  C   UNL     1       1.020  -3.934  -8.669  0.00  0.00    +0.049 A 
ATOM     25  C   UNL     1       2.292  -4.238  -9.128  0.00  0.00    +0.161 A 
ATOM     26  C   UNL     1       3.374  -4.186  -8.255  0.00  0.00    +0.162 A 
ATOM     27  C   UNL     1       3.175  -3.826  -6.931  0.00  0.00    +0.053 A 
BRANCH  26  28
ATOM     28  O   UNL     1       4.624  -4.483  -8.700  0.00  0.00    -0.491 OA
ATOM     29  C   UNL     1       5.687  -4.409  -7.747  0.00  0.00    +0.277 C 
ENDBRANCH  26  28
BRANCH  25  30
ATOM     30  O   UNL     1       2.482  -4.587 -10.428  0.00  0.00    -0.491 OA
ATOM     31  C   UNL     1       1.325  -4.620 -11.267  0.00  0.00    +0.277 C 
ENDBRANCH  25  30
ENDBRANCH  21  22
ENDBRANCH  20  21
ENDBRANCH   7  20
TORSDOF 6
