REMARK  Name = ZINC44714465
REMARK  7 active torsions:
REMARK  status: ('A' for Active; 'I' for Inactive)
REMARK    1  A    between atoms: C_1  and  C_2
REMARK    2  A    between atoms: C_3  and  C_14
REMARK    3  A    between atoms: C_6  and  C_12
REMARK    4  A    between atoms: C_14  and  C_15
REMARK    5  A    between atoms: C_15  and  N_16
REMARK    6  A    between atoms: C_17  and  C_19
REMARK    7  A    between atoms: C_30  and  C_32
REMARK                            x       y       z     vdW  Elec       q    Type
REMARK                         _______ _______ _______ _____ _____    ______ ____
ROOT
ATOM      1  C   UNL     1       2.534   1.663  -6.716  0.00  0.00    +0.100 C 
ATOM      2  C   UNL     1       1.982   0.429  -7.463  0.00  0.00    +0.121 C 
ATOM      3  N   UNL     1       2.825   0.318  -8.676  0.00  0.00    -0.296 N 
ATOM      4  C   UNL     1       4.191   0.652  -8.208  0.00  0.00    +0.115 C 
ATOM      5  C   UNL     1       3.985   1.806  -7.207  0.00  0.00    -0.004 C 
ATOM      6  C   UNL     1       4.954   1.669  -6.037  0.00  0.00    -0.010 C 
ATOM      7  C   UNL     1       6.386   1.872  -6.540  0.00  0.00    -0.082 C 
ATOM      8  N   UNL     1       6.508   3.202  -7.149  0.00  0.00    +0.379 N 
ATOM      9  C   UNL     1       5.640   3.293  -8.330  0.00  0.00    -0.082 C 
ATOM     10  C   UNL     1       4.177   3.150  -7.902  0.00  0.00    -0.010 C 
ATOM     11  C   UNL     1       2.437  -0.013  -9.924  0.00  0.00    +0.250 C 
ATOM     12  O   UNL     1       3.268  -0.155 -10.801  0.00  0.00    -0.270 OA
ATOM     13  H   UNL     1       6.236   3.905  -6.478  0.00  0.00    -0.086 HD
ATOM     14  H   UNL     1       7.466   3.357  -7.425  0.00  0.00    -0.086 HD
ENDROOT
BRANCH  11  15
ATOM     15  C   UNL     1       1.004  -0.202 -10.227  0.00  0.00    +0.074 A 
ATOM     16  C   UNL     1       0.143  -0.762  -9.275  0.00  0.00    +0.017 A 
ATOM     17  C   UNL     1      -1.191  -0.917  -9.608  0.00  0.00    +0.021 A 
ATOM     18  C   UNL     1      -1.629  -0.517 -10.858  0.00  0.00    +0.112 A 
ATOM     19  N   UNL     1      -0.796   0.008 -11.736  0.00  0.00    -0.243 NA
ATOM     20  C   UNL     1       0.482   0.181 -11.465  0.00  0.00    +0.141 A 
ATOM     21 CL   UNL     1       1.528   0.885 -12.659  0.00  0.00    -0.061 Cl
ENDBRANCH  11  15
BRANCH   1  23
ATOM     22  N   UNL     1       2.369   2.476  -4.385  0.00  0.00    -0.315 N 
ATOM     23  C   UNL     1       2.504   1.432  -5.227  0.00  0.00    +0.218 C 
ATOM     24  O   UNL     1       2.603   0.306  -4.786  0.00  0.00    -0.275 OA
ATOM     25  H   UNL     1       2.290   3.376  -4.738  0.00  0.00    +0.149 HD
BRANCH  22  26
ATOM     26  C   UNL     1       2.340   2.251  -2.938  0.00  0.00    +0.109 C 
BRANCH  26  27
ATOM     27  C   UNL     1       2.179   3.591  -2.217  0.00  0.00    +0.056 C 
BRANCH  27  30
ATOM     28  C   UNL     1       4.636   3.563  -0.321  0.00  0.00    +0.063 C 
ATOM     29  C   UNL     1       3.205   3.346   0.100  0.00  0.00    +0.017 A 
ATOM     30  C   UNL     1       2.149   3.360  -0.728  0.00  0.00    -0.018 A 
ATOM     31  C   UNL     1       0.961   3.108   0.092  0.00  0.00    +0.004 A 
ATOM     32  C   UNL     1      -0.401   3.005  -0.184  0.00  0.00    +0.029 A 
ATOM     33  C   UNL     1      -1.291   2.751   0.855  0.00  0.00    +0.052 A 
ATOM     34  C   UNL     1      -0.816   2.602   2.166  0.00  0.00    +0.021 A 
ATOM     35  C   UNL     1       0.516   2.702   2.439  0.00  0.00    +0.027 A 
ATOM     36  C   UNL     1       1.425   2.956   1.413  0.00  0.00    +0.047 A 
ATOM     37  N   UNL     1       2.792   3.101   1.381  0.00  0.00    -0.358 N 
ATOM     38  H   UNL     1       3.376   3.041   2.152  0.00  0.00    +0.166 HD
BRANCH  33  39
ATOM     39  C   UNL     1      -2.694   2.643   0.586  0.00  0.00    +0.099 C 
ATOM     40  N   UNL     1      -3.806   2.558   0.372  0.00  0.00    -0.191 NA
ENDBRANCH  33  39
ENDBRANCH  27  30
ENDBRANCH  26  27
ENDBRANCH  22  26
ENDBRANCH   1  23
TORSDOF 6
