REMARK  Name = ZINC39708640
REMARK  6 active torsions:
REMARK  status: ('A' for Active; 'I' for Inactive)
REMARK    1  A    between atoms: C_1  and  C_2
REMARK    2  A    between atoms: C_2  and  C_3
REMARK    3  A    between atoms: C_3  and  C_23
REMARK    4  A    between atoms: C_9  and  S_13
REMARK    5  A    between atoms: S_13  and  C_14
REMARK    6  A    between atoms: C_14  and  C_15
REMARK                            x       y       z     vdW  Elec       q    Type
REMARK                         _______ _______ _______ _____ _____    ______ ____
ROOT
ATOM      1  C   UNL     1       0.718  -0.497  -1.257  0.00  0.00    +0.070 C 
ATOM      2  C   UNL     1       0.605  -2.028  -1.339  0.00  0.00    +0.067 C 
ATOM      3  C   UNL     1       1.487  -2.576  -0.217  0.00  0.00    -0.037 C 
ATOM      4  C   UNL     1       1.103  -3.449   0.708  0.00  0.00    +0.071 C 
ATOM      5  C   UNL     1       2.015  -3.698   1.859  0.00  0.00    +0.112 C 
ATOM      6  N   UNL     1       1.700  -4.499   2.844  0.00  0.00    -0.217 NA
ATOM      7  C   UNL     1       0.507  -5.112   2.792  0.00  0.00    +0.182 C 
ATOM      8  N   UNL     1      -0.378  -4.968   1.826  0.00  0.00    -0.151 NA
ATOM      9  C   UNL     1      -0.208  -4.181   0.753  0.00  0.00    +0.272 C 
ATOM     10  O   UNL     1      -1.054  -4.068  -0.119  0.00  0.00    -0.268 OA
ATOM     11  S   UNL     1       3.447  -2.724   1.517  0.00  0.00    -0.095 S 
ATOM     12  C   UNL     1       2.926  -2.062  -0.111  0.00  0.00    +0.105 C 
ATOM     13  C   UNL     1       2.828  -0.535  -0.061  0.00  0.00    +0.179 C 
ATOM     14  O   UNL     1       2.086  -0.100  -1.207  0.00  0.00    -0.372 OA
ATOM     15  C   UNL     1       0.057   0.121  -2.490  0.00  0.00    +0.042 C 
ENDROOT
BRANCH   1  17
ATOM     16  C   UNL     1      -0.019   1.526   0.010  0.00  0.00    +0.007 C 
ATOM     17  C   UNL     1       0.002  -0.004   0.002  0.00  0.00    +0.031 C 
ENDBRANCH   1  17
BRANCH   7  18
ATOM     18  S   UNL     1       0.091  -6.194   4.120  0.00  0.00    -0.077 S 
BRANCH  18  19
ATOM     19  C   UNL     1      -1.560  -6.807   3.685  0.00  0.00    +0.202 C 
BRANCH  19  20
ATOM     20  C   UNL     1      -2.040  -7.757   4.753  0.00  0.00    +0.366 C 
ATOM     21  O   UNL     1      -1.334  -7.997   5.717  0.00  0.00    -0.245 OA
ATOM     22  O   UNL     1      -3.135  -8.284   4.652  0.00  0.00    -0.245 OA
ENDBRANCH  19  20
ENDBRANCH  18  19
ENDBRANCH   7  18
TORSDOF 4
