REMARK  Name = ZINC64502940
REMARK  3 active torsions:
REMARK  status: ('A' for Active; 'I' for Inactive)
REMARK    1  A    between atoms: C_6  and  C_11
REMARK    2  A    between atoms: N_16  and  C_19
REMARK    3  A    between atoms: N_25  and  C_27
REMARK                            x       y       z     vdW  Elec       q    Type
REMARK                         _______ _______ _______ _____ _____    ______ ____
ROOT
ATOM      1  C   UNL     1       3.683  -3.758  -3.596  0.00  0.00    +0.242 C 
ATOM      2  O   UNL     1       4.304  -3.548  -4.616  0.00  0.00    -0.273 OA
ATOM      3  N   UNL     1       3.347  -5.019  -3.259  0.00  0.00    -0.297 N 
ATOM      4  C   UNL     1       2.589  -5.295  -2.029  0.00  0.00    +0.123 C 
ATOM      5  C   UNL     1       3.324  -6.383  -1.239  0.00  0.00    +0.105 C 
ATOM      6  N   UNL     1       3.547  -7.548  -2.106  0.00  0.00    -0.280 NA
ATOM      7  C   UNL     1       4.417  -7.209  -3.240  0.00  0.00    +0.105 C 
ATOM      8  C   UNL     1       3.721  -6.154  -4.115  0.00  0.00    +0.123 C 
ENDROOT
BRANCH   1  14
ATOM      9  C   UNL     1       0.214   0.677  -3.842  0.00  0.00    +0.001 A 
ATOM     10  C   UNL     1       1.409   1.314  -4.202  0.00  0.00    +0.002 A 
ATOM     11  C   UNL     1       2.618   0.733  -4.053  0.00  0.00    +0.026 A 
ATOM     12  C   UNL     1       2.724  -0.578  -3.511  0.00  0.00    +0.043 A 
ATOM     13  N   UNL     1       3.762  -1.342  -3.272  0.00  0.00    -0.370 N 
ATOM     14  C   UNL     1       3.289  -2.609  -2.704  0.00  0.00    +0.190 C 
ATOM     15  C   UNL     1       1.783  -2.495  -2.633  0.00  0.00    +0.016 C 
ATOM     16  C   UNL     1       1.476  -1.272  -3.122  0.00  0.00    -0.004 A 
ATOM     17  C   UNL     1       0.202  -0.570  -3.317  0.00  0.00    +0.010 A 
ATOM     18  H   UNL     1       4.688  -1.109  -3.443  0.00  0.00    +0.161 HD
ENDBRANCH   1  14
BRANCH   6  19
ATOM     19  C   UNL     1       4.093  -8.676  -1.341  0.00  0.00    +0.166 C 
ATOM     20  C   UNL     1       3.070  -9.144  -0.337  0.00  0.00    +0.014 C 
ATOM     21  C   UNL     1       3.492  -9.764   0.768  0.00  0.00    +0.068 C 
ATOM     22  C   UNL     1       4.946  -9.951   0.939  0.00  0.00    +0.257 C 
ATOM     23  O   UNL     1       5.376 -10.770   1.728  0.00  0.00    -0.269 OA
ATOM     24  N   UNL     1       5.789  -9.198   0.203  0.00  0.00    -0.200 N 
ATOM     25  N   UNL     1       5.313  -8.250  -0.649  0.00  0.00    -0.212 NA
ATOM     26  H   UNL     1       5.169  -7.372  -0.172  0.00  0.00    +0.147 HD
BRANCH  24  27
ATOM     27  C   UNL     1       7.170  -9.394   0.320  0.00  0.00    +0.053 A 
ATOM     28  C   UNL     1       7.699 -10.676   0.250  0.00  0.00    +0.028 A 
ATOM     29  C   UNL     1       9.062 -10.867   0.364  0.00  0.00    +0.040 A 
ATOM     30  C   UNL     1       9.901  -9.780   0.549  0.00  0.00    +0.124 A 
ATOM     31  C   UNL     1       9.375  -8.501   0.620  0.00  0.00    +0.040 A 
ATOM     32  C   UNL     1       8.014  -8.306   0.499  0.00  0.00    +0.028 A 
ATOM     33  F   UNL     1      11.234  -9.969   0.662  0.00  0.00    -0.205 F 
ENDBRANCH  24  27
ENDBRANCH   6  19
TORSDOF 3
