REMARK  Name = ZINC21856470
REMARK  9 active torsions:
REMARK  status: ('A' for Active; 'I' for Inactive)
REMARK    1  A    between atoms: C_1  and  C_2
REMARK    2  A    between atoms: C_2  and  C_28
REMARK    3  A    between atoms: C_9  and  O_15
REMARK    4  A    between atoms: C_12  and  O_13
REMARK    5  A    between atoms: O_13  and  C_14
REMARK    6  A    between atoms: O_15  and  C_16
REMARK    7  A    between atoms: N_19  and  C_20
REMARK    8  A    between atoms: C_20  and  C_21
REMARK    9  A    between atoms: N_30  and  C_31
REMARK                            x       y       z     vdW  Elec       q    Type
REMARK                         _______ _______ _______ _____ _____    ______ ____
ROOT
ATOM      1  C   UNL     1       2.533   0.596   2.150  0.00  0.00    +0.043 C 
ATOM      2  C   UNL     1       2.342   1.274   0.792  0.00  0.00    +0.129 C 
ATOM      3  C   UNL     1       1.116   2.182   0.863  0.00  0.00    +0.157 C 
ATOM      4  N   UNL     1      -0.098   1.357   0.870  0.00  0.00    -0.331 N 
ATOM      5  C   UNL     1      -0.137   0.116   0.229  0.00  0.00    +0.106 A 
ATOM      6  C   UNL     1      -1.368  -0.422   0.361  0.00  0.00    +0.044 A 
ATOM      7  C   UNL     1      -2.142   0.480   1.112  0.00  0.00    +0.046 A 
ATOM      8  C   UNL     1      -1.313   1.591   1.424  0.00  0.00    +0.095 A 
ATOM      9  C   UNL     1      -1.809   2.659   2.178  0.00  0.00    +0.144 A 
ATOM     10  C   UNL     1      -3.130   2.583   2.595  0.00  0.00    +0.051 A 
ATOM     11  C   UNL     1      -3.941   1.502   2.288  0.00  0.00    +0.050 A 
ATOM     12  C   UNL     1      -3.480   0.427   1.544  0.00  0.00    +0.129 A 
ATOM     13  C   UNL     1       1.059  -0.419  -0.445  0.00  0.00    +0.264 C 
ATOM     14  O   UNL     1       1.006  -1.407  -1.154  0.00  0.00    -0.268 OA
ATOM     15  N   UNL     1       2.219   0.245  -0.234  0.00  0.00    -0.276 N 
ENDROOT
BRANCH   2  16
ATOM     16  C   UNL     1       3.556   2.116   0.494  0.00  0.00    +0.238 C 
ATOM     17  O   UNL     1       4.644   1.781   0.911  0.00  0.00    -0.273 OA
ATOM     18  N   UNL     1       3.432   3.242  -0.237  0.00  0.00    -0.311 N 
ATOM     19  H   UNL     1       2.462   3.502  -0.686  0.00  0.00    +0.149 HD
BRANCH  18  20
ATOM     20  C   UNL     1       4.588   4.119  -0.433  0.00  0.00    +0.073 C 
ATOM     21  C   UNL     1       4.801   4.971   0.820  0.00  0.00    +0.022 C 
ATOM     22  C   UNL     1       6.009   5.887   0.615  0.00  0.00    +0.002 C 
ATOM     23  C   UNL     1       5.758   6.801  -0.586  0.00  0.00    +0.000 C 
ATOM     24  C   UNL     1       5.546   5.949  -1.839  0.00  0.00    +0.002 C 
ATOM     25  C   UNL     1       4.338   5.033  -1.634  0.00  0.00    +0.022 C 
ENDBRANCH  18  20
ENDBRANCH   2  16
BRANCH  12  26
ATOM     26  O   UNL     1      -4.283  -0.628   1.248  0.00  0.00    -0.494 OA
ATOM     27  C   UNL     1      -5.625  -0.581   1.736  0.00  0.00    +0.277 C 
ENDBRANCH  12  26
BRANCH   9  28
ATOM     28  O   UNL     1      -1.029   3.730   2.489  0.00  0.00    -0.493 OA
ATOM     29  C   UNL     1      -1.632   4.768   3.264  0.00  0.00    +0.277 C 
ENDBRANCH   9  28
BRANCH  15  30
ATOM     30  C   UNL     1       3.384  -0.078  -1.062  0.00  0.00    +0.144 C 
BRANCH  30  31
ATOM     31  C   UNL     1       3.294   0.666  -2.369  0.00  0.00    -0.027 A 
ATOM     32  C   UNL     1       3.990   1.848  -2.542  0.00  0.00    +0.005 A 
ATOM     33  C   UNL     1       3.907   2.531  -3.741  0.00  0.00    +0.003 A 
ATOM     34  C   UNL     1       3.129   2.033  -4.769  0.00  0.00    +0.038 A 
ATOM     35  C   UNL     1       2.432   0.849  -4.597  0.00  0.00    +0.124 A 
ATOM     36  C   UNL     1       2.519   0.163  -3.397  0.00  0.00    +0.043 A 
ATOM     37  F   UNL     1       1.671   0.361  -5.601  0.00  0.00    -0.205 F 
ENDBRANCH  30  31
ENDBRANCH  15  30
TORSDOF 6
