REMARK  Name = ZINC20665103
REMARK  7 active torsions:
REMARK  status: ('A' for Active; 'I' for Inactive)
REMARK    1  A    between atoms: C_1  and  N_2
REMARK    2  A    between atoms: N_2  and  C_3
REMARK    3  A    between atoms: N_2  and  C_4
REMARK    4  A    between atoms: C_4  and  C_10
REMARK    5  A    between atoms: C_10  and  N_11
REMARK    6  A    between atoms: N_11  and  C_12
REMARK    7  A    between atoms: N_22  and  C_25
REMARK                            x       y       z     vdW  Elec       q    Type
REMARK                         _______ _______ _______ _____ _____    ______ ____
ROOT
ATOM      1  C   UNL     1       4.962  -0.299  -0.501  0.00  0.00    +0.081 C 
ATOM      2  C   UNL     1       3.869  -0.812  -1.164  0.00  0.00    +0.059 C 
ATOM      3  C   UNL     1       2.814   0.078  -1.693  0.00  0.00    +0.000 A 
ATOM      4  C   UNL     1       2.879   1.459  -1.546  0.00  0.00    +0.009 A 
ATOM      5  C   UNL     1       1.869   2.247  -2.059  0.00  0.00    +0.001 A 
ATOM      6  C   UNL     1       0.792   1.672  -2.717  0.00  0.00    +0.001 A 
ATOM      7  C   UNL     1       0.709   0.305  -2.873  0.00  0.00    +0.014 A 
ATOM      8  C   UNL     1       1.720  -0.510  -2.362  0.00  0.00    +0.046 A 
ATOM      9  C   UNL     1       1.671  -1.971  -2.507  0.00  0.00    +0.258 C 
ATOM     10  O   UNL     1       0.731  -2.483  -3.083  0.00  0.00    -0.269 OA
ATOM     11  N   UNL     1       2.648  -2.749  -2.014  0.00  0.00    -0.202 N 
ATOM     12  C   UNL     1       3.717  -2.257  -1.366  0.00  0.00    +0.259 C 
ATOM     13  O   UNL     1       4.568  -3.018  -0.943  0.00  0.00    -0.269 OA
ENDROOT
BRANCH  11  14
ATOM     14  C   UNL     1       2.548  -4.137  -2.183  0.00  0.00    +0.046 A 
ATOM     15  C   UNL     1       1.547  -4.846  -1.532  0.00  0.00    +0.024 A 
ATOM     16  C   UNL     1       1.450  -6.213  -1.701  0.00  0.00    +0.003 A 
ATOM     17  C   UNL     1       2.348  -6.877  -2.517  0.00  0.00    +0.020 A 
ATOM     18  C   UNL     1       3.346  -6.173  -3.167  0.00  0.00    +0.043 A 
ATOM     19  C   UNL     1       3.446  -4.803  -3.005  0.00  0.00    +0.044 A 
ATOM     20 CL   UNL     1       4.472  -7.010  -4.191  0.00  0.00    -0.083 Cl
ENDBRANCH  11  14
BRANCH   1  21
ATOM     21  N   UNL     1       4.876   0.906   0.119  0.00  0.00    -0.350 N 
ATOM     22  H   UNL     1       3.903   1.411   0.208  0.00  0.00    +0.145 HD
BRANCH  21  23
ATOM     23  C   UNL     1       6.080   1.534   0.668  0.00  0.00    +0.089 C 
BRANCH  23  24
ATOM     24  C   UNL     1       5.688   2.782   1.462  0.00  0.00    -0.051 C 
ATOM     25  C   UNL     1       4.812   3.686   0.592  0.00  0.00    -0.010 C 
ATOM     26  C   UNL     1       5.591   4.100  -0.658  0.00  0.00    -0.001 C 
ATOM     27  C   UNL     1       6.853   4.859  -0.244  0.00  0.00    -0.000 C 
ATOM     28  C   UNL     1       7.729   3.956   0.626  0.00  0.00    -0.001 C 
ATOM     29  C   UNL     1       6.950   3.541   1.876  0.00  0.00    -0.010 C 
BRANCH  24  31
ATOM     30  C   UNL     1       3.647   1.786   2.302  0.00  0.00    -0.096 C 
ATOM     31  N   UNL     1       4.940   2.384   2.662  0.00  0.00    +0.381 N 
ATOM     32  C   UNL     1       5.730   1.468   3.495  0.00  0.00    -0.096 C 
ATOM     33  H   UNL     1       4.740   3.291   3.252  0.00  0.00    -0.082 HD
ENDBRANCH  24  31
ENDBRANCH  23  24
ENDBRANCH  21  23
ENDBRANCH   1  21
TORSDOF 5
