REMARK  Name = ZINC03276232
REMARK  10 active torsions:
REMARK  status: ('A' for Active; 'I' for Inactive)
REMARK    1  A    between atoms: C_1  and  N_2
REMARK    2  A    between atoms: N_2  and  C_3
REMARK    3  A    between atoms: C_3  and  N_5
REMARK    4  A    between atoms: C_6  and  C_30
REMARK    5  A    between atoms: C_9  and  C_11
REMARK    6  A    between atoms: C_12  and  C_24
REMARK    7  A    between atoms: C_32  and  O_38
REMARK    8  A    between atoms: C_35  and  O_36
REMARK    9  A    between atoms: O_36  and  C_37
REMARK   10  A    between atoms: O_38  and  C_39
REMARK                            x       y       z     vdW  Elec       q    Type
REMARK                         _______ _______ _______ _____ _____    ______ ____
ROOT
ATOM      1  N   UNL     1      -1.538  -2.314  -0.307  0.00  0.00    -0.222 N 
ATOM      2  C   UNL     1      -2.612  -3.317  -0.215  0.00  0.00    +0.154 C 
ATOM      3  C   UNL     1      -1.893  -4.645  -0.123  0.00  0.00    +0.027 C 
ATOM      4  C   UNL     1      -0.583  -4.391  -0.161  0.00  0.00    +0.056 C 
ATOM      5  N   UNL     1      -0.334  -3.030  -0.274  0.00  0.00    -0.261 N 
ATOM      6  H   UNL     1       0.549  -2.630  -0.321  0.00  0.00    +0.170 HD
ENDROOT
BRANCH   4   7
ATOM      7  C   UNL     1       0.467  -5.426  -0.095  0.00  0.00    +0.070 A 
ATOM      8  C   UNL     1       0.559  -6.270   1.010  0.00  0.00    +0.005 A 
ATOM      9  C   UNL     1       1.623  -7.284   1.024  0.00  0.00    +0.008 A 
ATOM     10  C   UNL     1       1.760  -8.156   2.110  0.00  0.00    +0.030 A 
ATOM     11  C   UNL     1       2.762  -9.100   2.105  0.00  0.00    +0.042 A 
ATOM     12  C   UNL     1       3.636  -9.190   1.029  0.00  0.00    +0.022 A 
ATOM     13  C   UNL     1       3.515  -8.338  -0.047  0.00  0.00    +0.028 A 
ATOM     14  C   UNL     1       2.508  -7.375  -0.064  0.00  0.00    +0.050 A 
ATOM     15  N   UNL     1       2.383  -6.521  -1.141  0.00  0.00    -0.322 N 
ATOM     16  H   UNL     1       3.004  -6.601  -1.882  0.00  0.00    +0.169 HD
ATOM     17  C   UNL     1       1.421  -5.585  -1.193  0.00  0.00    +0.259 A 
ATOM     18  O   UNL     1       1.344  -4.855  -2.166  0.00  0.00    -0.267 OA
ATOM     19 CL   UNL     1       2.935 -10.184   3.450  0.00  0.00    -0.084 Cl
BRANCH   8  20
ATOM     20  C   UNL     1      -0.387  -6.148   2.139  0.00  0.00    -0.016 A 
ATOM     21  C   UNL     1      -0.371  -5.009   2.946  0.00  0.00    +0.008 A 
ATOM     22  C   UNL     1      -1.258  -4.901   3.998  0.00  0.00    +0.001 A 
ATOM     23  C   UNL     1      -2.160  -5.918   4.253  0.00  0.00    +0.000 A 
ATOM     24  C   UNL     1      -2.181  -7.050   3.456  0.00  0.00    +0.001 A 
ATOM     25  C   UNL     1      -1.304  -7.168   2.398  0.00  0.00    +0.008 A 
ENDBRANCH   8  20
ENDBRANCH   4   7
BRANCH   2  26
ATOM     26  C   UNL     1      -3.479  -3.272  -1.447  0.00  0.00    +0.024 A 
ATOM     27  C   UNL     1      -2.963  -2.797  -2.638  0.00  0.00    +0.055 A 
ATOM     28  C   UNL     1      -3.761  -2.756  -3.771  0.00  0.00    +0.121 A 
ATOM     29  C   UNL     1      -5.076  -3.191  -3.710  0.00  0.00    +0.049 A 
ATOM     30  C   UNL     1      -5.592  -3.666  -2.520  0.00  0.00    +0.049 A 
ATOM     31  C   UNL     1      -4.792  -3.712  -1.387  0.00  0.00    +0.126 A 
BRANCH  31  32
ATOM     32  O   UNL     1      -5.298  -4.185  -0.217  0.00  0.00    -0.495 OA
ATOM     33  C   UNL     1      -6.659  -4.622  -0.228  0.00  0.00    +0.277 C 
ENDBRANCH  31  32
BRANCH  28  34
ATOM     34  O   UNL     1      -3.253  -2.288  -4.943  0.00  0.00    -0.495 OA
ATOM     35  C   UNL     1      -4.131  -2.273  -6.070  0.00  0.00    +0.277 C 
ENDBRANCH  28  34
ENDBRANCH   2  26
BRANCH   1  36
ATOM     36  C   UNL     1      -1.685  -0.979  -0.407  0.00  0.00    +0.150 C 
ATOM     37  S   UNL     1      -3.251  -0.288  -0.432  0.00  0.00    -0.017 S 
BRANCH  36  39
ATOM     38  C   UNL     1      -0.757   1.266  -0.598  0.00  0.00    +0.127 C 
ATOM     39  N   UNL     1      -0.598  -0.186  -0.489  0.00  0.00    -0.328 N 
ATOM     40  H   UNL     1       0.290  -0.577  -0.475  0.00  0.00    +0.147 HD
ENDBRANCH  36  39
ENDBRANCH   1  36
TORSDOF 7
