REMARK  Name = ZINC65151040
REMARK  7 active torsions:
REMARK  status: ('A' for Active; 'I' for Inactive)
REMARK    1  A    between atoms: C_1  and  C_2
REMARK    2  A    between atoms: C_2  and  C_3
REMARK    3  A    between atoms: C_8  and  S_9
REMARK    4  A    between atoms: S_9  and  C_10
REMARK    5  A    between atoms: N_13  and  C_20
REMARK    6  A    between atoms: C_20  and  C_21
REMARK    7  A    between atoms: N_23  and  C_24
REMARK                            x       y       z     vdW  Elec       q    Type
REMARK                         _______ _______ _______ _____ _____    ______ ____
ROOT
ATOM      1  C   UNL     1      -2.487  -0.677  -3.897  0.00  0.00    +0.146 A 
ATOM      2  C   UNL     1      -2.177  -0.581  -5.329  0.00  0.00    +0.194 A 
ATOM      3  N   UNL     1      -1.124  -0.185  -5.993  0.00  0.00    -0.146 NA
ATOM      4  N   UNL     1      -1.402  -0.316  -7.362  0.00  0.00    -0.203 N 
ATOM      5  C   UNL     1      -2.656  -0.802  -7.478  0.00  0.00    +0.352 A 
ATOM      6  O   UNL     1      -3.238  -1.045  -8.521  0.00  0.00    -0.244 OA
ATOM      7  N   UNL     1      -3.148  -0.972  -6.237  0.00  0.00    -0.247 N 
ATOM      8  C   UNL     1      -4.358  -1.432  -5.756  0.00  0.00    +0.117 A 
ATOM      9  C   UNL     1      -4.586  -1.497  -4.437  0.00  0.00    +0.130 A 
ATOM     10  N   UNL     1      -3.667  -1.133  -3.531  0.00  0.00    -0.243 NA
ENDROOT
BRANCH   1  11
ATOM     11  S   UNL     1      -1.298  -0.198  -2.689  0.00  0.00    -0.066 S 
BRANCH  11  17
ATOM     12  C   UNL     1      -2.114  -1.967  -0.767  0.00  0.00    -0.034 A 
ATOM     13  C   UNL     1      -2.698  -2.305   0.438  0.00  0.00    +0.005 A 
ATOM     14  C   UNL     1      -3.220  -1.319   1.256  0.00  0.00    +0.000 A 
ATOM     15  C   UNL     1      -3.160   0.008   0.870  0.00  0.00    +0.001 A 
ATOM     16  C   UNL     1      -2.579   0.353  -0.334  0.00  0.00    +0.015 A 
ATOM     17  C   UNL     1      -2.048  -0.634  -1.155  0.00  0.00    +0.017 A 
BRANCH  12  19
ATOM     18  C   UNL     1      -0.047  -3.189  -1.385  0.00  0.00    +0.009 C 
ATOM     19  C   UNL     1      -1.545  -3.041  -1.657  0.00  0.00    +0.033 C 
ENDBRANCH  12  19
ENDBRANCH  11  17
ENDBRANCH   1  11
BRANCH   4  20
ATOM     20  C   UNL     1      -0.497   0.016  -8.464  0.00  0.00    +0.244 C 
BRANCH  20  21
ATOM     21  C   UNL     1      -0.699   1.455  -8.864  0.00  0.00    +0.239 C 
ATOM     22  O   UNL     1      -1.519   2.136  -8.285  0.00  0.00    -0.273 OA
ATOM     23  N   UNL     1       0.030   1.985  -9.866  0.00  0.00    -0.283 N 
ATOM     24  H   UNL     1       0.629   1.422 -10.380  0.00  0.00    +0.155 HD
BRANCH  23  25
ATOM     25  C   UNL     1      -0.076   3.349 -10.163  0.00  0.00    +0.047 A 
ATOM     26  C   UNL     1      -0.492   4.244  -9.186  0.00  0.00    +0.024 A 
ATOM     27  C   UNL     1      -0.595   5.589  -9.483  0.00  0.00    +0.002 A 
ATOM     28  C   UNL     1      -0.285   6.045 -10.751  0.00  0.00    +0.001 A 
ATOM     29  C   UNL     1       0.129   5.157 -11.726  0.00  0.00    +0.017 A 
ATOM     30  C   UNL     1       0.241   3.811 -11.435  0.00  0.00    +0.039 A 
ATOM     31 BR   UNL     1       0.815   2.598 -12.767  0.00  0.00    -0.048 Br
ENDBRANCH  23  25
ENDBRANCH  20  21
ENDBRANCH   4  20
TORSDOF 6
