REMARK  Name = ZINC38926310
REMARK  5 active torsions:
REMARK  status: ('A' for Active; 'I' for Inactive)
REMARK    1  A    between atoms: C_1  and  C_2
REMARK    2  A    between atoms: C_5  and  N_8
REMARK    3  A    between atoms: C_9  and  C_20
REMARK    4  A    between atoms: C_21  and  C_22
REMARK    5  A    between atoms: C_30  and  C_32
REMARK                            x       y       z     vdW  Elec       q    Type
REMARK                         _______ _______ _______ _____ _____    ______ ____
ROOT
ATOM      1  N   UNL     1       0.375  -4.109  -0.034  0.00  0.00    -0.261 N 
ATOM      2  C   UNL     1       0.445  -4.818   1.141  0.00  0.00    +0.141 A 
ATOM      3  N   UNL     1       0.622  -6.118   1.182  0.00  0.00    -0.229 NA
ATOM      4  C   UNL     1       0.749  -6.848   0.060  0.00  0.00    +0.079 A 
ATOM      5  C   UNL     1       0.938  -8.235   0.109  0.00  0.00    +0.029 A 
ATOM      6  C   UNL     1       1.062  -8.944  -1.052  0.00  0.00    +0.016 A 
ATOM      7  C   UNL     1       1.004  -8.310  -2.287  0.00  0.00    +0.014 A 
ATOM      8  C   UNL     1       0.819  -6.945  -2.368  0.00  0.00    +0.029 A 
ATOM      9  C   UNL     1       0.689  -6.202  -1.198  0.00  0.00    +0.066 A 
ATOM     10  C   UNL     1       0.484  -4.746  -1.223  0.00  0.00    +0.267 A 
ATOM     11  O   UNL     1       0.419  -4.136  -2.275  0.00  0.00    -0.267 OA
ATOM     12  I   UNL     1       1.201  -9.437  -4.043  0.00  0.00    -0.044 I 
ENDROOT
BRANCH   1  17
ATOM     13  C   UNL     1      -0.400   1.510   0.100  0.00  0.00    +0.044 C 
ATOM     14  C   UNL     1      -0.195   0.017   0.064  0.00  0.00    -0.050 A 
ATOM     15  C   UNL     1      -1.287  -0.830   0.073  0.00  0.00    +0.005 A 
ATOM     16  C   UNL     1      -1.102  -2.198   0.040  0.00  0.00    +0.026 A 
ATOM     17  C   UNL     1       0.183  -2.723  -0.001  0.00  0.00    +0.051 A 
ATOM     18  C   UNL     1       1.279  -1.869  -0.010  0.00  0.00    +0.026 A 
ATOM     19  C   UNL     1       1.087  -0.501   0.018  0.00  0.00    +0.005 A 
ENDBRANCH   1  17
BRANCH   2  20
ATOM     20  C   UNL     1       0.316  -4.091   2.404  0.00  0.00    +0.047 C 
ATOM     21  C   UNL     1       0.486  -4.745   3.586  0.00  0.00    +0.010 C 
BRANCH  21  22
ATOM     22  C   UNL     1       0.477  -4.028   4.791  0.00  0.00    -0.016 C 
ATOM     23  C   UNL     1       0.582  -4.545   6.079  0.00  0.00    +0.003 A 
ATOM     24  C   UNL     1       0.723  -5.862   6.571  0.00  0.00    +0.010 A 
ATOM     25  C   UNL     1       0.802  -6.076   7.908  0.00  0.00    +0.001 A 
ATOM     26  C   UNL     1       0.749  -5.020   8.825  0.00  0.00    +0.002 A 
ATOM     27  C   UNL     1       0.615  -3.733   8.427  0.00  0.00    +0.026 A 
ATOM     28  C   UNL     1       0.525  -3.428   7.041  0.00  0.00    +0.043 A 
ATOM     29  N   UNL     1       0.394  -2.284   6.409  0.00  0.00    -0.378 N 
ATOM     30  C   UNL     1       0.356  -2.530   4.964  0.00  0.00    +0.107 C 
ATOM     31  C   UNL     1       1.527  -1.825   4.276  0.00  0.00    +0.035 C 
ATOM     32  H   UNL     1       0.335  -1.413   6.832  0.00  0.00    +0.160 HD
ENDBRANCH  21  22
ENDBRANCH   2  20
TORSDOF 3
