REMARK  Name = ZINC11692081
REMARK  8 active torsions:
REMARK  status: ('A' for Active; 'I' for Inactive)
REMARK    1  A    between atoms: C_1  and  C_2
REMARK    2  A    between atoms: C_2  and  C_3
REMARK    3  A    between atoms: C_2  and  O_4
REMARK    4  A    between atoms: O_4  and  C_5
REMARK    5  A    between atoms: C_5  and  C_6
REMARK    6  A    between atoms: C_6  and  C_7
REMARK    7  A    between atoms: C_7  and  N_8
REMARK    8  A    between atoms: C_9  and  C_11
REMARK                            x       y       z     vdW  Elec       q    Type
REMARK                         _______ _______ _______ _____ _____    ______ ____
ROOT
ATOM      1  C   UNL     1      -1.290   1.927   0.019  0.00  0.00    +0.106 A 
ATOM      2  C   UNL     1      -2.049   2.349   1.204  0.00  0.00    +0.123 A 
ATOM      3  C   UNL     1      -3.241   3.017   0.682  0.00  0.00    +0.167 A 
ATOM      4  N   UNL     1      -4.128   3.510   1.519  0.00  0.00    -0.225 NA
ATOM      5  C   UNL     1      -3.933   3.397   2.839  0.00  0.00    +0.092 A 
ATOM      6  C   UNL     1      -4.876   3.922   3.742  0.00  0.00    +0.030 A 
ATOM      7  C   UNL     1      -4.669   3.803   5.081  0.00  0.00    +0.002 A 
ATOM      8  C   UNL     1      -3.533   3.166   5.578  0.00  0.00    +0.002 A 
ATOM      9  C   UNL     1      -2.599   2.647   4.736  0.00  0.00    +0.030 A 
ATOM     10  C   UNL     1      -2.777   2.750   3.344  0.00  0.00    +0.090 A 
ATOM     11  N   UNL     1      -1.865   2.243   2.506  0.00  0.00    -0.241 NA
ATOM     12  N   UNL     1      -3.162   2.976  -0.702  0.00  0.00    -0.277 N 
ATOM     13  C   UNL     1      -2.020   2.345  -1.097  0.00  0.00    +0.135 A 
ATOM     14  N   UNL     1      -1.718   2.171  -2.429  0.00  0.00    -0.307 N 
ATOM     15  H   UNL     1      -0.898   1.713  -2.674  0.00  0.00    +0.170 HD
ATOM     16  C   UNL     1      -2.531   2.627  -3.402  0.00  0.00    +0.259 A 
ATOM     17  O   UNL     1      -2.246   2.470  -4.574  0.00  0.00    -0.267 OA
ATOM     18  C   UNL     1      -3.772   3.321  -3.016  0.00  0.00    +0.063 A 
ATOM     19  C   UNL     1      -4.055   3.477  -1.651  0.00  0.00    +0.062 A 
ATOM     20  C   UNL     1      -5.217   4.125  -1.260  0.00  0.00    +0.027 A 
ATOM     21  C   UNL     1      -6.085   4.612  -2.217  0.00  0.00    +0.002 A 
ATOM     22  C   UNL     1      -5.807   4.459  -3.566  0.00  0.00    +0.001 A 
ATOM     23  C   UNL     1      -4.656   3.816  -3.972  0.00  0.00    +0.015 A 
ENDROOT
BRANCH   1  25
ATOM     24  N   UNL     1       1.143   1.903   0.001  0.00  0.00    -0.311 N 
ATOM     25  C   UNL     1      -0.014   1.213   0.009  0.00  0.00    +0.250 C 
ATOM     26  O   UNL     1       0.002  -0.004   0.002  0.00  0.00    -0.270 OA
ATOM     27  H   UNL     1       1.130   2.873   0.007  0.00  0.00    +0.149 HD
BRANCH  24  28
ATOM     28  C   UNL     1       2.422   1.188  -0.015  0.00  0.00    +0.107 C 
BRANCH  28  29
ATOM     29  C   UNL     1       3.571   2.198  -0.020  0.00  0.00    +0.047 C 
BRANCH  29  30
ATOM     30  C   UNL     1       4.906   1.451  -0.037  0.00  0.00    +0.161 C 
BRANCH  30  31
ATOM     31  O   UNL     1       5.980   2.394  -0.042  0.00  0.00    -0.377 OA
BRANCH  31  33
ATOM     32  C   UNL     1       8.256   2.723  -0.783  0.00  0.00    +0.037 C 
ATOM     33  C   UNL     1       7.278   1.797  -0.058  0.00  0.00    +0.112 C 
ATOM     34  C   UNL     1       7.755   1.577   1.379  0.00  0.00    +0.037 C 
ENDBRANCH  31  33
ENDBRANCH  30  31
ENDBRANCH  29  30
ENDBRANCH  28  29
ENDBRANCH  24  28
ENDBRANCH   1  25
TORSDOF 6
