REMARK  Name = ZINC40825011
REMARK  4 active torsions:
REMARK  status: ('A' for Active; 'I' for Inactive)
REMARK    1  A    between atoms: C_1  and  C_2
REMARK    2  A    between atoms: C_9  and  C_11
REMARK    3  A    between atoms: C_12  and  C_25
REMARK    4  A    between atoms: N_20  and  N_21
REMARK                            x       y       z     vdW  Elec       q    Type
REMARK                         _______ _______ _______ _____ _____    ______ ____
ROOT
ATOM      1  C   UNL     1      -0.129  -6.298  -0.953  0.00  0.00    +0.193 A 
ATOM      2  C   UNL     1      -0.226  -7.138  -2.027  0.00  0.00    +0.009 A 
ATOM      3  C   UNL     1      -0.286  -8.436  -1.505  0.00  0.00    +0.042 A 
ATOM      4  C   UNL     1      -0.225  -8.332  -0.135  0.00  0.00    +0.115 A 
ATOM      5  O   UNL     1      -0.124  -7.042   0.176  0.00  0.00    -0.454 OA
ATOM      6  C   UNL     1      -0.270  -9.529   0.780  0.00  0.00    +0.075 C 
ATOM      7  C   UNL     1      -0.889 -10.716   0.037  0.00  0.00    +0.014 C 
ATOM      8  C   UNL     1      -0.167 -10.957  -1.293  0.00  0.00    +0.058 C 
ATOM      9  C   UNL     1      -0.394  -9.746  -2.185  0.00  0.00    +0.072 C 
ATOM     10  N   UNL     1      -0.662  -9.854  -3.449  0.00  0.00    -0.175 NA
ATOM     11  C   UNL     1      -0.260  -6.746  -3.482  0.00  0.00    +0.048 C 
ENDROOT
BRANCH   1  20
ATOM     12  C   UNL     1      -0.025   1.495  -0.184  0.00  0.00    +0.045 C 
ATOM     13  C   UNL     1      -0.002  -0.007  -0.065  0.00  0.00    -0.032 A 
ATOM     14  C   UNL     1       0.012  -0.610   1.186  0.00  0.00    +0.008 A 
ATOM     15  C   UNL     1       0.033  -1.992   1.251  0.00  0.00    +0.044 A 
ATOM     16  C   UNL     1       0.038  -2.725   0.070  0.00  0.00    +0.125 A 
ATOM     17  N   UNL     1       0.025  -2.113  -1.104  0.00  0.00    -0.240 NA
ATOM     18  C   UNL     1      -0.000  -0.797  -1.197  0.00  0.00    +0.116 A 
ATOM     19  N   UNL     1       0.059  -4.117   0.121  0.00  0.00    -0.264 N 
ATOM     20  C   UNL     1      -0.038  -4.835  -1.015  0.00  0.00    +0.285 C 
ATOM     21  O   UNL     1      -0.051  -4.270  -2.093  0.00  0.00    -0.266 OA
ATOM     22  H   UNL     1       0.144  -4.569   0.975  0.00  0.00    +0.157 HD
ENDBRANCH   1  20
BRANCH  10  23
ATOM     23  N   UNL     1      -0.751 -11.120  -4.041  0.00  0.00    -0.248 N 
ATOM     24  C   UNL     1      -1.035 -11.234  -5.376  0.00  0.00    +0.187 C 
ATOM     25  N   UNL     1      -1.120 -12.439  -5.939  0.00  0.00    -0.370 N 
ATOM     26  N   UNL     1      -1.225 -10.140  -6.112  0.00  0.00    -0.370 N 
ATOM     27  H   UNL     1      -0.613 -11.917  -3.505  0.00  0.00    +0.192 HD
ATOM     28  H   UNL     1      -1.321 -12.520  -6.884  0.00  0.00    +0.159 HD
ATOM     29  H   UNL     1      -1.163  -9.263  -5.702  0.00  0.00    +0.159 HD
ATOM     30  H   UNL     1      -1.426 -10.220  -7.058  0.00  0.00    +0.159 HD
ATOM     31  H   UNL     1      -0.981 -13.236  -5.402  0.00  0.00    +0.159 HD
ENDBRANCH  10  23
TORSDOF 2
