REMARK  Name = ZINC34774340
REMARK  8 active torsions:
REMARK  status: ('A' for Active; 'I' for Inactive)
REMARK    1  A    between atoms: C_1  and  C_2
REMARK    2  A    between atoms: C_2  and  C_3
REMARK    3  A    between atoms: C_3  and  C_4
REMARK    4  A    between atoms: C_4  and  S_5
REMARK    5  A    between atoms: S_5  and  C_6
REMARK    6  A    between atoms: C_10  and  C_15
REMARK    7  A    between atoms: N_24  and  C_27
REMARK    8  A    between atoms: C_27  and  C_28
REMARK                            x       y       z     vdW  Elec       q    Type
REMARK                         _______ _______ _______ _____ _____    ______ ____
ROOT
ATOM      1  C   UNL     1       1.141  -4.571   2.689  0.00  0.00    +0.191 A 
ATOM      2  N   UNL     1       1.638  -5.344   3.648  0.00  0.00    -0.206 NA
ATOM      3  C   UNL     1       1.486  -6.658   3.638  0.00  0.00    +0.134 A 
ATOM      4  C   UNL     1       0.772  -7.269   2.573  0.00  0.00    +0.055 A 
ATOM      5  C   UNL     1       0.475  -8.680   2.342  0.00  0.00    +0.002 A 
ATOM      6  C   UNL     1      -0.233  -9.025   1.241  0.00  0.00    +0.056 A 
ATOM      7  S   UNL     1      -0.545  -7.463   0.441  0.00  0.00    -0.076 S 
ATOM      8  C   UNL     1       0.273  -6.389   1.591  0.00  0.00    +0.115 A 
ATOM      9  N   UNL     1       0.462  -5.086   1.674  0.00  0.00    -0.215 NA
ATOM     10  N   UNL     1       2.019  -7.429   4.655  0.00  0.00    -0.318 N 
ATOM     11  C   UNL     1       3.467  -7.678   4.737  0.00  0.00    +0.088 C 
ATOM     12  C   UNL     1       3.936  -7.352   6.159  0.00  0.00    -0.059 C 
ATOM     13  N   UNL     1       3.135  -8.113   7.125  0.00  0.00    +0.384 N 
ATOM     14  C   UNL     1       1.733  -7.681   7.062  0.00  0.00    -0.059 C 
ATOM     15  C   UNL     1       1.155  -8.019   5.689  0.00  0.00    +0.088 C 
ATOM     16  H   UNL     1       3.192  -9.097   6.906  0.00  0.00    -0.081 HD
ENDROOT
BRANCH   5  17
ATOM     17  C   UNL     1       0.939  -9.715   3.295  0.00  0.00    -0.017 A 
ATOM     18  C   UNL     1       2.302  -9.874   3.546  0.00  0.00    +0.008 A 
ATOM     19  C   UNL     1       2.728 -10.839   4.435  0.00  0.00    +0.001 A 
ATOM     20  C   UNL     1       1.808 -11.648   5.077  0.00  0.00    +0.000 A 
ATOM     21  C   UNL     1       0.455 -11.495   4.832  0.00  0.00    +0.001 A 
ATOM     22  C   UNL     1       0.016 -10.530   3.949  0.00  0.00    +0.008 A 
ENDBRANCH   5  17
BRANCH   1  23
ATOM     23  S   UNL     1       1.384  -2.827   2.772  0.00  0.00    -0.086 S 
BRANCH  23  24
ATOM     24  C   UNL     1       0.546  -2.197   1.292  0.00  0.00    +0.077 C 
BRANCH  24  25
ATOM     25  C   UNL     1       0.681  -0.674   1.239  0.00  0.00    +0.011 C 
BRANCH  25  27
ATOM     26  C   UNL     1       0.109   1.381  -0.062  0.00  0.00    +0.004 C 
ATOM     27  C   UNL     1      -0.026  -0.142  -0.009  0.00  0.00    -0.003 C 
ENDBRANCH  25  27
ENDBRANCH  24  25
ENDBRANCH  23  24
ENDBRANCH   1  23
BRANCH  13  28
ATOM     28  C   UNL     1       3.656  -7.885   8.479  0.00  0.00    -0.052 C 
BRANCH  28  29
ATOM     29  C   UNL     1       2.915  -8.759   9.457  0.00  0.00    -0.053 C 
ATOM     30  C   UNL     1       3.577  -9.572  10.241  0.00  0.00    +0.002 C 
ENDBRANCH  28  29
ENDBRANCH  13  28
TORSDOF 7
