REMARK  Name = ZINC19791208
REMARK  8 active torsions:
REMARK  status: ('A' for Active; 'I' for Inactive)
REMARK    1  A    between atoms: C_1  and  O_2
REMARK    2  A    between atoms: O_2  and  C_3
REMARK    3  A    between atoms: C_6  and  C_11
REMARK    4  A    between atoms: C_8  and  O_9
REMARK    5  A    between atoms: O_9  and  C_10
REMARK    6  A    between atoms: C_16  and  C_26
REMARK    7  A    between atoms: C_29  and  O_35
REMARK    8  A    between atoms: C_30  and  N_32
REMARK                            x       y       z     vdW  Elec       q    Type
REMARK                         _______ _______ _______ _____ _____    ______ ____
ROOT
ATOM      1  C   UNL     1       4.785  -1.246   1.559  0.00  0.00    +0.032 C 
ATOM      2  C   UNL     1       4.342   0.194   1.308  0.00  0.00    +0.059 C 
ATOM      3  C   UNL     1       2.876   0.222   0.907  0.00  0.00    +0.017 C 
ATOM      4  C   UNL     1       2.018  -0.680   1.408  0.00  0.00    +0.036 C 
ATOM      5  C   UNL     1       0.536  -0.750   1.122  0.00  0.00    +0.136 C 
ATOM      6  N   UNL     1       0.101   0.094   0.029  0.00  0.00    -0.331 N 
ATOM      7  C   UNL     1       0.199   1.480   0.108  0.00  0.00    +0.049 A 
ATOM      8  C   UNL     1      -0.932   2.282   0.141  0.00  0.00    +0.025 A 
ATOM      9  C   UNL     1      -0.791   3.653   0.269  0.00  0.00    +0.002 A 
ATOM     10  C   UNL     1       0.466   4.223   0.368  0.00  0.00    +0.002 A 
ATOM     11  C   UNL     1       1.598   3.426   0.319  0.00  0.00    +0.025 A 
ATOM     12  C   UNL     1       1.458   2.058   0.167  0.00  0.00    +0.052 A 
ATOM     13  N   UNL     1       2.551   1.210   0.033  0.00  0.00    -0.316 N 
ATOM     14  C   UNL     1       2.476  -1.689   2.289  0.00  0.00    +0.163 C 
ATOM     15  O   UNL     1       1.673  -2.483   2.738  0.00  0.00    -0.292 OA
ATOM     16  C   UNL     1       3.916  -1.813   2.687  0.00  0.00    +0.088 C 
ATOM     17  H   UNL     1      -0.316  -0.359  -0.883  0.00  0.00    +0.147 HD
ATOM     18  H   UNL     1       3.174   1.382  -0.858  0.00  0.00    +0.152 HD
ENDROOT
BRANCH   1  22
ATOM     19  C   UNL     1       8.898  -1.315   2.728  0.00  0.00    +0.161 A 
ATOM     20  C   UNL     1       7.977  -0.591   3.467  0.00  0.00    +0.049 A 
ATOM     21  C   UNL     1       6.648  -0.571   3.087  0.00  0.00    +0.008 A 
ATOM     22  C   UNL     1       6.235  -1.271   1.969  0.00  0.00    -0.040 A 
ATOM     23  C   UNL     1       7.149  -2.000   1.230  0.00  0.00    +0.053 A 
ATOM     24  C   UNL     1       8.483  -2.020   1.603  0.00  0.00    +0.162 A 
BRANCH  19  26
ATOM     25  C   UNL     1      10.560  -0.588   4.267  0.00  0.00    +0.277 C 
ATOM     26  O   UNL     1      10.206  -1.336   3.102  0.00  0.00    -0.491 OA
ENDBRANCH  19  26
BRANCH  24  27
ATOM     27  O   UNL     1       9.384  -2.732   0.874  0.00  0.00    -0.491 OA
ATOM     28  C   UNL     1       8.886  -3.432  -0.268  0.00  0.00    +0.277 C 
ENDBRANCH  24  27
ENDBRANCH   1  22
BRANCH   5  29
ATOM     29  C   UNL     1      -0.209  -0.341   2.367  0.00  0.00    -0.020 A 
ATOM     30  C   UNL     1      -0.098   0.952   2.845  0.00  0.00    +0.009 A 
ATOM     31  C   UNL     1      -0.784   1.330   3.982  0.00  0.00    +0.048 A 
ATOM     32  C   UNL     1      -1.575   0.408   4.653  0.00  0.00    +0.147 A 
ATOM     33  C   UNL     1      -1.680  -0.890   4.175  0.00  0.00    +0.168 A 
ATOM     34  C   UNL     1      -0.996  -1.262   3.034  0.00  0.00    +0.042 A 
BRANCH  33  35
ATOM     35  N   UNL     1      -2.522  -1.876   4.888  0.00  0.00    +0.060 N 
ATOM     36  O   UNL     1      -2.613  -3.016   4.469  0.00  0.00    -0.126 OA
ATOM     37  O   UNL     1      -3.124  -1.548   5.895  0.00  0.00    -0.126 OA
ENDBRANCH  33  35
BRANCH  32  38
ATOM     38  O   UNL     1      -2.247   0.776   5.775  0.00  0.00    -0.504 OA
ATOM     39  H   UNL     1      -2.874   0.045   6.306  0.00  0.00    +0.292 HD
ENDBRANCH  32  38
ENDBRANCH   5  29
TORSDOF 6
