REMARK  Name = ZINC35674365
REMARK  15 active torsions:
REMARK  status: ('A' for Active; 'I' for Inactive)
REMARK    1  A    between atoms: C_1  and  C_2
REMARK    2  A    between atoms: C_2  and  C_3
REMARK    3  A    between atoms: C_3  and  C_5
REMARK    4  A    between atoms: C_3  and  N_28
REMARK    5  A    between atoms: C_9  and  O_26
REMARK    6  A    between atoms: C_10  and  O_24
REMARK    7  A    between atoms: N_15  and  C_16
REMARK    8  A    between atoms: C_16  and  C_17
REMARK    9  A    between atoms: C_21  and  C_23
REMARK   10  A    between atoms: O_24  and  C_25
REMARK   11  A    between atoms: O_26  and  C_27
REMARK   12  A    between atoms: C_29  and  C_31
REMARK   13  A    between atoms: C_31  and  C_32
REMARK   14  A    between atoms: C_32  and  C_33
REMARK   15  A    between atoms: C_32  and  C_34
REMARK                            x       y       z     vdW  Elec       q    Type
REMARK                         _______ _______ _______ _____ _____    ______ ____
ROOT
ATOM      1  C   UNL     1       0.836  -1.635   1.386  0.00  0.00    -0.016 C 
ATOM      2  C   UNL     1       1.648  -2.207   0.254  0.00  0.00    -0.052 A 
ATOM      3  C   UNL     1       1.687  -1.514  -0.947  0.00  0.00    +0.051 A 
ATOM      4  C   UNL     1       2.418  -2.004  -2.014  0.00  0.00    +0.162 A 
ATOM      5  C   UNL     1       3.117  -3.200  -1.881  0.00  0.00    +0.162 A 
ATOM      6  C   UNL     1       3.075  -3.888  -0.681  0.00  0.00    +0.053 A 
ATOM      7  C   UNL     1       2.342  -3.391   0.386  0.00  0.00    -0.044 A 
ATOM      8  C   UNL     1       2.331  -4.168   1.678  0.00  0.00    +0.017 C 
ATOM      9  C   UNL     1       1.180  -3.687   2.562  0.00  0.00    -0.073 C 
ATOM     10  N   UNL     1       1.249  -2.222   2.664  0.00  0.00    +0.388 N 
ATOM     11  H   UNL     1       2.195  -1.941   2.874  0.00  0.00    -0.080 HD
ENDROOT
BRANCH   5  12
ATOM     12  O   UNL     1       3.837  -3.691  -2.925  0.00  0.00    -0.491 OA
ATOM     13  C   UNL     1       4.528  -4.924  -2.714  0.00  0.00    +0.277 C 
ENDBRANCH   5  12
BRANCH   4  14
ATOM     14  O   UNL     1       2.454  -1.320  -3.189  0.00  0.00    -0.491 OA
ATOM     15  C   UNL     1       1.712  -0.100  -3.253  0.00  0.00    +0.277 C 
ENDBRANCH   4  14
BRANCH   1  16
ATOM     16  C   UNL     1       1.041  -0.119   1.438  0.00  0.00    +0.063 C 
BRANCH  16  17
ATOM     17  N   UNL     1       0.490   0.490   0.225  0.00  0.00    -0.314 N 
ATOM     18  C   UNL     1      -0.844   0.532   0.038  0.00  0.00    +0.213 C 
ATOM     19  O   UNL     1      -1.591   0.149   0.912  0.00  0.00    -0.276 OA
ATOM     20  H   UNL     1       1.086   0.862  -0.445  0.00  0.00    +0.149 HD
BRANCH  18  21
ATOM     21  C   UNL     1      -1.407   1.057  -1.258  0.00  0.00    +0.098 C 
BRANCH  21  22
ATOM     22  C   UNL     1      -2.931   1.145  -1.154  0.00  0.00    -0.008 C 
ATOM     23  C   UNL     1      -3.310   2.212  -0.124  0.00  0.00    +0.008 C 
ATOM     24  C   UNL     1      -3.515   1.522  -2.517  0.00  0.00    +0.008 C 
ENDBRANCH  21  22
ENDBRANCH  18  21
ENDBRANCH  16  17
BRANCH  16  26
ATOM     25  C   UNL     1       2.736   1.701   1.678  0.00  0.00    +0.005 C 
ATOM     26  C   UNL     1       2.536   0.191   1.531  0.00  0.00    +0.017 C 
ENDBRANCH  16  26
ENDBRANCH   1  16
BRANCH  10  27
ATOM     27  C   UNL     1       0.350  -1.761   3.730  0.00  0.00    -0.042 C 
BRANCH  27  28
ATOM     28  C   UNL     1       0.873  -2.226   5.065  0.00  0.00    -0.064 A 
ATOM     29  C   UNL     1       0.477  -3.448   5.575  0.00  0.00    +0.002 A 
ATOM     30  C   UNL     1       0.958  -3.874   6.799  0.00  0.00    +0.000 A 
ATOM     31  C   UNL     1       1.834  -3.079   7.513  0.00  0.00    +0.003 A 
ATOM     32  C   UNL     1       2.231  -1.857   7.003  0.00  0.00    -0.050 A 
ATOM     33  C   UNL     1       1.754  -1.432   5.776  0.00  0.00    +0.005 A 
ATOM     34  C   UNL     1       3.186  -0.989   7.781  0.00  0.00    +0.044 C 
ENDBRANCH  27  28
ENDBRANCH  10  27
TORSDOF 9
