REMARK  Name = ZINC32072932
REMARK  2 active torsions:
REMARK  status: ('A' for Active; 'I' for Inactive)
REMARK    1  A    between atoms: N_16  and  C_17
REMARK    2  A    between atoms: C_20  and  C_23
REMARK                            x       y       z     vdW  Elec       q    Type
REMARK                         _______ _______ _______ _____ _____    ______ ____
ROOT
ATOM      1  C   UNL     1      -0.017   1.386   0.010  0.00  0.00    +0.000 A 
ATOM      2  C   UNL     1       1.151   2.121   0.003  0.00  0.00    +0.002 A 
ATOM      3  C   UNL     1       2.398   1.516  -0.013  0.00  0.00    +0.023 A 
ATOM      4  C   UNL     1       2.431   0.121  -0.021  0.00  0.00    +0.038 A 
ATOM      5  C   UNL     1       1.239  -0.613  -0.014  0.00  0.00    -0.006 A 
ATOM      6  C   UNL     1       0.002  -0.004   0.002  0.00  0.00    +0.007 A 
ATOM      7  C   UNL     1       1.636  -2.054  -0.028  0.00  0.00    +0.111 C 
ATOM      8  C   UNL     1       1.109  -2.761  -1.275  0.00  0.00    +0.122 C 
ATOM      9  C   UNL     1      -0.335  -3.148  -1.113  0.00  0.00    +0.220 C 
ATOM     10  O   UNL     1      -1.076  -3.068  -2.070  0.00  0.00    -0.275 OA
ATOM     11  N   UNL     1      -0.833  -3.584   0.064  0.00  0.00    -0.270 N 
ATOM     12  C   UNL     1      -0.032  -3.484   1.201  0.00  0.00    +0.133 A 
ATOM     13  C   UNL     1       1.141  -2.772   1.197  0.00  0.00    +0.032 A 
ATOM     14  C   UNL     1       1.700  -2.864   2.463  0.00  0.00    +0.141 A 
ATOM     15  N   UNL     1       0.905  -3.590   3.214  0.00  0.00    -0.173 NA
ATOM     16  N   UNL     1      -0.200  -3.985   2.441  0.00  0.00    -0.218 N 
ATOM     17  C   UNL     1       3.149  -2.029  -0.043  0.00  0.00    +0.233 C 
ATOM     18  O   UNL     1       3.887  -2.991  -0.058  0.00  0.00    -0.274 OA
ATOM     19  N   UNL     1       3.521  -0.732  -0.036  0.00  0.00    -0.284 N 
ATOM     20  H   UNL     1      -1.726  -3.958   0.118  0.00  0.00    +0.156 HD
ATOM     21  H   UNL     1       4.444  -0.432  -0.042  0.00  0.00    +0.155 HD
ENDROOT
BRANCH  16  22
ATOM     22  C   UNL     1      -1.282  -4.760   2.880  0.00  0.00    +0.067 A 
ATOM     23  C   UNL     1      -2.556  -4.521   2.384  0.00  0.00    +0.028 A 
ATOM     24  C   UNL     1      -3.620  -5.287   2.818  0.00  0.00    +0.014 A 
ATOM     25  C   UNL     1      -3.417  -6.291   3.747  0.00  0.00    +0.055 A 
ATOM     26  C   UNL     1      -2.149  -6.531   4.244  0.00  0.00    +0.014 A 
ATOM     27  C   UNL     1      -1.080  -5.773   3.809  0.00  0.00    +0.028 A 
BRANCH  25  28
ATOM     28  C   UNL     1      -4.580  -7.124   4.220  0.00  0.00    +0.417 C 
ATOM     29  F   UNL     1      -4.721  -8.242   3.389  0.00  0.00    -0.166 F 
ATOM     30  F   UNL     1      -4.349  -7.546   5.533  0.00  0.00    -0.166 F 
ATOM     31  F   UNL     1      -5.751  -6.359   4.175  0.00  0.00    -0.166 F 
ENDBRANCH  25  28
ENDBRANCH  16  22
TORSDOF 2
