REMARK  Name = ZINC02758283
REMARK  8 active torsions:
REMARK  status: ('A' for Active; 'I' for Inactive)
REMARK    1  A    between atoms: C_1  and  C_2
REMARK    2  A    between atoms: C_2  and  C_3
REMARK    3  A    between atoms: C_3  and  O_4
REMARK    4  A    between atoms: O_4  and  C_5
REMARK    5  A    between atoms: C_5  and  C_7
REMARK    6  A    between atoms: C_8  and  C_36
REMARK    7  A    between atoms: C_12  and  C_14
REMARK    8  A    between atoms: C_26  and  C_29
REMARK                            x       y       z     vdW  Elec       q    Type
REMARK                         _______ _______ _______ _____ _____    ______ ____
ROOT
ATOM      1  C   UNL     1      -0.034   1.701   2.398  0.00  0.00    +0.065 C 
ATOM      2  C   UNL     1      -0.722   1.556   1.252  0.00  0.00    +0.016 C 
ATOM      3  N   UNL     1      -2.052   1.867   1.199  0.00  0.00    -0.321 N 
ATOM      4  C   UNL     1      -2.798   1.934   2.347  0.00  0.00    +0.016 C 
ATOM      5  C   UNL     1      -2.197   2.092   3.545  0.00  0.00    +0.024 C 
ATOM      6  C   UNL     1      -0.697   2.208   3.645  0.00  0.00    +0.092 C 
ATOM      7  C   UNL     1      -2.949   2.152   4.732  0.00  0.00    +0.162 C 
ATOM      8  O   UNL     1      -2.378   2.305   5.793  0.00  0.00    -0.292 OA
ATOM      9  C   UNL     1      -4.448   2.030   4.711  0.00  0.00    +0.088 C 
ATOM     10  C   UNL     1      -4.862   1.181   3.504  0.00  0.00    +0.032 C 
ATOM     11  C   UNL     1      -4.299   1.830   2.238  0.00  0.00    +0.059 C 
ATOM     12  C   UNL     1      -0.021   1.052   0.017  0.00  0.00    +0.061 C 
ATOM     13  H   UNL     1      -2.532   2.065   0.229  0.00  0.00    +0.152 HD
ENDROOT
BRANCH   6  14
ATOM     14  C   UNL     1      -0.325   3.654   3.851  0.00  0.00    -0.032 A 
ATOM     15  C   UNL     1      -0.643   4.592   2.887  0.00  0.00    +0.008 A 
ATOM     16  C   UNL     1      -0.308   5.920   3.074  0.00  0.00    +0.050 A 
ATOM     17  C   UNL     1       0.357   6.312   4.224  0.00  0.00    +0.166 A 
ATOM     18  C   UNL     1       0.683   5.366   5.193  0.00  0.00    +0.167 A 
ATOM     19  C   UNL     1       0.339   4.038   5.001  0.00  0.00    +0.054 A 
ATOM     20  O   UNL     1       1.328   5.995   6.218  0.00  0.00    -0.453 OA
ATOM     21  C   UNL     1       1.033   7.395   6.056  0.00  0.00    +0.466 C 
ATOM     22  O   UNL     1       0.799   7.534   4.642  0.00  0.00    -0.453 OA
ENDBRANCH   6  14
BRANCH  10  23
ATOM     23  C   UNL     1      -6.366   1.123   3.418  0.00  0.00    -0.043 A 
ATOM     24  C   UNL     1      -7.095   2.289   3.275  0.00  0.00    +0.005 A 
ATOM     25  C   UNL     1      -8.473   2.236   3.190  0.00  0.00    +0.020 A 
ATOM     26  C   UNL     1      -9.124   1.017   3.259  0.00  0.00    +0.041 A 
ATOM     27  C   UNL     1      -8.395  -0.149   3.408  0.00  0.00    +0.020 A 
ATOM     28  C   UNL     1      -7.016  -0.095   3.487  0.00  0.00    +0.005 A 
ATOM     29 CL   UNL     1     -10.856   0.951   3.160  0.00  0.00    -0.084 Cl
ENDBRANCH  10  23
BRANCH   1  30
ATOM     30  C   UNL     1       1.341   1.372   2.428  0.00  0.00    +0.338 C 
ATOM     31  O   UNL     1       1.915   1.063   1.401  0.00  0.00    -0.245 OA
BRANCH  30  32
ATOM     32  O   UNL     1       2.017   1.400   3.596  0.00  0.00    -0.461 OA
BRANCH  32  33
ATOM     33  C   UNL     1       3.403   1.056   3.552  0.00  0.00    +0.232 C 
BRANCH  33  35
ATOM     34  C   UNL     1       5.479   0.775   4.914  0.00  0.00    +0.007 C 
ATOM     35  C   UNL     1       3.994   1.144   4.960  0.00  0.00    +0.038 C 
ENDBRANCH  33  35
ENDBRANCH  32  33
ENDBRANCH  30  32
ENDBRANCH   1  30
TORSDOF 6
