REMARK  Name = ZINC38785168
REMARK  12 active torsions:
REMARK  status: ('A' for Active; 'I' for Inactive)
REMARK    1  A    between atoms: C_1  and  C_2
REMARK    2  A    between atoms: C_2  and  C_3
REMARK    3  A    between atoms: C_3  and  C_4
REMARK    4  A    between atoms: C_4  and  C_5
REMARK    5  A    between atoms: C_5  and  C_6
REMARK    6  A    between atoms: C_10  and  N_12
REMARK    7  A    between atoms: C_13  and  C_15
REMARK    8  A    between atoms: C_15  and  C_17
REMARK    9  A    between atoms: C_15  and  S_18
REMARK   10  A    between atoms: S_18  and  C_19
REMARK   11  A    between atoms: C_19  and  C_20
REMARK   12  A    between atoms: C_25  and  C_30
REMARK                            x       y       z     vdW  Elec       q    Type
REMARK                         _______ _______ _______ _____ _____    ______ ____
ROOT
ATOM      1  S   UNL     1       8.089  -7.587  -3.375  0.00  0.00    -0.140 S 
ENDROOT
BRANCH   1   2
ATOM      2  C   UNL     1       6.809  -7.592  -2.090  0.00  0.00    +0.134 C 
ATOM      3  C   UNL     1       6.384  -9.032  -1.799  0.00  0.00    +0.029 C 
BRANCH   2   5
ATOM      4  N   UNL     1       4.809  -6.259  -1.704  0.00  0.00    -0.185 NA
ATOM      5  C   UNL     1       5.616  -6.803  -2.567  0.00  0.00    +0.261 C 
ATOM      6  O   UNL     1       5.386  -6.662  -3.888  0.00  0.00    -0.270 OA
BRANCH   4  10
ATOM      7  C   UNL     1       1.476  -4.051  -2.532  0.00  0.00    +0.154 C 
ATOM      8  N   UNL     1       2.244  -4.572  -3.685  0.00  0.00    -0.253 N 
ATOM      9  N   UNL     1       3.360  -5.311  -3.362  0.00  0.00    -0.159 NA
ATOM     10  C   UNL     1       3.729  -5.545  -2.136  0.00  0.00    +0.209 C 
ATOM     11  S   UNL     1       2.492  -4.714  -1.149  0.00  0.00    -0.061 S 
ATOM     12  H   UNL     1       1.980  -4.406  -4.603  0.00  0.00    +0.169 HD
BRANCH   7  13
ATOM     13  C   UNL     1       1.455  -2.521  -2.524  0.00  0.00    +0.035 C 
BRANCH  13  14
ATOM     14  C   UNL     1       0.739  -2.027  -1.265  0.00  0.00    +0.003 C 
BRANCH  14  15
ATOM     15  C   UNL     1       0.718  -0.497  -1.257  0.00  0.00    -0.000 C 
BRANCH  15  17
ATOM     16  C   UNL     1      -0.019   1.526   0.010  0.00  0.00    +0.004 C 
ATOM     17  C   UNL     1       0.002  -0.004   0.002  0.00  0.00    -0.003 C 
ENDBRANCH  15  17
ENDBRANCH  14  15
ENDBRANCH  13  14
ENDBRANCH   7  13
ENDBRANCH   4  10
ENDBRANCH   2   5
ENDBRANCH   1   2
BRANCH   1  18
ATOM     18  C   UNL     1       9.493  -8.433  -2.598  0.00  0.00    +0.143 C 
BRANCH  18  19
ATOM     19  C   UNL     1      10.642  -8.498  -3.571  0.00  0.00    +0.133 C 
ATOM     20  N   UNL     1      10.482  -7.967  -4.760  0.00  0.00    -0.160 NA
ATOM     21  C   UNL     1      11.443  -7.976  -5.689  0.00  0.00    +0.272 C 
ATOM     22  O   UNL     1      11.261  -7.473  -6.786  0.00  0.00    -0.268 OA
ATOM     23  C   UNL     1      12.743  -8.620  -5.344  0.00  0.00    +0.075 C 
ATOM     24  C   UNL     1      13.865  -8.749  -6.126  0.00  0.00    -0.015 C 
ATOM     25  C   UNL     1      15.054  -9.454  -5.514  0.00  0.00    +0.112 C 
ATOM     26  S   UNL     1      14.426  -9.870  -3.837  0.00  0.00    -0.100 S 
ATOM     27  C   UNL     1      12.799  -9.178  -3.985  0.00  0.00    +0.112 C 
ATOM     28  N   UNL     1      11.762  -9.084  -3.182  0.00  0.00    -0.227 NA
BRANCH  24  29
ATOM     29  C   UNL     1      13.908  -8.228  -7.493  0.00  0.00    -0.020 A 
ATOM     30  C   UNL     1      13.068  -8.765  -8.480  0.00  0.00    +0.008 A 
ATOM     31  C   UNL     1      13.116  -8.267  -9.763  0.00  0.00    +0.001 A 
ATOM     32  C   UNL     1      13.988  -7.240 -10.081  0.00  0.00    +0.000 A 
ATOM     33  C   UNL     1      14.822  -6.703  -9.113  0.00  0.00    +0.001 A 
ATOM     34  C   UNL     1      14.785  -7.184  -7.823  0.00  0.00    +0.008 A 
ENDBRANCH  24  29
ENDBRANCH  18  19
ENDBRANCH   1  18
TORSDOF 10
