REMARK  Name = ZINC30943322
REMARK  11 active torsions:
REMARK  status: ('A' for Active; 'I' for Inactive)
REMARK    1  A    between atoms: C_1  and  C_2
REMARK    2  A    between atoms: C_2  and  C_3
REMARK    3  A    between atoms: C_3  and  C_4
REMARK    4  A    between atoms: C_4  and  O_5
REMARK    5  A    between atoms: O_5  and  C_6
REMARK    6  A    between atoms: C_6  and  C_8
REMARK    7  A    between atoms: C_11  and  N_14
REMARK    8  A    between atoms: C_15  and  C_17
REMARK    9  A    between atoms: N_22  and  C_24
REMARK   10  A    between atoms: C_24  and  C_25
REMARK   11  A    between atoms: C_28  and  C_31
REMARK                            x       y       z     vdW  Elec       q    Type
REMARK                         _______ _______ _______ _____ _____    ______ ____
ROOT
ATOM      1  N   UNL     1      -2.061   5.814  -0.824  0.00  0.00    -0.285 N 
ATOM      2  C   UNL     1      -1.309   5.112   0.046  0.00  0.00    +0.218 C 
ATOM      3  O   UNL     1      -0.625   5.693   0.862  0.00  0.00    -0.275 OA
ATOM      4  H   UNL     1      -2.614   5.292  -1.619  0.00  0.00    +0.155 HD
ENDROOT
BRANCH   2   5
ATOM      5  C   UNL     1      -1.317   3.606   0.006  0.00  0.00    +0.059 C 
ATOM      6  C   UNL     1      -0.836   3.128  -1.367  0.00  0.00    +0.009 C 
ATOM      7  C   UNL     1      -0.790   1.598  -1.380  0.00  0.00    -0.018 C 
ATOM      8  C   UNL     1       0.130   1.111  -0.258  0.00  0.00    -0.078 C 
ATOM      9  N   UNL     1      -0.374   1.592   1.034  0.00  0.00    +0.383 N 
ATOM     10  C   UNL     1      -0.382   3.060   1.087  0.00  0.00    -0.066 C 
ATOM     11  H   UNL     1      -1.413   1.247   1.138  0.00  0.00    -0.081 HD
BRANCH   9  12
ATOM     12  C   UNL     1       0.405   1.030   2.146  0.00  0.00    -0.043 C 
BRANCH  12  13
ATOM     13  C   UNL     1       1.814   1.560   2.090  0.00  0.00    -0.064 A 
ATOM     14  C   UNL     1       2.782   0.876   1.378  0.00  0.00    +0.002 A 
ATOM     15  C   UNL     1       4.074   1.365   1.324  0.00  0.00    +0.003 A 
ATOM     16  C   UNL     1       4.400   2.532   1.990  0.00  0.00    -0.050 A 
ATOM     17  C   UNL     1       3.434   3.212   2.706  0.00  0.00    +0.003 A 
ATOM     18  C   UNL     1       2.141   2.726   2.757  0.00  0.00    +0.002 A 
ATOM     19  C   UNL     1       5.810   3.062   1.933  0.00  0.00    +0.044 C 
ENDBRANCH  12  13
ENDBRANCH   9  12
ENDBRANCH   2   5
BRANCH   1  23
ATOM     20  C   UNL     1      -2.295   9.960  -0.503  0.00  0.00    +0.059 A 
ATOM     21  C   UNL     1      -2.348   9.351  -1.760  0.00  0.00    +0.017 A 
ATOM     22  C   UNL     1      -2.270   7.980  -1.863  0.00  0.00    +0.024 A 
ATOM     23  C   UNL     1      -2.139   7.202  -0.717  0.00  0.00    +0.033 A 
ATOM     24  C   UNL     1      -2.092   7.804   0.536  0.00  0.00    +0.024 A 
ATOM     25  C   UNL     1      -2.163   9.175   0.646  0.00  0.00    +0.017 A 
BRANCH  20  26
ATOM     26  C   UNL     1      -2.376  11.428  -0.390  0.00  0.00    +0.339 C 
ATOM     27  O   UNL     1      -2.490  12.109  -1.390  0.00  0.00    -0.245 OA
BRANCH  26  28
ATOM     28  O   UNL     1      -2.325  12.014   0.822  0.00  0.00    -0.461 OA
BRANCH  28  29
ATOM     29  C   UNL     1      -2.411  13.463   0.859  0.00  0.00    +0.232 C 
BRANCH  29  30
ATOM     30  C   UNL     1      -2.337  13.943   2.309  0.00  0.00    +0.041 C 
BRANCH  30  32
ATOM     31  C   UNL     1      -2.353  15.949   3.798  0.00  0.00    +0.004 C 
ATOM     32  C   UNL     1      -2.428  15.469   2.347  0.00  0.00    -0.000 C 
ENDBRANCH  30  32
ENDBRANCH  29  30
ENDBRANCH  28  29
ENDBRANCH  26  28
ENDBRANCH  20  26
ENDBRANCH   1  23
TORSDOF 9
