REMARK  Name = ZINC48332940
REMARK  7 active torsions:
REMARK  status: ('A' for Active; 'I' for Inactive)
REMARK    1  A    between atoms: C_1  and  C_2
REMARK    2  A    between atoms: C_6  and  N_9
REMARK    3  A    between atoms: C_7  and  C_8
REMARK    4  A    between atoms: C_13  and  C_15
REMARK    5  A    between atoms: C_15  and  N_16
REMARK    6  A    between atoms: N_16  and  C_17
REMARK    7  A    between atoms: C_17  and  C_21
REMARK                            x       y       z     vdW  Elec       q    Type
REMARK                         _______ _______ _______ _____ _____    ______ ____
ROOT
ATOM      1  N   UNL     1       0.008  -2.759   2.456  0.00  0.00    -0.269 N 
ATOM      2  C   UNL     1      -0.062  -4.104   2.436  0.00  0.00    +0.310 C 
ATOM      3  O   UNL     1      -0.043  -4.698   1.375  0.00  0.00    -0.252 OA
ATOM      4  N   UNL     1      -0.153  -4.792   3.591  0.00  0.00    -0.241 N 
ATOM      5  C   UNL     1      -0.223  -6.138   3.571  0.00  0.00    +0.203 C 
ATOM      6  O   UNL     1      -0.205  -6.730   2.513  0.00  0.00    -0.277 OA
ATOM      7  H   UNL     1       0.079  -2.289   3.302  0.00  0.00    +0.156 HD
ATOM      8  H   UNL     1      -0.168  -4.318   4.438  0.00  0.00    +0.159 HD
ENDROOT
BRANCH   1  14
ATOM      9  C   UNL     1       1.124   1.313  -0.064  0.00  0.00    +0.044 C 
ATOM     10  C   UNL     1       0.511  -0.062   0.007  0.00  0.00    -0.046 A 
ATOM     11  C   UNL     1      -0.082  -0.613  -1.114  0.00  0.00    +0.004 A 
ATOM     12  C   UNL     1      -0.646  -1.874  -1.052  0.00  0.00    +0.002 A 
ATOM     13  C   UNL     1      -0.618  -2.588   0.130  0.00  0.00    +0.023 A 
ATOM     14  C   UNL     1      -0.022  -2.038   1.257  0.00  0.00    +0.038 A 
ATOM     15  C   UNL     1       0.548  -0.773   1.191  0.00  0.00    -0.026 A 
ATOM     16  C   UNL     1       1.200  -0.175   2.410  0.00  0.00    +0.046 C 
ENDBRANCH   1  14
BRANCH   5  17
ATOM     17  C   UNL     1      -0.325  -6.907   4.863  0.00  0.00    +0.016 C 
BRANCH  17  18
ATOM     18  N   UNL     1      -0.387  -8.345   4.573  0.00  0.00    +0.391 N 
ATOM     19  H   UNL     1      -1.151  -8.528   3.940  0.00  0.00    -0.084 HD
ATOM     20  H   UNL     1       0.479  -8.641   4.149  0.00  0.00    -0.084 HD
BRANCH  18  21
ATOM     21  C   UNL     1      -0.599  -9.088   5.823  0.00  0.00    -0.042 C 
ATOM     22  C   UNL     1      -1.331 -10.426   5.628  0.00  0.00    -0.008 C 
ATOM     23  C   UNL     1      -2.643  -9.645   5.808  0.00  0.00    -0.002 C 
ATOM     24  C   UNL     1      -1.830  -8.620   6.617  0.00  0.00    -0.008 C 
BRANCH  21  25
ATOM     25  C   UNL     1       0.651  -9.198   6.657  0.00  0.00    -0.058 A 
ATOM     26  C   UNL     1       1.806  -8.549   6.261  0.00  0.00    +0.003 A 
ATOM     27  C   UNL     1       2.953  -8.649   7.026  0.00  0.00    +0.015 A 
ATOM     28  C   UNL     1       2.945  -9.398   8.188  0.00  0.00    +0.018 A 
ATOM     29  C   UNL     1       1.790 -10.047   8.584  0.00  0.00    +0.015 A 
ATOM     30  C   UNL     1       0.642  -9.943   7.822  0.00  0.00    +0.003 A 
ATOM     31 BR   UNL     1       4.514  -9.536   9.235  0.00  0.00    -0.050 Br
ENDBRANCH  21  25
ENDBRANCH  18  21
ENDBRANCH  17  18
ENDBRANCH   5  17
TORSDOF 5
