REMARK  Name = ZINC00848050
REMARK  10 active torsions:
REMARK  status: ('A' for Active; 'I' for Inactive)
REMARK    1  A    between atoms: C_1  and  C_2
REMARK    2  A    between atoms: C_3  and  C_29
REMARK    3  A    between atoms: C_4  and  C_22
REMARK    4  A    between atoms: C_10  and  C_15
REMARK    5  A    between atoms: C_26  and  O_28
REMARK    6  A    between atoms: C_29  and  O_31
REMARK    7  A    between atoms: O_31  and  C_32
REMARK    8  A    between atoms: C_32  and  C_33
REMARK    9  A    between atoms: C_33  and  C_34
REMARK   10  A    between atoms: C_33  and  C_35
REMARK                            x       y       z     vdW  Elec       q    Type
REMARK                         _______ _______ _______ _____ _____    ______ ____
ROOT
ATOM      1  C   UNL     1      -1.784  10.572  -3.739  0.00  0.00    +0.061 C 
ATOM      2  C   UNL     1      -1.354   9.989  -2.417  0.00  0.00    +0.016 C 
ATOM      3  C   UNL     1      -1.421  10.739  -1.303  0.00  0.00    +0.065 C 
ATOM      4  C   UNL     1      -0.993  10.195   0.028  0.00  0.00    +0.092 C 
ATOM      5  C   UNL     1      -0.927   8.689   0.002  0.00  0.00    +0.024 C 
ATOM      6  C   UNL     1      -0.883   8.021  -1.170  0.00  0.00    +0.016 C 
ATOM      7  N   UNL     1      -0.899   8.701  -2.358  0.00  0.00    -0.321 N 
ATOM      8  C   UNL     1      -0.819   6.514  -1.204  0.00  0.00    +0.059 C 
ATOM      9  C   UNL     1      -0.079   6.003   0.034  0.00  0.00    +0.032 C 
ATOM     10  C   UNL     1      -0.818   6.502   1.281  0.00  0.00    +0.088 C 
ATOM     11  C   UNL     1      -0.908   8.003   1.229  0.00  0.00    +0.162 C 
ATOM     12  O   UNL     1      -0.966   8.633   2.266  0.00  0.00    -0.292 OA
ATOM     13  H   UNL     1      -0.542   8.202  -3.271  0.00  0.00    +0.152 HD
ENDROOT
BRANCH   9  14
ATOM     14  C   UNL     1      -0.059   4.497   0.026  0.00  0.00    -0.043 A 
ATOM     15  C   UNL     1       1.148   3.822   0.012  0.00  0.00    +0.005 A 
ATOM     16  C   UNL     1       1.167   2.440   0.004  0.00  0.00    +0.020 A 
ATOM     17  C   UNL     1      -0.021   1.732   0.012  0.00  0.00    +0.041 A 
ATOM     18  C   UNL     1      -1.229   2.407   0.021  0.00  0.00    +0.020 A 
ATOM     19  C   UNL     1      -1.247   3.789   0.034  0.00  0.00    +0.005 A 
ATOM     20 CL   UNL     1       0.002  -0.004   0.002  0.00  0.00    -0.084 Cl
ENDBRANCH   9  14
BRANCH   4  21
ATOM     21  C   UNL     1       0.367  10.743   0.372  0.00  0.00    -0.032 A 
ATOM     22  C   UNL     1       1.444  10.491  -0.458  0.00  0.00    +0.005 A 
ATOM     23  C   UNL     1       2.694  10.994  -0.146  0.00  0.00    +0.004 A 
ATOM     24  C   UNL     1       2.870  11.749   0.998  0.00  0.00    +0.045 A 
ATOM     25  C   UNL     1       1.792  12.002   1.833  0.00  0.00    +0.117 A 
ATOM     26  C   UNL     1       0.537  11.502   1.514  0.00  0.00    +0.050 A 
BRANCH  25  27
ATOM     27  O   UNL     1       1.962  12.745   2.958  0.00  0.00    -0.507 OA
ATOM     28  H   UNL     1       1.106  12.946   3.620  0.00  0.00    +0.292 HD
ENDBRANCH  25  27
ENDBRANCH   4  21
BRANCH   3  29
ATOM     29  C   UNL     1      -1.904  12.065  -1.388  0.00  0.00    +0.338 C 
ATOM     30  O   UNL     1      -2.254  12.518  -2.462  0.00  0.00    -0.245 OA
BRANCH  29  31
ATOM     31  O   UNL     1      -1.976  12.829  -0.278  0.00  0.00    -0.461 OA
BRANCH  31  32
ATOM     32  C   UNL     1      -2.474  14.160  -0.438  0.00  0.00    +0.235 C 
BRANCH  32  33
ATOM     33  C   UNL     1      -2.482  14.867   0.919  0.00  0.00    +0.020 C 
ATOM     34  C   UNL     1      -1.045  15.029   1.419  0.00  0.00    +0.010 C 
ATOM     35  C   UNL     1      -3.130  16.245   0.772  0.00  0.00    +0.010 C 
ENDBRANCH  32  33
ENDBRANCH  31  32
ENDBRANCH  29  31
ENDBRANCH   3  29
TORSDOF 7
