REMARK  Name = ZINC39711545
REMARK  14 active torsions:
REMARK  status: ('A' for Active; 'I' for Inactive)
REMARK    1  A    between atoms: C_1  and  C_2
REMARK    2  A    between atoms: C_2  and  O_3
REMARK    3  A    between atoms: O_3  and  C_4
REMARK    4  A    between atoms: C_11  and  C_16
REMARK    5  A    between atoms: C_16  and  C_18
REMARK    6  A    between atoms: C_16  and  N_28
REMARK    7  A    between atoms: N_23  and  C_24
REMARK    8  A    between atoms: C_24  and  C_25
REMARK    9  A    between atoms: C_24  and  C_26
REMARK   10  A    between atoms: C_24  and  C_27
REMARK   11  A    between atoms: N_28  and  C_29
REMARK   12  A    between atoms: N_28  and  C_37
REMARK   13  A    between atoms: C_29  and  C_30
REMARK   14  A    between atoms: C_37  and  C_38
REMARK                            x       y       z     vdW  Elec       q    Type
REMARK                         _______ _______ _______ _____ _____    ______ ____
ROOT
ATOM      1  C   UNL     1       0.893  -6.229  -4.908  0.00  0.00    -0.008 C 
ENDROOT
BRANCH   1   9
ATOM      2  C   UNL     1       3.001  -9.150  -0.314  0.00  0.00    +0.121 A 
ATOM      3  C   UNL     1       4.170  -9.487  -1.006  0.00  0.00    +0.047 A 
ATOM      4  C   UNL     1       4.514  -8.910  -2.186  0.00  0.00    +0.027 A 
ATOM      5  C   UNL     1       3.690  -7.930  -2.771  0.00  0.00    +0.041 A 
ATOM      6  N   UNL     1       4.040  -7.372  -3.930  0.00  0.00    -0.285 N 
ATOM      7  C   UNL     1       3.313  -6.446  -4.534  0.00  0.00    +0.223 C 
ATOM      8  O   UNL     1       3.684  -5.974  -5.591  0.00  0.00    -0.275 OA
ATOM      9  C   UNL     1       2.021  -5.978  -3.905  0.00  0.00    +0.088 C 
ATOM     10  C   UNL     1       1.618  -6.610  -2.586  0.00  0.00    -0.006 C 
ATOM     11  C   UNL     1       2.452  -7.554  -2.065  0.00  0.00    -0.004 A 
ATOM     12  C   UNL     1       2.136  -8.218  -0.800  0.00  0.00    +0.055 A 
ATOM     13  H   UNL     1       4.866  -7.658  -4.350  0.00  0.00    +0.155 HD
BRANCH   2  14
ATOM     14  O   UNL     1       2.721  -9.770   0.863  0.00  0.00    -0.492 OA
BRANCH  14  16
ATOM     15  C   UNL     1       3.182 -11.325   2.655  0.00  0.00    +0.048 C 
ATOM     16  C   UNL     1       3.664 -10.739   1.326  0.00  0.00    +0.225 C 
ENDBRANCH  14  16
ENDBRANCH   2  14
ENDBRANCH   1   9
BRANCH   1  17
ATOM     17  C   UNL     1       1.224  -5.536  -6.231  0.00  0.00    +0.205 C 
ATOM     18  N   UNL     1       2.545  -5.959  -6.715  0.00  0.00    -0.152 NA
ATOM     19  N   UNL     1       3.280  -4.971  -6.783  0.00  0.00    -0.070 NA
ATOM     20  N   UNL     1       2.644  -3.794  -6.390  0.00  0.00    -0.179 N 
ATOM     21  N   UNL     1       1.349  -4.077  -6.032  0.00  0.00    -0.183 NA
ATOM     22  H   UNL     1       3.052  -2.914  -6.372  0.00  0.00    +0.191 HD
BRANCH  21  23
ATOM     23  C   UNL     1       1.098  -3.713  -4.631  0.00  0.00    +0.035 C 
ATOM     24  C   UNL     1       2.420  -3.704  -3.861  0.00  0.00    +0.029 C 
ATOM     25  C   UNL     1       0.463  -2.322  -4.571  0.00  0.00    +0.029 C 
ATOM     26  C   UNL     1       0.148  -4.735  -4.001  0.00  0.00    +0.029 C 
ENDBRANCH  21  23
ENDBRANCH   1  17
BRANCH   1  27
ATOM     27  N   UNL     1       0.750  -7.673  -5.134  0.00  0.00    +0.392 N 
ATOM     28  H   UNL     1       1.649  -8.067  -5.373  0.00  0.00    -0.080 HD
BRANCH  27  29
ATOM     29  C   UNL     1      -0.194  -7.906  -6.235  0.00  0.00    -0.042 C 
BRANCH  29  30
ATOM     30  C   UNL     1      -1.500  -7.220  -5.929  0.00  0.00    -0.064 A 
ATOM     31  C   UNL     1      -2.448  -7.855  -5.148  0.00  0.00    +0.004 A 
ATOM     32  C   UNL     1      -3.646  -7.227  -4.867  0.00  0.00    +0.038 A 
ATOM     33  C   UNL     1      -3.898  -5.961  -5.368  0.00  0.00    +0.123 A 
ATOM     34  C   UNL     1      -2.948  -5.326  -6.150  0.00  0.00    +0.038 A 
ATOM     35  C   UNL     1      -1.749  -5.954  -6.426  0.00  0.00    +0.004 A 
ATOM     36  F   UNL     1      -5.069  -5.346  -5.094  0.00  0.00    -0.205 F 
ENDBRANCH  29  30
ENDBRANCH  27  29
BRANCH  27  37
ATOM     37  C   UNL     1       0.245  -8.313  -3.912  0.00  0.00    -0.002 C 
BRANCH  37  38
ATOM     38  C   UNL     1       0.286  -9.811  -4.075  0.00  0.00    +0.089 A 
ATOM     39  C   UNL     1       1.276 -10.620  -3.660  0.00  0.00    +0.042 A 
ATOM     40  C   UNL     1       0.904 -11.938  -4.015  0.00  0.00    +0.041 A 
ATOM     41  C   UNL     1      -0.291 -11.854  -4.626  0.00  0.00    +0.195 A 
ATOM     42  O   UNL     1      -0.664 -10.564  -4.654  0.00  0.00    -0.470 OA
ENDBRANCH  37  38
ENDBRANCH  27  37
ENDBRANCH   1  27
TORSDOF 10
