REMARK  Name = ZINC20551183
REMARK  4 active torsions:
REMARK  status: ('A' for Active; 'I' for Inactive)
REMARK    1  A    between atoms: C_1  and  C_2
REMARK    2  A    between atoms: C_2  and  C_4
REMARK    3  A    between atoms: C_2  and  N_13
REMARK    4  A    between atoms: N_16  and  C_17
REMARK                            x       y       z     vdW  Elec       q    Type
REMARK                         _______ _______ _______ _____ _____    ______ ____
ROOT
ATOM      1  N   UNL     1      -0.756   3.044   1.291  0.00  0.00    -0.293 N 
ATOM      2  C   UNL     1       0.302   3.730   1.766  0.00  0.00    +0.304 C 
ATOM      3  O   UNL     1       1.272   3.132   2.191  0.00  0.00    -0.252 OA
ATOM      4  N   UNL     1       0.286   5.077   1.769  0.00  0.00    -0.267 N 
ATOM      5  H   UNL     1      -1.634   3.585   0.906  0.00  0.00    +0.151 HD
ATOM      6  H   UNL     1      -0.549   5.619   1.300  0.00  0.00    +0.156 HD
ENDROOT
BRANCH   4   7
ATOM      7  C   UNL     1       1.333   5.789   2.370  0.00  0.00    +0.070 A 
ATOM      8  C   UNL     1       2.090   5.198   3.372  0.00  0.00    +0.027 A 
ATOM      9  C   UNL     1       3.122   5.902   3.963  0.00  0.00    +0.022 A 
ATOM     10  C   UNL     1       3.403   7.194   3.557  0.00  0.00    +0.044 A 
ATOM     11  C   UNL     1       2.651   7.787   2.558  0.00  0.00    +0.060 A 
ATOM     12  C   UNL     1       1.620   7.086   1.959  0.00  0.00    +0.146 A 
ATOM     13  F   UNL     1       0.890   7.662   0.979  0.00  0.00    -0.203 F 
ATOM     14 CL   UNL     1       4.700   8.075   4.302  0.00  0.00    -0.083 Cl
ENDBRANCH   4   7
BRANCH   1  16
ATOM     15  C   UNL     1      -0.035   1.081   0.023  0.00  0.00    +0.033 C 
ATOM     16  C   UNL     1      -0.739   1.579   1.287  0.00  0.00    +0.102 C 
BRANCH  16  17
ATOM     17  C   UNL     1      -2.154   1.060   1.312  0.00  0.00    -0.024 A 
ATOM     18  C   UNL     1      -3.133   1.689   0.566  0.00  0.00    +0.009 A 
ATOM     19  C   UNL     1      -4.431   1.214   0.582  0.00  0.00    +0.050 A 
ATOM     20  C   UNL     1      -4.755   0.111   1.355  0.00  0.00    +0.166 A 
ATOM     21  C   UNL     1      -3.770  -0.520   2.111  0.00  0.00    +0.167 A 
ATOM     22  C   UNL     1      -2.470  -0.041   2.086  0.00  0.00    +0.055 A 
ATOM     23  O   UNL     1      -4.336  -1.568   2.777  0.00  0.00    -0.453 OA
ATOM     24  C   UNL     1      -5.584  -1.822   2.106  0.00  0.00    +0.466 C 
ATOM     25  O   UNL     1      -5.938  -0.542   1.548  0.00  0.00    -0.453 OA
ENDBRANCH  16  17
ENDBRANCH   1  16
TORSDOF 3
