REMARK  Name = ZINC34835271
REMARK  13 active torsions:
REMARK  status: ('A' for Active; 'I' for Inactive)
REMARK    1  A    between atoms: C_1  and  C_2
REMARK    2  A    between atoms: C_2  and  C_3
REMARK    3  A    between atoms: C_3  and  C_5
REMARK    4  A    between atoms: C_3  and  N_6
REMARK    5  A    between atoms: N_6  and  C_7
REMARK    6  A    between atoms: N_6  and  S_28
REMARK    7  A    between atoms: C_7  and  C_8
REMARK    8  A    between atoms: C_9  and  C_27
REMARK    9  A    between atoms: N_11  and  C_21
REMARK   10  A    between atoms: C_12  and  N_13
REMARK   11  A    between atoms: N_16  and  C_19
REMARK   12  A    between atoms: C_19  and  C_20
REMARK   13  A    between atoms: S_28  and  C_31
REMARK                            x       y       z     vdW  Elec       q    Type
REMARK                         _______ _______ _______ _____ _____    ______ ____
ROOT
ATOM      1  C   UNL     1      -0.891  -2.194   4.531  0.00  0.00    +0.031 A 
ATOM      2  C   UNL     1      -0.160  -2.943   3.605  0.00  0.00    +0.067 A 
ATOM      3  N   UNL     1       1.037  -3.151   4.091  0.00  0.00    -0.170 NA
ATOM      4  N   UNL     1       1.116  -2.540   5.349  0.00  0.00    -0.218 N 
ATOM      5  C   UNL     1      -0.084  -1.949   5.600  0.00  0.00    +0.129 A 
ATOM      6  C   UNL     1      -0.666  -3.431   2.271  0.00  0.00    +0.068 C 
ENDROOT
BRANCH   5   7
ATOM      7  N   UNL     1      -0.424  -1.230   6.742  0.00  0.00    -0.318 N 
ATOM      8  C   UNL     1      -1.386  -1.768   7.716  0.00  0.00    +0.088 C 
ATOM      9  C   UNL     1      -0.765  -1.674   9.114  0.00  0.00    -0.060 C 
ATOM     10  N   UNL     1      -0.352  -0.289   9.372  0.00  0.00    +0.382 N 
ATOM     11  C   UNL     1       0.715   0.097   8.440  0.00  0.00    -0.060 C 
ATOM     12  C   UNL     1       0.172   0.088   7.011  0.00  0.00    +0.088 C 
ATOM     13  H   UNL     1      -1.143   0.326   9.249  0.00  0.00    -0.082 HD
BRANCH  10  14
ATOM     14  C   UNL     1       0.141  -0.176  10.752  0.00  0.00    -0.082 C 
ATOM     15  C   UNL     1       0.455   1.289  11.063  0.00  0.00    -0.017 C 
ENDBRANCH  10  14
ENDBRANCH   5   7
BRANCH   4  16
ATOM     16  C   UNL     1       2.233  -2.534   6.195  0.00  0.00    +0.067 A 
ATOM     17  C   UNL     1       2.755  -1.330   6.650  0.00  0.00    +0.028 A 
ATOM     18  C   UNL     1       3.855  -1.327   7.484  0.00  0.00    +0.002 A 
ATOM     19  C   UNL     1       4.439  -2.522   7.866  0.00  0.00    +0.000 A 
ATOM     20  C   UNL     1       3.922  -3.722   7.414  0.00  0.00    +0.002 A 
ATOM     21  C   UNL     1       2.818  -3.732   6.585  0.00  0.00    +0.028 A 
ENDBRANCH   4  16
BRANCH   1  22
ATOM     22  C   UNL     1      -2.317  -1.733   4.372  0.00  0.00    +0.150 C 
BRANCH  22  23
ATOM     23  N   UNL     1      -2.372  -0.273   4.477  0.00  0.00    -0.169 NA
BRANCH  23  24
ATOM     24  S   UNL     1      -3.232   0.437   5.702  0.00  0.00    +0.061 S 
ATOM     25  O   UNL     1      -3.780  -0.619   6.479  0.00  0.00    -0.153 OA
ATOM     26  O   UNL     1      -2.391   1.437   6.262  0.00  0.00    -0.153 OA
BRANCH  24  27
ATOM     27  C   UNL     1      -4.593   1.278   4.965  0.00  0.00    +0.106 A 
ATOM     28  C   UNL     1      -4.457   2.595   4.566  0.00  0.00    +0.030 A 
ATOM     29  C   UNL     1      -5.525   3.255   3.987  0.00  0.00    +0.022 A 
ATOM     30  C   UNL     1      -6.729   2.598   3.807  0.00  0.00    +0.041 A 
ATOM     31  C   UNL     1      -6.864   1.280   4.206  0.00  0.00    +0.022 A 
ATOM     32  C   UNL     1      -5.794   0.619   4.780  0.00  0.00    +0.030 A 
ATOM     33 CL   UNL     1      -8.070   3.427   3.080  0.00  0.00    -0.084 Cl
ENDBRANCH  24  27
ENDBRANCH  23  24
BRANCH  23  34
ATOM     34  C   UNL     1      -1.668   0.560   3.499  0.00  0.00    +0.077 C 
ATOM     35  C   UNL     1      -0.159   0.347   3.641  0.00  0.00    +0.026 C 
BRANCH  34  37
ATOM     36  C   UNL     1      -3.591   0.498   1.905  0.00  0.00    +0.005 C 
ATOM     37  C   UNL     1      -2.107   0.170   2.087  0.00  0.00    +0.017 C 
ENDBRANCH  34  37
ENDBRANCH  23  34
ENDBRANCH  22  23
ENDBRANCH   1  22
TORSDOF 9
