REMARK  Name = ZINC03228282
REMARK  7 active torsions:
REMARK  status: ('A' for Active; 'I' for Inactive)
REMARK    1  A    between atoms: C_4  and  C_7
REMARK    2  A    between atoms: C_7  and  C_8
REMARK    3  A    between atoms: C_8  and  N_9
REMARK    4  A    between atoms: N_9  and  C_10
REMARK    5  A    between atoms: C_10  and  C_12
REMARK    6  A    between atoms: C_13  and  C_31
REMARK    7  A    between atoms: C_18  and  C_24
REMARK                            x       y       z     vdW  Elec       q    Type
REMARK                         _______ _______ _______ _____ _____    ______ ____
ROOT
ATOM      1  C   UNL     1      -0.972   1.690  -3.551  0.00  0.00    +0.104 A 
ATOM      2  C   UNL     1      -0.576   1.482  -4.893  0.00  0.00    +0.017 A 
ATOM      3  C   UNL     1      -1.479   2.165  -5.694  0.00  0.00    +0.005 A 
ATOM      4  C   UNL     1      -2.396   2.697  -4.833  0.00  0.00    +0.141 A 
ATOM      5  N   UNL     1      -2.103   2.484  -3.545  0.00  0.00    -0.211 N 
ATOM      6  N   UNL     1      -3.105   3.168  -2.842  0.00  0.00    -0.146 NA
ATOM      7  C   UNL     1      -4.010   3.615  -3.696  0.00  0.00    +0.163 A 
ATOM      8  N   UNL     1      -3.649   3.261  -4.953  0.00  0.00    -0.309 N 
ATOM      9  C   UNL     1      -4.259   3.276  -6.282  0.00  0.00    +0.125 C 
ATOM     10  C   UNL     1      -3.483   4.171  -7.229  0.00  0.00    +0.022 C 
ATOM     11  C   UNL     1      -1.978   3.890  -7.333  0.00  0.00    +0.006 C 
ATOM     12  C   UNL     1      -1.547   2.422  -7.188  0.00  0.00    +0.039 C 
ENDROOT
BRANCH   7  13
ATOM     13  C   UNL     1      -5.224   4.381  -3.336  0.00  0.00    +0.019 A 
ATOM     14  C   UNL     1      -5.903   5.115  -4.309  0.00  0.00    +0.013 A 
ATOM     15  C   UNL     1      -7.037   5.822  -3.969  0.00  0.00    +0.021 A 
ATOM     16  C   UNL     1      -7.496   5.814  -2.663  0.00  0.00    +0.041 A 
ATOM     17  C   UNL     1      -6.823   5.092  -1.692  0.00  0.00    +0.021 A 
ATOM     18  C   UNL     1      -5.691   4.376  -2.021  0.00  0.00    +0.013 A 
ATOM     19 CL   UNL     1      -8.921   6.712  -2.241  0.00  0.00    -0.084 Cl
ENDBRANCH   7  13
BRANCH   2  20
ATOM     20  C   UNL     1       0.584   0.684  -5.355  0.00  0.00    -0.015 A 
ATOM     21  C   UNL     1       1.644   1.306  -6.013  0.00  0.00    +0.008 A 
ATOM     22  C   UNL     1       2.724   0.558  -6.436  0.00  0.00    +0.001 A 
ATOM     23  C   UNL     1       2.750  -0.808  -6.220  0.00  0.00    +0.000 A 
ATOM     24  C   UNL     1       1.698  -1.431  -5.573  0.00  0.00    +0.001 A 
ATOM     25  C   UNL     1       0.616  -0.693  -5.140  0.00  0.00    +0.008 A 
ENDBRANCH   2  20
BRANCH   1  26
ATOM     26  C   UNL     1      -0.319   1.178  -2.411  0.00  0.00    +0.099 C 
ATOM     27  S   UNL     1       1.078   0.206  -2.589  0.00  0.00    -0.033 S 
BRANCH  26  28
ATOM     28  N   UNL     1      -0.796   1.454  -1.181  0.00  0.00    -0.336 N 
ATOM     29  H   UNL     1      -1.588   2.005  -1.079  0.00  0.00    +0.147 HD
BRANCH  28  30
ATOM     30  C   UNL     1      -0.117   0.922   0.004  0.00  0.00    +0.106 C 
BRANCH  30  31
ATOM     31  C   UNL     1      -0.856   1.380   1.263  0.00  0.00    +0.054 C 
BRANCH  31  35
ATOM     32  C   UNL     1       1.122  -0.172   4.717  0.00  0.00    +0.000 A 
ATOM     33  C   UNL     1       1.489   1.059   4.205  0.00  0.00    +0.000 A 
ATOM     34  C   UNL     1       0.849   1.561   3.087  0.00  0.00    +0.004 A 
ATOM     35  C   UNL     1      -0.158   0.833   2.482  0.00  0.00    -0.046 A 
ATOM     36  C   UNL     1      -0.529  -0.395   2.997  0.00  0.00    +0.004 A 
ATOM     37  C   UNL     1       0.115  -0.900   4.112  0.00  0.00    +0.000 A 
ENDBRANCH  31  35
ENDBRANCH  30  31
ENDBRANCH  28  30
ENDBRANCH  26  28
ENDBRANCH   1  26
TORSDOF 7
