REMARK  Name = ZINC51585387
REMARK  3 active torsions:
REMARK  status: ('A' for Active; 'I' for Inactive)
REMARK    1  A    between atoms: C_1  and  C_2
REMARK    2  A    between atoms: C_7  and  N_8
REMARK    3  A    between atoms: C_15  and  C_18
REMARK                            x       y       z     vdW  Elec       q    Type
REMARK                         _______ _______ _______ _____ _____    ______ ____
ROOT
ATOM      1  N   UNL     1       0.026  -0.014   2.417  0.00  0.00    -0.269 N 
ATOM      2  C   UNL     1      -0.057  -0.693   3.578  0.00  0.00    +0.307 C 
ATOM      3  O   UNL     1      -0.041  -1.909   3.574  0.00  0.00    -0.252 OA
ATOM      4  N   UNL     1      -0.157  -0.025   4.745  0.00  0.00    -0.280 N 
ATOM      5  C   UNL     1      -0.295   1.440   4.769  0.00  0.00    +0.137 C 
ATOM      6  C   UNL     1       0.749   2.008   5.737  0.00  0.00    +0.180 C 
ATOM      7  O   UNL     1       0.637   1.339   6.995  0.00  0.00    -0.364 OA
ATOM      8  C   UNL     1       0.904  -0.065   6.938  0.00  0.00    +0.221 C 
ATOM      9  C   UNL     1      -0.137  -0.740   6.031  0.00  0.00    +0.150 C 
ATOM     10  H   UNL     1       0.059   0.956   2.424  0.00  0.00    +0.156 HD
ENDROOT
BRANCH   1  17
ATOM     11  C   UNL     1      -0.969   1.292   0.093  0.00  0.00    +0.046 C 
ATOM     12  C   UNL     1      -0.411  -0.107   0.044  0.00  0.00    -0.028 A 
ATOM     13  C   UNL     1      -0.368  -0.791  -1.155  0.00  0.00    +0.020 A 
ATOM     14  C   UNL     1       0.144  -2.076  -1.202  0.00  0.00    +0.018 A 
ATOM     15  C   UNL     1       0.613  -2.679  -0.048  0.00  0.00    +0.017 A 
ATOM     16  C   UNL     1       0.572  -1.999   1.153  0.00  0.00    +0.025 A 
ATOM     17  C   UNL     1       0.064  -0.707   1.202  0.00  0.00    +0.038 A 
ATOM     18 BR   UNL     1       0.201  -3.010  -2.845  0.00  0.00    -0.050 Br
ENDBRANCH   1  17
BRANCH   8  19
ATOM     19  C   UNL     1       0.819  -0.651   8.324  0.00  0.00    +0.241 C 
ATOM     20  O   UNL     1       0.467   0.043   9.255  0.00  0.00    -0.273 OA
ATOM     21  N   UNL     1       1.134  -1.945   8.529  0.00  0.00    -0.327 N 
ATOM     22  H   UNL     1       1.415  -2.499   7.784  0.00  0.00    +0.145 HD
ATOM     23  H   UNL     1       1.079  -2.322   9.421  0.00  0.00    +0.145 HD
ENDBRANCH   8  19
TORSDOF 2
