REMARK  Name = ZINC26509141
REMARK  7 active torsions:
REMARK  status: ('A' for Active; 'I' for Inactive)
REMARK    1  A    between atoms: C_1  and  C_2
REMARK    2  A    between atoms: C_2  and  C_3
REMARK    3  A    between atoms: C_2  and  C_4
REMARK    4  A    between atoms: C_11  and  C_13
REMARK    5  A    between atoms: C_15  and  N_22
REMARK    6  A    between atoms: C_16  and  O_20
REMARK    7  A    between atoms: O_20  and  C_21
REMARK                            x       y       z     vdW  Elec       q    Type
REMARK                         _______ _______ _______ _____ _____    ______ ____
ROOT
ATOM      1  C   UNL     1      -4.846   4.905   0.052  0.00  0.00    -0.043 A 
ATOM      2  C   UNL     1      -5.530   3.699   0.050  0.00  0.00    +0.007 A 
ATOM      3  C   UNL     1      -4.841   2.503   0.040  0.00  0.00    +0.049 A 
ATOM      4  C   UNL     1      -3.455   2.505   0.032  0.00  0.00    +0.156 A 
ATOM      5  C   UNL     1      -2.758   3.724   0.035  0.00  0.00    +0.110 A 
ATOM      6  C   UNL     1      -3.469   4.927   0.045  0.00  0.00    +0.035 A 
ATOM      7  N   UNL     1      -1.435   3.418   0.033  0.00  0.00    -0.209 NA
ATOM      8  C   UNL     1      -1.305   2.115   0.020  0.00  0.00    +0.228 A 
ATOM      9  O   UNL     1      -2.518   1.530   0.023  0.00  0.00    -0.435 OA
ENDROOT
BRANCH   8  10
ATOM     10  C   UNL     1      -0.017   1.393   0.010  0.00  0.00    +0.040 A 
ATOM     11  C   UNL     1       0.002  -0.004   0.002  0.00  0.00    +0.039 A 
ATOM     12  C   UNL     1       1.211  -0.676  -0.013  0.00  0.00    +0.069 A 
ATOM     13  C   UNL     1       2.408   0.041  -0.021  0.00  0.00    +0.159 A 
ATOM     14  C   UNL     1       2.388   1.428  -0.013  0.00  0.00    +0.085 A 
ATOM     15  C   UNL     1       1.184   2.104   0.002  0.00  0.00    +0.037 A 
ATOM     16 CL   UNL     1       3.879   2.316  -0.023  0.00  0.00    -0.080 Cl
BRANCH  12  17
ATOM     17  N   UNL     1       1.234  -2.076  -0.021  0.00  0.00    -0.355 N 
ATOM     18  H   UNL     1       2.196  -2.610  -0.033  0.00  0.00    +0.142 HD
ATOM     19  H   UNL     1       0.291  -2.642  -0.016  0.00  0.00    +0.142 HD
ENDBRANCH  12  17
BRANCH  13  20
ATOM     20  O   UNL     1       3.595  -0.620  -0.036  0.00  0.00    -0.492 OA
ATOM     21  C   UNL     1       4.150  -0.929  -1.316  0.00  0.00    +0.277 C 
ENDBRANCH  13  20
ENDBRANCH   8  10
BRANCH   1  23
ATOM     22  C   UNL     1      -6.502   6.279  -1.181  0.00  0.00    +0.012 C 
ATOM     23  C   UNL     1      -5.615   6.202   0.063  0.00  0.00    +0.013 C 
ATOM     24  C   UNL     1      -6.489   6.266   1.317  0.00  0.00    +0.012 C 
ENDBRANCH   1  23
TORSDOF 4
