REMARK  Name = ZINC55042284
REMARK  4 active torsions:
REMARK  status: ('A' for Active; 'I' for Inactive)
REMARK    1  A    between atoms: C_4  and  C_7
REMARK    2  A    between atoms: C_11  and  N_13
REMARK    3  A    between atoms: N_16  and  C_19
REMARK    4  A    between atoms: C_19  and  C_20
REMARK                            x       y       z     vdW  Elec       q    Type
REMARK                         _______ _______ _______ _____ _____    ______ ____
ROOT
ATOM      1  N   UNL     1       7.179   0.121  -0.056  0.00  0.00    -0.312 N 
ATOM      2  C   UNL     1       8.485  -0.551   0.032  0.00  0.00    +0.122 C 
ATOM      3  C   UNL     1       9.376  -0.034  -1.102  0.00  0.00    +0.104 C 
ATOM      4  N   UNL     1       9.428   1.433  -1.050  0.00  0.00    -0.294 NA
ATOM      5  C   UNL     1       8.101   2.022  -1.273  0.00  0.00    +0.104 C 
ATOM      6  C   UNL     1       7.158   1.589  -0.152  0.00  0.00    +0.122 C 
ENDROOT
BRANCH   1  11
ATOM      7  C   UNL     1       4.337  -1.722  -1.194  0.00  0.00    +0.140 A 
ATOM      8  N   UNL     1       3.710  -2.031  -0.068  0.00  0.00    -0.343 N 
ATOM      9  C   UNL     1       4.191  -1.649   1.107  0.00  0.00    +0.024 A 
ATOM     10  C   UNL     1       5.363  -0.920   1.149  0.00  0.00    +0.012 A 
ATOM     11  C   UNL     1       6.002  -0.609  -0.053  0.00  0.00    +0.128 A 
ATOM     12  N   UNL     1       5.466  -1.028  -1.195  0.00  0.00    -0.214 NA
ATOM     13  C   UNL     1       5.718  -0.597   2.582  0.00  0.00    +0.041 C 
ATOM     14  C   UNL     1       4.418  -0.832   3.382  0.00  0.00    +0.011 C 
ATOM     15  C   UNL     1       3.676  -1.869   2.512  0.00  0.00    +0.054 C 
ATOM     16  H   UNL     1       2.887  -2.543  -0.103  0.00  0.00    +0.167 HD
BRANCH   7  20
ATOM     17  C   UNL     1       2.691  -3.005  -4.899  0.00  0.00    +0.000 A 
ATOM     18  C   UNL     1       3.869  -2.280  -4.882  0.00  0.00    +0.001 A 
ATOM     19  C   UNL     1       4.408  -1.860  -3.683  0.00  0.00    +0.011 A 
ATOM     20  C   UNL     1       3.763  -2.169  -2.486  0.00  0.00    +0.017 A 
ATOM     21  C   UNL     1       2.576  -2.900  -2.509  0.00  0.00    +0.011 A 
ATOM     22  C   UNL     1       2.047  -3.314  -3.714  0.00  0.00    +0.001 A 
ENDBRANCH   7  20
ENDBRANCH   1  11
BRANCH   4  23
ATOM     23  C   UNL     1      10.406   1.959  -2.011  0.00  0.00    +0.137 C 
BRANCH  23  24
ATOM     24  C   UNL     1      10.613   3.431  -1.762  0.00  0.00    +0.031 A 
ATOM     25  C   UNL     1       9.966   4.419  -2.401  0.00  0.00    +0.032 A 
ATOM     26  C   UNL     1      10.467   5.682  -1.854  0.00  0.00    -0.000 A 
ATOM     27  C   UNL     1      10.188   7.027  -2.107  0.00  0.00    +0.010 A 
ATOM     28  C   UNL     1      10.845   7.999  -1.406  0.00  0.00    +0.001 A 
ATOM     29  C   UNL     1      11.789   7.660  -0.446  0.00  0.00    +0.002 A 
ATOM     30  C   UNL     1      12.079   6.340  -0.181  0.00  0.00    +0.026 A 
ATOM     31  C   UNL     1      11.422   5.334  -0.882  0.00  0.00    +0.047 A 
ATOM     32  N   UNL     1      11.483   3.959  -0.847  0.00  0.00    -0.357 N 
ATOM     33  H   UNL     1      12.058   3.441  -0.263  0.00  0.00    +0.166 HD
ENDBRANCH  23  24
ENDBRANCH   4  23
TORSDOF 4
