REMARK  Name = ZINC02863461
REMARK  7 active torsions:
REMARK  status: ('A' for Active; 'I' for Inactive)
REMARK    1  A    between atoms: C_1  and  C_2
REMARK    2  A    between atoms: C_2  and  C_3
REMARK    3  A    between atoms: C_2  and  C_4
REMARK    4  A    between atoms: C_2  and  C_5
REMARK    5  A    between atoms: N_7  and  C_8
REMARK    6  A    between atoms: C_8  and  C_22
REMARK    7  A    between atoms: N_11  and  C_15
REMARK                            x       y       z     vdW  Elec       q    Type
REMARK                         _______ _______ _______ _____ _____    ______ ____
ROOT
ATOM      1  C   UNL     1       1.437   1.773  -0.014  0.00  0.00    +0.278 C 
ATOM      2  C   UNL     1      -0.016   1.343  -0.012  0.00  0.00    +0.279 C 
ATOM      3  O   UNL     1      -0.992   2.062  -0.025  0.00  0.00    -0.270 OA
ATOM      4  N   UNL     1       0.002  -0.004   0.002  0.00  0.00    -0.191 N 
ATOM      5  C   UNL     1       1.252  -0.480   0.009  0.00  0.00    +0.315 C 
ATOM      6  O   UNL     1       1.524  -1.665   0.022  0.00  0.00    -0.252 OA
ATOM      7  N   UNL     1       2.175   0.498   0.000  0.00  0.00    -0.263 N 
ATOM      8  H   UNL     1       3.139   0.386   0.002  0.00  0.00    +0.153 HD
ENDROOT
BRANCH   4   9
ATOM      9  C   UNL     1      -1.147  -0.808   0.008  0.00  0.00    +0.046 A 
ATOM     10  C   UNL     1      -1.033  -2.186  -0.111  0.00  0.00    +0.025 A 
ATOM     11  C   UNL     1      -2.166  -2.976  -0.101  0.00  0.00    +0.022 A 
ATOM     12  C   UNL     1      -3.415  -2.393   0.019  0.00  0.00    +0.041 A 
ATOM     13  C   UNL     1      -3.533  -1.019   0.132  0.00  0.00    +0.022 A 
ATOM     14  C   UNL     1      -2.402  -0.226   0.127  0.00  0.00    +0.025 A 
ATOM     15 CL   UNL     1      -4.838  -3.388   0.025  0.00  0.00    -0.084 Cl
ENDBRANCH   4   9
BRANCH   1  18
ATOM     16  C   UNL     1       1.082   3.709   1.422  0.00  0.00    +0.220 C 
ATOM     17  O   UNL     1       0.233   4.092   0.645  0.00  0.00    -0.275 OA
ATOM     18  N   UNL     1       1.744   2.560   1.183  0.00  0.00    -0.279 N 
ATOM     19  H   UNL     1       2.424   2.253   1.804  0.00  0.00    +0.151 HD
BRANCH  16  21
ATOM     20  C   UNL     1       0.513   5.766   2.684  0.00  0.00    +0.020 C 
ATOM     21  C   UNL     1       1.398   4.519   2.653  0.00  0.00    +0.039 C 
ATOM     22  C   UNL     1       1.133   3.673   3.901  0.00  0.00    +0.020 C 
ATOM     23  C   UNL     1       2.869   4.938   2.624  0.00  0.00    +0.020 C 
ENDBRANCH  16  21
ENDBRANCH   1  18
BRANCH   1  24
ATOM     24  C   UNL     1       1.762   2.568  -1.281  0.00  0.00    +0.436 C 
ATOM     25  F   UNL     1       0.952   3.708  -1.336  0.00  0.00    -0.166 F 
ATOM     26  F   UNL     1       3.107   2.952  -1.258  0.00  0.00    -0.166 F 
ATOM     27  F   UNL     1       1.523   1.772  -2.406  0.00  0.00    -0.166 F 
ENDBRANCH   1  24
TORSDOF 4
