REMARK  Name = ZINC33709166
REMARK  9 active torsions:
REMARK  status: ('A' for Active; 'I' for Inactive)
REMARK    1  A    between atoms: C_3  and  C_9
REMARK    2  A    between atoms: C_9  and  O_10
REMARK    3  A    between atoms: O_10  and  N_11
REMARK    4  A    between atoms: N_11  and  C_12
REMARK    5  A    between atoms: C_13  and  C_14
REMARK    6  A    between atoms: N_16  and  N_17
REMARK    7  A    between atoms: C_18  and  C_20
REMARK    8  A    between atoms: C_20  and  O_21
REMARK    9  A    between atoms: O_21  and  C_22
REMARK                            x       y       z     vdW  Elec       q    Type
REMARK                         _______ _______ _______ _____ _____    ______ ____
ROOT
ATOM      1  C   UNL     1       6.802   5.961   0.067  0.00  0.00    +0.254 C 
ATOM      2  O   UNL     1       6.924   4.764  -0.124  0.00  0.00    -0.269 OA
ATOM      3  N   UNL     1       7.893   6.727   0.262  0.00  0.00    -0.232 N 
ATOM      4  H   UNL     1       7.795   7.680   0.414  0.00  0.00    +0.173 HD
ENDROOT
BRANCH   3   5
ATOM      5  N   UNL     1       9.168   6.147   0.246  0.00  0.00    -0.251 N 
ATOM      6  C   UNL     1      10.277   6.926   0.445  0.00  0.00    +0.120 C 
ATOM      7  N   UNL     1      10.148   8.197   0.647  0.00  0.00    -0.387 N 
ATOM      8  H   UNL     1       9.266   5.194   0.095  0.00  0.00    +0.171 HD
ATOM      9  H   UNL     1      10.933   8.748   0.788  0.00  0.00    +0.157 HD
ATOM     10  H   UNL     1       9.265   8.598   0.658  0.00  0.00    +0.157 HD
BRANCH   6  11
ATOM     11  C   UNL     1      11.649   6.302   0.428  0.00  0.00    +0.299 C 
BRANCH  11  12
ATOM     12  O   UNL     1      12.634   7.311   0.657  0.00  0.00    -0.483 OA
BRANCH  12  13
ATOM     13  C   UNL     1      13.934   6.913   0.673  0.00  0.00    +0.139 A 
ATOM     14  C   UNL     1      14.254   5.579   0.467  0.00  0.00    +0.048 A 
ATOM     15  C   UNL     1      15.575   5.176   0.484  0.00  0.00    +0.023 A 
ATOM     16  C   UNL     1      16.580   6.102   0.706  0.00  0.00    +0.043 A 
ATOM     17  C   UNL     1      16.264   7.433   0.912  0.00  0.00    +0.043 A 
ATOM     18  C   UNL     1      14.943   7.841   0.890  0.00  0.00    +0.084 A 
ATOM     19 CL   UNL     1      14.546   9.512   1.142  0.00  0.00    -0.080 Cl
ATOM     20 CL   UNL     1      18.239   5.592   0.727  0.00  0.00    -0.083 Cl
ENDBRANCH  12  13
ENDBRANCH  11  12
ENDBRANCH   6  11
ENDBRANCH   3   5
BRANCH   1  22
ATOM     21  C   UNL     1       4.432   5.805  -0.233  0.00  0.00    +0.113 C 
ATOM     22  C   UNL     1       5.514   6.546   0.082  0.00  0.00    +0.088 C 
BRANCH  21  23
ATOM     23  N   UNL     1       4.590   4.540  -0.726  0.00  0.00    -0.273 N 
ATOM     24  H   UNL     1       5.478   4.209  -0.938  0.00  0.00    +0.193 HD
BRANCH  23  25
ATOM     25  O   UNL     1       3.460   3.712  -0.928  0.00  0.00    -0.270 OA
BRANCH  25  26
ATOM     26  C   UNL     1       3.772   2.418  -1.447  0.00  0.00    +0.229 C 
BRANCH  26  29
ATOM     27  C   UNL     1       0.118   1.467  -1.451  0.00  0.00    +0.020 A 
ATOM     28  C   UNL     1       1.284   2.192  -1.290  0.00  0.00    +0.009 A 
ATOM     29  C   UNL     1       2.501   1.627  -1.622  0.00  0.00    -0.001 A 
ATOM     30  C   UNL     1       2.553   0.335  -2.115  0.00  0.00    +0.048 A 
ATOM     31  C   UNL     1       1.387  -0.391  -2.276  0.00  0.00    +0.040 A 
ATOM     32  C   UNL     1       0.169   0.175  -1.944  0.00  0.00    +0.042 A 
ATOM     33 CL   UNL     1      -1.296  -0.735  -2.146  0.00  0.00    -0.083 Cl
ATOM     34 CL   UNL     1       4.082  -0.374  -2.533  0.00  0.00    -0.083 Cl
ENDBRANCH  26  29
ENDBRANCH  25  26
ENDBRANCH  23  25
ENDBRANCH  21  23
ENDBRANCH   1  22
TORSDOF 9
