REMARK  Name = ZINC32097917
REMARK  7 active torsions:
REMARK  status: ('A' for Active; 'I' for Inactive)
REMARK    1  A    between atoms: C_1  and  C_2
REMARK    2  A    between atoms: C_7  and  S_8
REMARK    3  A    between atoms: S_8  and  N_11
REMARK    4  A    between atoms: N_11  and  C_12
REMARK    5  A    between atoms: N_17  and  C_21
REMARK    6  A    between atoms: C_21  and  C_22
REMARK    7  A    between atoms: C_21  and  C_23
REMARK                            x       y       z     vdW  Elec       q    Type
REMARK                         _______ _______ _______ _____ _____    ______ ____
ROOT
ATOM      1  N   UNL     1      -3.471   1.463   2.027  0.00  0.00    -0.096 NA
ENDROOT
BRANCH   1   2
ATOM      2  C   UNL     1      -3.906   2.737   2.410  0.00  0.00    +0.093 A 
ATOM      3  C   UNL     1      -3.599   3.232   3.668  0.00  0.00    +0.041 A 
ATOM      4  C   UNL     1      -4.056   4.514   3.999  0.00  0.00    +0.040 A 
ATOM      5  C   UNL     1      -3.940   5.359   5.182  0.00  0.00    +0.144 A 
ATOM      6  N   UNL     1      -4.574   6.471   4.937  0.00  0.00    -0.177 NA
ATOM      7  N   UNL     1      -5.120   6.439   3.650  0.00  0.00    -0.244 N 
ATOM      8  C   UNL     1      -4.811   5.242   3.058  0.00  0.00    +0.159 A 
ATOM      9  N   UNL     1      -5.080   4.716   1.871  0.00  0.00    -0.234 NA
ATOM     10  C   UNL     1      -4.659   3.517   1.534  0.00  0.00    +0.139 A 
BRANCH   7  11
ATOM     11  C   UNL     1      -5.900   7.514   3.033  0.00  0.00    +0.103 C 
ATOM     12  C   UNL     1      -7.148   7.787   3.874  0.00  0.00    +0.032 C 
ATOM     13  C   UNL     1      -5.048   8.783   2.957  0.00  0.00    +0.032 C 
ENDBRANCH   7  11
ENDBRANCH   1   2
BRANCH   1  14
ATOM     14  S   UNL     1      -2.786   1.236   0.536  0.00  0.00    +0.092 S 
ATOM     15  O   UNL     1      -3.693   1.778  -0.414  0.00  0.00    -0.148 OA
ATOM     16  O   UNL     1      -2.353  -0.117   0.490  0.00  0.00    -0.148 OA
BRANCH  14  23
ATOM     17  C   UNL     1      -0.381   0.849   2.327  0.00  0.00    +0.046 C 
ATOM     18  C   UNL     1      -0.284   1.978   1.334  0.00  0.00    -0.021 A 
ATOM     19  C   UNL     1       0.853   2.763   1.289  0.00  0.00    +0.043 A 
ATOM     20  C   UNL     1       0.942   3.800   0.377  0.00  0.00    +0.124 A 
ATOM     21  C   UNL     1      -0.109   4.051  -0.490  0.00  0.00    +0.040 A 
ATOM     22  C   UNL     1      -1.244   3.265  -0.443  0.00  0.00    +0.032 A 
ATOM     23  C   UNL     1      -1.334   2.232   0.472  0.00  0.00    +0.113 A 
ATOM     24  F   UNL     1       2.053   4.568   0.332  0.00  0.00    -0.205 F 
ENDBRANCH  14  23
ENDBRANCH   1  14
TORSDOF 4
