REMARK  Name = ZINC16450987
REMARK  9 active torsions:
REMARK  status: ('A' for Active; 'I' for Inactive)
REMARK    1  A    between atoms: C_4  and  C_7
REMARK    2  A    between atoms: N_8  and  C_9
REMARK    3  A    between atoms: C_9  and  C_11
REMARK    4  A    between atoms: C_9  and  C_18
REMARK    5  A    between atoms: C_16  and  O_17
REMARK    6  A    between atoms: C_18  and  C_20
REMARK    7  A    between atoms: C_18  and  N_27
REMARK    8  A    between atoms: C_25  and  O_26
REMARK    9  A    between atoms: C_28  and  C_29
REMARK                            x       y       z     vdW  Elec       q    Type
REMARK                         _______ _______ _______ _____ _____    ______ ____
ROOT
ATOM      1  C   UNL     1       4.986   5.072   1.229  0.00  0.00    +0.141 C 
ENDROOT
BRANCH   1   2
ATOM      2  C   UNL     1       4.927   4.199   2.456  0.00  0.00    +0.018 A 
ATOM      3  C   UNL     1       6.089   3.872   3.127  0.00  0.00    +0.009 A 
ATOM      4  C   UNL     1       6.037   3.070   4.253  0.00  0.00    +0.001 A 
ATOM      5  C   UNL     1       4.821   2.595   4.710  0.00  0.00    +0.004 A 
ATOM      6  C   UNL     1       3.656   2.920   4.042  0.00  0.00    +0.046 A 
ATOM      7  C   UNL     1       3.706   3.728   2.915  0.00  0.00    +0.122 A 
BRANCH   7   8
ATOM      8  O   UNL     1       2.561   4.053   2.260  0.00  0.00    -0.506 OA
ATOM      9  H   UNL     1       1.593   3.679   2.625  0.00  0.00    +0.292 HD
ENDBRANCH   7   8
ENDBRANCH   1   2
BRANCH   1  10
ATOM     10  N   UNL     1       6.246   5.819   1.221  0.00  0.00    -0.381 N 
ATOM     11  C   UNL     1       6.232   7.112   1.227  0.00  0.00    +0.086 C 
ATOM     12  H   UNL     1       7.205   5.279   1.209  0.00  0.00    +0.160 HD
BRANCH  11  13
ATOM     13  C   UNL     1       7.502   7.864   1.219  0.00  0.00    -0.009 A 
ATOM     14  C   UNL     1       8.721   7.182   1.209  0.00  0.00    +0.009 A 
ATOM     15  C   UNL     1       9.904   7.891   1.196  0.00  0.00    +0.001 A 
ATOM     16  C   UNL     1       9.885   9.275   1.203  0.00  0.00    +0.000 A 
ATOM     17  C   UNL     1       8.681   9.957   1.218  0.00  0.00    +0.001 A 
ATOM     18  C   UNL     1       7.491   9.260   1.226  0.00  0.00    +0.009 A 
ENDBRANCH  11  13
ENDBRANCH   1  10
BRANCH   1  19
ATOM     19  C   UNL     1       4.902   4.198  -0.024  0.00  0.00    +0.165 C 
BRANCH  19  20
ATOM     20  C   UNL     1       4.960   5.072  -1.250  0.00  0.00    +0.021 A 
ATOM     21  C   UNL     1       3.792   5.479  -1.865  0.00  0.00    +0.009 A 
ATOM     22  C   UNL     1       3.845   6.284  -2.988  0.00  0.00    +0.001 A 
ATOM     23  C   UNL     1       5.066   6.675  -3.504  0.00  0.00    +0.004 A 
ATOM     24  C   UNL     1       6.237   6.266  -2.897  0.00  0.00    +0.046 A 
ATOM     25  C   UNL     1       6.187   5.462  -1.767  0.00  0.00    +0.122 A 
BRANCH  25  26
ATOM     26  O   UNL     1       7.338   5.058  -1.167  0.00  0.00    -0.506 OA
ATOM     27  H   UNL     1       8.310   5.369  -1.577  0.00  0.00    +0.292 HD
ENDBRANCH  25  26
ENDBRANCH  19  20
BRANCH  19  29
ATOM     28  C   UNL     1       3.655   2.159  -0.022  0.00  0.00    +0.113 C 
ATOM     29  N   UNL     1       3.641   3.452  -0.015  0.00  0.00    -0.281 NA
BRANCH  28  33
ATOM     30  C   UNL     1       0.002  -0.004   0.002  0.00  0.00    +0.000 A 
ATOM     31  C   UNL     1      -0.017   1.379   0.010  0.00  0.00    +0.001 A 
ATOM     32  C   UNL     1       1.167   2.088   0.002  0.00  0.00    +0.009 A 
ATOM     33  C   UNL     1       2.385   1.407  -0.013  0.00  0.00    -0.007 A 
ATOM     34  C   UNL     1       2.397   0.011  -0.020  0.00  0.00    +0.009 A 
ATOM     35  C   UNL     1       1.206  -0.686  -0.013  0.00  0.00    +0.001 A 
ENDBRANCH  28  33
ENDBRANCH  19  29
ENDBRANCH   1  19
TORSDOF 9
