REMARK  Name = ZINC39485518
REMARK  8 active torsions:
REMARK  status: ('A' for Active; 'I' for Inactive)
REMARK    1  A    between atoms: C_1  and  O_2
REMARK    2  A    between atoms: O_2  and  C_3
REMARK    3  A    between atoms: C_6  and  N_9
REMARK    4  A    between atoms: C_11  and  C_23
REMARK    5  A    between atoms: C_13  and  C_16
REMARK    6  A    between atoms: C_23  and  N_24
REMARK    7  A    between atoms: N_24  and  C_25
REMARK    8  A    between atoms: C_25  and  C_26
REMARK                            x       y       z     vdW  Elec       q    Type
REMARK                         _______ _______ _______ _____ _____    ______ ____
ROOT
ATOM      1  N   UNL     1      -4.889  -2.581   0.035  0.00  0.00    -0.266 N 
ATOM      2  C   UNL     1      -5.076  -4.040   0.041  0.00  0.00    +0.127 C 
ATOM      3  C   UNL     1      -6.606  -4.259   0.131  0.00  0.00    +0.014 C 
ATOM      4  C   UNL     1      -7.073  -2.885   0.683  0.00  0.00    +0.107 C 
ATOM      5  N   UNL     1      -6.109  -1.955   0.046  0.00  0.00    -0.232 NA
ATOM      6  H   UNL     1      -6.063  -1.081   0.548  0.00  0.00    +0.145 HD
ENDROOT
BRANCH   4   7
ATOM      7  C   UNL     1      -8.485  -2.582   0.251  0.00  0.00    -0.010 A 
ATOM      8  C   UNL     1      -8.714  -1.822  -0.880  0.00  0.00    +0.006 A 
ATOM      9  C   UNL     1     -10.008  -1.544  -1.277  0.00  0.00    +0.000 A 
ATOM     10  C   UNL     1     -11.075  -2.027  -0.542  0.00  0.00    +0.001 A 
ATOM     11  C   UNL     1     -10.848  -2.787   0.589  0.00  0.00    +0.020 A 
ATOM     12  C   UNL     1      -9.552  -3.070   0.984  0.00  0.00    +0.046 A 
ATOM     13 CL   UNL     1      -9.266  -4.031   2.401  0.00  0.00    -0.083 Cl
ENDBRANCH   4   7
BRANCH   1  17
ATOM     14  C   UNL     1      -1.201  -0.638   0.010  0.00  0.00    +0.120 A 
ATOM     15  C   UNL     1      -2.374   0.102   0.020  0.00  0.00    +0.047 A 
ATOM     16  C   UNL     1      -3.597  -0.541   0.028  0.00  0.00    +0.028 A 
ATOM     17  C   UNL     1      -3.651  -1.928   0.027  0.00  0.00    +0.045 A 
ATOM     18  C   UNL     1      -2.476  -2.668   0.017  0.00  0.00    +0.028 A 
ATOM     19  C   UNL     1      -1.254  -2.024   0.003  0.00  0.00    +0.047 A 
BRANCH  14  21
ATOM     20  C   UNL     1      -0.017   1.425   0.010  0.00  0.00    +0.277 C 
ATOM     21  O   UNL     1       0.002  -0.004   0.002  0.00  0.00    -0.495 OA
ENDBRANCH  14  21
ENDBRANCH   1  17
BRANCH   3  22
ATOM     22  C   UNL     1      -6.944  -5.389   1.106  0.00  0.00    -0.076 C 
BRANCH  22  23
ATOM     23  N   UNL     1      -6.449  -6.663   0.569  0.00  0.00    +0.381 N 
ATOM     24  H   UNL     1      -6.887  -6.845  -0.322  0.00  0.00    -0.086 HD
ATOM     25  H   UNL     1      -5.449  -6.612   0.448  0.00  0.00    -0.086 HD
BRANCH  23  26
ATOM     26  C   UNL     1      -6.774  -7.748   1.505  0.00  0.00    -0.049 C 
BRANCH  26  27
ATOM     27  C   UNL     1      -6.258  -9.076   0.945  0.00  0.00    +0.139 C 
ATOM     28  C   UNL     1      -6.412 -10.184   1.966  0.00  0.00    -0.023 C 
ATOM     29  C   UNL     1      -5.170 -10.601   2.205  0.00  0.00    +0.064 C 
ATOM     30  C   UNL     1      -5.191 -11.726   3.224  0.00  0.00    +0.057 C 
ATOM     31  C   UNL     1      -6.583 -11.641   3.888  0.00  0.00    +0.011 C 
ATOM     32  C   UNL     1      -7.417 -10.958   2.780  0.00  0.00    +0.035 C 
ATOM     33  N   UNL     1      -4.289  -9.882   1.457  0.00  0.00    -0.159 NA
ATOM     34  N   UNL     1      -4.802  -9.022   0.733  0.00  0.00    -0.181 NA
ENDBRANCH  26  27
ENDBRANCH  23  26
ENDBRANCH  22  23
ENDBRANCH   3  22
TORSDOF 7
