REMARK  Name = ZINC14066079
REMARK  12 active torsions:
REMARK  status: ('A' for Active; 'I' for Inactive)
REMARK    1  A    between atoms: C_1  and  C_2
REMARK    2  A    between atoms: C_4  and  C_31
REMARK    3  A    between atoms: C_5  and  N_9
REMARK    4  A    between atoms: C_6  and  C_8
REMARK    5  A    between atoms: C_10  and  C_12
REMARK    6  A    between atoms: C_12  and  N_62
REMARK    7  A    between atoms: C_13  and  N_62
REMARK    8  A    between atoms: C_14  and  C_15
REMARK    9  A    between atoms: C_14  and  N_62
REMARK   10  A    between atoms: N_17  and  C_18
REMARK   11  A    between atoms: C_18  and  C_20
REMARK   12  A    between atoms: C_18  and  C_21
REMARK                            x       y       z     vdW  Elec       q    Type
REMARK                         _______ _______ _______ _____ _____    ______ ____
ROOT
ATOM      1  C   UNL     1       2.882   8.857   3.895  0.00  0.00    +0.019 C 
ENDROOT
BRANCH   1   2
ATOM      2  C   UNL     1       1.745   7.869   3.922  0.00  0.00    +0.197 C 
ATOM      3  O   UNL     1       0.639   8.226   4.270  0.00  0.00    -0.278 OA
ATOM      4  N   UNL     1       1.956   6.588   3.560  0.00  0.00    -0.310 N 
ATOM      5  H   UNL     1       2.840   6.302   3.281  0.00  0.00    +0.149 HD
BRANCH   4   6
ATOM      6  C   UNL     1       0.850   5.627   3.586  0.00  0.00    +0.100 C 
ATOM      7  C   UNL     1       0.067   5.715   2.275  0.00  0.00    +0.033 C 
BRANCH   6   8
ATOM      8  C   UNL     1       1.399   4.234   3.751  0.00  0.00    -0.027 A 
ATOM      9  C   UNL     1       2.558   3.867   3.068  0.00  0.00    +0.006 A 
ATOM     10  C   UNL     1       3.081   2.617   3.196  0.00  0.00    +0.009 A 
ATOM     11  C   UNL     1       2.444   1.678   4.025  0.00  0.00    -0.018 A 
ATOM     12  C   UNL     1       2.953   0.378   4.181  0.00  0.00    +0.008 A 
ATOM     13  C   UNL     1       2.309  -0.504   4.993  0.00  0.00    +0.001 A 
ATOM     14  C   UNL     1       1.147  -0.140   5.671  0.00  0.00    +0.001 A 
ATOM     15  C   UNL     1       0.628   1.112   5.549  0.00  0.00    +0.008 A 
ATOM     16  C   UNL     1       1.265   2.050   4.718  0.00  0.00    -0.018 A 
ATOM     17  C   UNL     1       0.756   3.351   4.563  0.00  0.00    +0.014 A 
ENDBRANCH   6   8
ENDBRANCH   4   6
ENDBRANCH   1   2
BRANCH   1  19
ATOM     18  C   UNL     1       1.433  10.724   3.369  0.00  0.00    -0.095 C 
ATOM     19  N   UNL     1       2.384  10.170   4.356  0.00  0.00    +0.389 N 
ATOM     20  H   UNL     1       1.900  10.047   5.253  0.00  0.00    -0.081 HD
BRANCH  19  21
ATOM     21  C   UNL     1       3.516  11.101   4.545  0.00  0.00    +0.019 C 
BRANCH  21  23
ATOM     22  N   UNL     1       3.865  13.349   5.517  0.00  0.00    -0.287 N 
ATOM     23  C   UNL     1       3.010  12.350   5.220  0.00  0.00    +0.201 C 
ATOM     24  O   UNL     1       1.833  12.457   5.495  0.00  0.00    -0.278 OA
ATOM     25  H   UNL     1       4.813  13.243   5.345  0.00  0.00    +0.155 HD
BRANCH  22  30
ATOM     26  C   UNL     1       1.915  18.175   7.775  0.00  0.00    +0.044 C 
ATOM     27  C   UNL     1       2.433  16.893   7.175  0.00  0.00    -0.050 A 
ATOM     28  C   UNL     1       3.472  16.215   7.787  0.00  0.00    +0.008 A 
ATOM     29  C   UNL     1       3.949  15.040   7.240  0.00  0.00    -0.029 A 
ATOM     30  C   UNL     1       3.384  14.539   6.074  0.00  0.00    +0.039 A 
ATOM     31  C   UNL     1       2.344  15.225   5.460  0.00  0.00    -0.029 A 
ATOM     32  C   UNL     1       1.869  16.397   6.014  0.00  0.00    +0.008 A 
ATOM     33  C   UNL     1       1.732  14.688   4.191  0.00  0.00    +0.045 C 
ATOM     34  C   UNL     1       5.080  14.302   7.907  0.00  0.00    +0.045 C 
ENDBRANCH  22  30
ENDBRANCH  21  23
ENDBRANCH  19  21
ENDBRANCH   1  19
TORSDOF 7
