REMARK  Name = ZINC08950240
REMARK  10 active torsions:
REMARK  status: ('A' for Active; 'I' for Inactive)
REMARK    1  A    between atoms: C_1  and  C_2
REMARK    2  A    between atoms: C_15  and  S_17
REMARK    3  A    between atoms: S_17  and  C_18
REMARK    4  A    between atoms: C_18  and  C_19
REMARK    5  A    between atoms: N_21  and  C_22
REMARK    6  A    between atoms: C_26  and  C_28
REMARK    7  A    between atoms: C_28  and  O_30
REMARK    8  A    between atoms: O_30  and  C_31
REMARK    9  A    between atoms: C_31  and  C_32
REMARK   10  A    between atoms: C_31  and  C_33
REMARK                            x       y       z     vdW  Elec       q    Type
REMARK                         _______ _______ _______ _____ _____    ______ ____
ROOT
ATOM      1  S   UNL     1      -3.349  -2.845  -0.331  0.00  0.00    -0.078 S 
ENDROOT
BRANCH   1  15
ATOM      2  C   UNL     1     -13.233  -5.520  -0.826  0.00  0.00    +0.008 C 
ATOM      3  C   UNL     1     -11.758  -5.335  -0.466  0.00  0.00    -0.009 C 
ATOM      4  C   UNL     1     -10.895  -6.242  -1.348  0.00  0.00    +0.008 C 
ATOM      5  C   UNL     1      -9.455  -6.250  -0.834  0.00  0.00    +0.037 C 
ATOM      6  C   UNL     1      -8.972  -4.809  -0.700  0.00  0.00    -0.023 A 
ATOM      7  C   UNL     1      -9.852  -3.789  -0.650  0.00  0.00    -0.004 A 
ATOM      8  S   UNL     1      -8.858  -2.329  -0.495  0.00  0.00    -0.073 S 
ATOM      9  C   UNL     1      -7.257  -3.096  -0.498  0.00  0.00    +0.117 A 
ATOM     10  C   UNL     1      -7.551  -4.465  -0.620  0.00  0.00    +0.075 A 
ATOM     11  C   UNL     1      -6.423  -5.344  -0.650  0.00  0.00    +0.261 A 
ATOM     12  O   UNL     1      -6.580  -6.549  -0.755  0.00  0.00    -0.267 OA
ATOM     13  N   UNL     1      -5.185  -4.823  -0.567  0.00  0.00    -0.301 N 
ATOM     14  H   UNL     1      -4.417  -5.415  -0.591  0.00  0.00    +0.171 HD
ATOM     15  C   UNL     1      -4.989  -3.478  -0.444  0.00  0.00    +0.170 A 
ATOM     16  N   UNL     1      -6.011  -2.646  -0.415  0.00  0.00    -0.216 NA
ATOM     17  C   UNL     1     -11.347  -3.876  -0.711  0.00  0.00    +0.046 C 
ENDBRANCH   1  15
BRANCH   1  18
ATOM     18  C   UNL     1      -3.703  -1.075  -0.200  0.00  0.00    +0.173 C 
BRANCH  18  19
ATOM     19  C   UNL     1      -2.410  -0.310  -0.089  0.00  0.00    +0.227 C 
ATOM     20  O   UNL     1      -1.352  -0.903  -0.098  0.00  0.00    -0.275 OA
ATOM     21  N   UNL     1      -2.428   1.033   0.020  0.00  0.00    -0.285 N 
ATOM     22  H   UNL     1      -3.273   1.502   0.103  0.00  0.00    +0.155 HD
BRANCH  21  23
ATOM     23  C   UNL     1      -1.227   1.752   0.012  0.00  0.00    +0.034 A 
ATOM     24  C   UNL     1      -0.153   1.304  -0.748  0.00  0.00    +0.023 A 
ATOM     25  C   UNL     1       1.033   2.013  -0.764  0.00  0.00    +0.003 A 
ATOM     26  C   UNL     1       1.161   3.169  -0.021  0.00  0.00    +0.015 A 
ATOM     27  C   UNL     1       0.090   3.626   0.750  0.00  0.00    +0.061 A 
ATOM     28  C   UNL     1      -1.107   2.909   0.765  0.00  0.00    +0.038 A 
BRANCH  27  29
ATOM     29  C   UNL     1       0.224   4.863   1.546  0.00  0.00    +0.339 C 
ATOM     30  O   UNL     1      -0.709   5.258   2.216  0.00  0.00    -0.245 OA
BRANCH  29  31
ATOM     31  O   UNL     1       1.381   5.552   1.529  0.00  0.00    -0.458 OA
BRANCH  31  32
ATOM     32  C   UNL     1       1.442   6.758   2.336  0.00  0.00    +0.171 C 
ATOM     33  C   UNL     1       1.940   6.409   3.739  0.00  0.00    +0.052 C 
ATOM     34  C   UNL     1       2.402   7.758   1.688  0.00  0.00    +0.052 C 
ENDBRANCH  31  32
ENDBRANCH  29  31
ENDBRANCH  27  29
ENDBRANCH  21  23
ENDBRANCH  18  19
ENDBRANCH   1  18
TORSDOF 7
