REMARK  Name = ZINC11023097
REMARK  10 active torsions:
REMARK  status: ('A' for Active; 'I' for Inactive)
REMARK    1  A    between atoms: C_1  and  C_2
REMARK    2  A    between atoms: C_2  and  C_3
REMARK    3  A    between atoms: C_3  and  C_4
REMARK    4  A    between atoms: C_4  and  N_5
REMARK    5  A    between atoms: C_18  and  S_19
REMARK    6  A    between atoms: S_19  and  C_20
REMARK    7  A    between atoms: C_20  and  C_21
REMARK    8  A    between atoms: N_23  and  C_24
REMARK    9  A    between atoms: C_29  and  C_34
REMARK   10  A    between atoms: C_31  and  C_33
REMARK                            x       y       z     vdW  Elec       q    Type
REMARK                         _______ _______ _______ _____ _____    ______ ____
ROOT
ATOM      1  N   UNL     1       1.137   1.914   0.002  0.00  0.00    -0.277 N 
ATOM      2  C   UNL     1      -0.014   1.212   0.009  0.00  0.00    +0.263 A 
ATOM      3  O   UNL     1       0.002  -0.004   0.002  0.00  0.00    -0.267 OA
ATOM      4  C   UNL     1      -1.294   1.945   0.019  0.00  0.00    +0.064 A 
ATOM      5  C   UNL     1      -2.514   1.271   0.034  0.00  0.00    +0.015 A 
ATOM      6  C   UNL     1      -3.690   1.991   0.049  0.00  0.00    +0.001 A 
ATOM      7  C   UNL     1      -3.663   3.377   0.056  0.00  0.00    +0.002 A 
ATOM      8  C   UNL     1      -2.460   4.056   0.047  0.00  0.00    +0.027 A 
ATOM      9  C   UNL     1      -1.268   3.348   0.031  0.00  0.00    +0.064 A 
ATOM     10  N   UNL     1      -0.041   4.008   0.023  0.00  0.00    -0.256 N 
ATOM     11  C   UNL     1       1.129   3.301   0.009  0.00  0.00    +0.240 A 
ATOM     12  N   UNL     1       2.120   4.164   0.004  0.00  0.00    -0.109 NA
ATOM     13  N   UNL     1       1.575   5.453   0.016  0.00  0.00    -0.120 NA
ATOM     14  C   UNL     1       0.269   5.341   0.027  0.00  0.00    +0.198 A 
ENDROOT
BRANCH   1  15
ATOM     15  C   UNL     1       2.416   1.200  -0.015  0.00  0.00    +0.128 C 
BRANCH  15  16
ATOM     16  C   UNL     1       2.848   0.960  -1.462  0.00  0.00    +0.021 C 
BRANCH  16  18
ATOM     17  C   UNL     1       4.616  -0.027  -2.927  0.00  0.00    +0.004 C 
ATOM     18  C   UNL     1       4.184   0.214  -1.479  0.00  0.00    -0.002 C 
ENDBRANCH  16  18
ENDBRANCH  15  16
ENDBRANCH   1  15
BRANCH  14  19
ATOM     19  S   UNL     1      -0.885   6.673   0.046  0.00  0.00    -0.076 S 
BRANCH  19  20
ATOM     20  C   UNL     1       0.159   8.157   0.044  0.00  0.00    +0.173 C 
BRANCH  20  21
ATOM     21  C   UNL     1      -0.715   9.385   0.059  0.00  0.00    +0.224 C 
ATOM     22  O   UNL     1      -1.922   9.271   0.070  0.00  0.00    -0.275 OA
ATOM     23  N   UNL     1      -0.154  10.611   0.060  0.00  0.00    -0.312 N 
ATOM     24  H   UNL     1       0.811  10.703   0.051  0.00  0.00    +0.149 HD
BRANCH  23  25
ATOM     25  C   UNL     1      -1.003  11.805   0.075  0.00  0.00    +0.076 C 
ATOM     26  C   UNL     1      -1.415  12.155  -1.356  0.00  0.00    +0.022 C 
ATOM     27  C   UNL     1      -0.165  12.429  -2.195  0.00  0.00    +0.002 C 
ATOM     28  C   UNL     1       0.611  13.599  -1.586  0.00  0.00    +0.003 C 
ATOM     29  C   UNL     1       1.023  13.249  -0.155  0.00  0.00    -0.009 C 
ATOM     30  C   UNL     1      -0.228  12.975   0.683  0.00  0.00    +0.009 C 
ATOM     31  C   UNL     1       0.184  12.624   2.115  0.00  0.00    +0.009 C 
ATOM     32  C   UNL     1       1.798  14.419   0.454  0.00  0.00    +0.008 C 
ENDBRANCH  23  25
ENDBRANCH  20  21
ENDBRANCH  19  20
ENDBRANCH  14  19
TORSDOF 7
