REMARK  Name = ZINC14984404
REMARK  11 active torsions:
REMARK  status: ('A' for Active; 'I' for Inactive)
REMARK    1  A    between atoms: C_1  and  C_2
REMARK    2  A    between atoms: C_2  and  C_3
REMARK    3  A    between atoms: C_3  and  C_5
REMARK    4  A    between atoms: C_3  and  C_6
REMARK    5  A    between atoms: C_6  and  N_71
REMARK    6  A    between atoms: C_9  and  C_12
REMARK    7  A    between atoms: C_9  and  O_36
REMARK    8  A    between atoms: C_19  and  C_21
REMARK    9  A    between atoms: N_23  and  C_24
REMARK   10  A    between atoms: N_23  and  C_25
REMARK   11  A    between atoms: C_25  and  C_26
REMARK                            x       y       z     vdW  Elec       q    Type
REMARK                         _______ _______ _______ _____ _____    ______ ____
ROOT
ATOM      1  C   UNL     1      -3.429   7.590  -0.513  0.00  0.00    -0.015 A 
ATOM      2  C   UNL     1      -2.080   7.876  -0.676  0.00  0.00    +0.010 A 
ATOM      3  C   UNL     1      -1.137   6.872  -0.646  0.00  0.00    +0.047 A 
ATOM      4  C   UNL     1      -1.536   5.554  -0.451  0.00  0.00    +0.136 A 
ATOM      5  C   UNL     1      -2.905   5.269  -0.286  0.00  0.00    +0.021 A 
ATOM      6  C   UNL     1      -3.844   6.303  -0.320  0.00  0.00    +0.018 A 
ATOM      7  C   UNL     1      -2.989   3.821  -0.104  0.00  0.00    +0.063 A 
ATOM      8  C   UNL     1      -1.713   3.358  -0.171  0.00  0.00    +0.191 A 
ATOM      9  O   UNL     1      -0.865   4.389  -0.370  0.00  0.00    -0.450 OA
ENDROOT
BRANCH   1  12
ATOM     10  C   UNL     1      -4.811  11.140  -0.135  0.00  0.00    -0.076 C 
ATOM     11  C   UNL     1      -3.797   9.997  -0.038  0.00  0.00    +0.021 C 
ATOM     12  C   UNL     1      -4.441   8.706  -0.550  0.00  0.00    +0.088 C 
ATOM     13  C   UNL     1      -4.918   8.916  -1.989  0.00  0.00    +0.021 C 
ATOM     14  C   UNL     1      -5.899  10.091  -2.030  0.00  0.00    -0.076 C 
ATOM     15  N   UNL     1      -5.211  11.308  -1.548  0.00  0.00    +0.380 N 
ATOM     16  H   UNL     1      -4.369  11.462  -2.116  0.00  0.00    -0.082 HD
BRANCH  12  17
ATOM     17  O   UNL     1      -5.555   8.367   0.278  0.00  0.00    -0.384 OA
ATOM     18  H   UNL     1      -6.013   7.558   0.010  0.00  0.00    +0.211 HD
ENDBRANCH  12  17
BRANCH  15  19
ATOM     19  C   UNL     1      -6.102  12.478  -1.685  0.00  0.00    -0.076 C 
BRANCH  19  20
ATOM     20  C   UNL     1      -6.320  12.761  -3.172  0.00  0.00    -0.031 C 
ATOM     21  C   UNL     1      -4.989  13.153  -3.817  0.00  0.00    +0.005 C 
BRANCH  20  23
ATOM     22  C   UNL     1      -7.633  14.107  -4.817  0.00  0.00    +0.004 C 
ATOM     23  C   UNL     1      -7.321  13.907  -3.333  0.00  0.00    -0.002 C 
ENDBRANCH  20  23
ENDBRANCH  19  20
ENDBRANCH  15  19
ENDBRANCH   1  12
BRANCH   8  24
ATOM     24  C   UNL     1      -1.316   1.950  -0.039  0.00  0.00    +0.282 C 
ATOM     25  O   UNL     1      -2.166   1.083   0.038  0.00  0.00    -0.267 OA
ATOM     26  N   UNL     1      -0.011   1.618  -0.004  0.00  0.00    -0.294 N 
ATOM     27  C   UNL     1       1.012   2.667   0.018  0.00  0.00    +0.133 C 
BRANCH  26  28
ATOM     28  C   UNL     1       0.387   0.208   0.005  0.00  0.00    +0.143 C 
BRANCH  28  29
ATOM     29  C   UNL     1       0.604  -0.244   1.426  0.00  0.00    -0.021 A 
ATOM     30  C   UNL     1       0.521   0.651   2.449  0.00  0.00    +0.006 A 
ATOM     31  C   UNL     1       0.712   0.247   3.769  0.00  0.00    +0.002 A 
ATOM     32  C   UNL     1       0.999  -1.048   4.072  0.00  0.00    +0.028 A 
ATOM     33  C   UNL     1       1.099  -2.000   3.043  0.00  0.00    +0.071 A 
ATOM     34  C   UNL     1       0.898  -1.589   1.702  0.00  0.00    +0.005 A 
ATOM     35  C   UNL     1       0.999  -2.544   0.673  0.00  0.00    +0.012 A 
ATOM     36  C   UNL     1       1.289  -3.833   1.016  0.00  0.00    +0.020 A 
ATOM     37  C   UNL     1       1.475  -4.171   2.355  0.00  0.00    +0.111 A 
ATOM     38  N   UNL     1       1.380  -3.279   3.312  0.00  0.00    -0.255 NA
ENDBRANCH  28  29
ENDBRANCH  26  28
ENDBRANCH   8  24
TORSDOF 8
