REMARK  Name = ZINC08843876
REMARK  7 active torsions:
REMARK  status: ('A' for Active; 'I' for Inactive)
REMARK    1  A    between atoms: C_1  and  C_2
REMARK    2  A    between atoms: C_2  and  O_3
REMARK    3  A    between atoms: O_3  and  C_4
REMARK    4  A    between atoms: C_7  and  C_10
REMARK    5  A    between atoms: C_12  and  C_19
REMARK    6  A    between atoms: C_13  and  C_18
REMARK    7  A    between atoms: N_21  and  C_22
REMARK                            x       y       z     vdW  Elec       q    Type
REMARK                         _______ _______ _______ _____ _____    ______ ____
ROOT
ATOM      1  C   UNL     1      -2.099   3.882  -0.187  0.00  0.00    +0.142 C 
ATOM      2  C   UNL     1      -2.758   3.756   1.171  0.00  0.00    +0.056 C 
ATOM      3  C   UNL     1      -3.918   3.072   1.246  0.00  0.00    +0.019 C 
ATOM      4  N   UNL     1      -4.480   2.511   0.133  0.00  0.00    -0.273 N 
ATOM      5  C   UNL     1      -3.941   2.591  -1.090  0.00  0.00    +0.304 C 
ATOM      6  O   UNL     1      -4.514   2.060  -2.021  0.00  0.00    -0.252 OA
ATOM      7  N   UNL     1      -2.784   3.243  -1.323  0.00  0.00    -0.288 N 
ATOM      8  C   UNL     1      -4.607   2.923   2.578  0.00  0.00    +0.061 C 
ATOM      9  H   UNL     1      -5.315   2.028   0.235  0.00  0.00    +0.156 HD
ATOM     10  H   UNL     1      -2.412   3.289  -2.217  0.00  0.00    +0.151 HD
ENDROOT
BRANCH   1  14
ATOM     11  C   UNL     1       1.825   2.214   0.091  0.00  0.00    +0.121 A 
ATOM     12  C   UNL     1       0.760   1.420  -0.309  0.00  0.00    +0.046 A 
ATOM     13  C   UNL     1      -0.507   1.964  -0.404  0.00  0.00    +0.009 A 
ATOM     14  C   UNL     1      -0.715   3.294  -0.089  0.00  0.00    -0.022 A 
ATOM     15  C   UNL     1       0.345   4.086   0.311  0.00  0.00    +0.009 A 
ATOM     16  C   UNL     1       1.614   3.549   0.402  0.00  0.00    +0.046 A 
BRANCH  11  17
ATOM     17  O   UNL     1       3.073   1.683   0.179  0.00  0.00    -0.492 OA
BRANCH  17  19
ATOM     18  C   UNL     1       5.444   1.789   0.637  0.00  0.00    +0.048 C 
ATOM     19  C   UNL     1       4.122   2.558   0.598  0.00  0.00    +0.225 C 
ENDBRANCH  17  19
ENDBRANCH  11  17
ENDBRANCH   1  14
BRANCH   2  20
ATOM     20  C   UNL     1      -2.175   4.337   2.325  0.00  0.00    +0.248 C 
ATOM     21  O   UNL     1      -2.033   5.544   2.393  0.00  0.00    -0.270 OA
ATOM     22  N   UNL     1      -1.777   3.552   3.346  0.00  0.00    -0.282 N 
ATOM     23  H   UNL     1      -1.987   2.605   3.341  0.00  0.00    +0.155 HD
BRANCH  22  24
ATOM     24  C   UNL     1      -1.060   4.104   4.413  0.00  0.00    +0.034 A 
ATOM     25  C   UNL     1      -1.237   5.438   4.755  0.00  0.00    +0.024 A 
ATOM     26  C   UNL     1      -0.531   5.979   5.811  0.00  0.00    +0.017 A 
ATOM     27  C   UNL     1       0.360   5.195   6.523  0.00  0.00    +0.018 A 
ATOM     28  C   UNL     1       0.543   3.867   6.181  0.00  0.00    +0.017 A 
ATOM     29  C   UNL     1      -0.164   3.320   5.129  0.00  0.00    +0.024 A 
ATOM     30 BR   UNL     1       1.330   5.941   7.965  0.00  0.00    -0.050 Br
ENDBRANCH  22  24
ENDBRANCH   2  20
TORSDOF 5
