REMARK  Name = ZINC02914928
REMARK  5 active torsions:
REMARK  status: ('A' for Active; 'I' for Inactive)
REMARK    1  A    between atoms: C_1  and  C_2
REMARK    2  A    between atoms: C_2  and  C_3
REMARK    3  A    between atoms: N_5  and  C_6
REMARK    4  A    between atoms: C_7  and  C_16
REMARK    5  A    between atoms: N_18  and  C_19
REMARK                            x       y       z     vdW  Elec       q    Type
REMARK                         _______ _______ _______ _____ _____    ______ ____
ROOT
ATOM      1  C   UNL     1      -3.727   8.186   0.997  0.00  0.00    +0.084 A 
ATOM      2  C   UNL     1      -3.678   7.388  -0.135  0.00  0.00    +0.069 A 
ATOM      3  C   UNL     1      -3.638   8.053  -1.431  0.00  0.00    -0.023 A 
ATOM      4  C   UNL     1      -3.657   9.401  -1.381  0.00  0.00    -0.004 A 
ATOM      5  S   UNL     1      -3.723   9.791   0.347  0.00  0.00    -0.077 S 
ATOM      6  C   UNL     1      -3.615  10.362  -2.527  0.00  0.00    +0.043 C 
ATOM      7  C   UNL     1      -4.659   9.947  -3.572  0.00  0.00    +0.005 C 
ATOM      8  C   UNL     1      -4.005   8.977  -4.551  0.00  0.00    +0.001 C 
ATOM      9  C   UNL     1      -2.959   8.129  -3.830  0.00  0.00    +0.005 C 
ATOM     10  C   UNL     1      -3.613   7.281  -2.745  0.00  0.00    +0.037 C 
ENDROOT
BRANCH   1  13
ATOM     11  C   UNL     1      -3.812   8.724   3.302  0.00  0.00    +0.217 C 
ATOM     12  O   UNL     1      -3.817   9.902   3.016  0.00  0.00    -0.275 OA
ATOM     13  N   UNL     1      -3.768   7.795   2.326  0.00  0.00    -0.279 N 
ATOM     14  H   UNL     1      -3.764   6.852   2.555  0.00  0.00    +0.155 HD
BRANCH  11  16
ATOM     15  C   UNL     1      -3.903   9.538   5.642  0.00  0.00    +0.013 C 
ATOM     16  C   UNL     1      -3.857   8.298   4.747  0.00  0.00    +0.093 C 
ENDBRANCH  11  16
ENDBRANCH   1  13
BRANCH   2  17
ATOM     17  C   UNL     1      -3.661   5.926  -0.032  0.00  0.00    +0.251 C 
ATOM     18  O   UNL     1      -4.707   5.304  -0.025  0.00  0.00    -0.270 OA
ATOM     19  N   UNL     1      -2.487   5.270   0.054  0.00  0.00    -0.281 N 
ATOM     20  H   UNL     1      -1.657   5.768   0.114  0.00  0.00    +0.155 HD
BRANCH  19  21
ATOM     21  C   UNL     1      -2.466   3.875   0.057  0.00  0.00    +0.041 A 
ATOM     22  C   UNL     1      -3.479   3.165   0.664  0.00  0.00    +0.024 A 
ATOM     23  C   UNL     1      -3.467   1.774   0.673  0.00  0.00    +0.002 A 
ATOM     24  C   UNL     1      -2.458   1.076   0.083  0.00  0.00    +0.008 A 
ATOM     25  C   UNL     1      -1.409   1.761  -0.553  0.00  0.00    -0.016 A 
ATOM     26  C   UNL     1      -1.406   3.178  -0.562  0.00  0.00    +0.003 A 
ATOM     27  C   UNL     1      -0.354   3.861  -1.192  0.00  0.00    +0.010 A 
ATOM     28  C   UNL     1       0.652   3.156  -1.779  0.00  0.00    +0.001 A 
ATOM     29  C   UNL     1       0.653   1.762  -1.765  0.00  0.00    +0.001 A 
ATOM     30  C   UNL     1      -0.351   1.067  -1.164  0.00  0.00    +0.008 A 
ENDBRANCH  19  21
ENDBRANCH   2  17
TORSDOF 4
