REMARK  Name = ZINC36490667
REMARK  12 active torsions:
REMARK  status: ('A' for Active; 'I' for Inactive)
REMARK    1  A    between atoms: C_1  and  C_2
REMARK    2  A    between atoms: C_2  and  C_3
REMARK    3  A    between atoms: C_2  and  C_4
REMARK    4  A    between atoms: C_2  and  N_5
REMARK    5  A    between atoms: C_6  and  C_8
REMARK    6  A    between atoms: C_8  and  C_10
REMARK    7  A    between atoms: C_8  and  N_19
REMARK    8  A    between atoms: C_11  and  O_18
REMARK    9  A    between atoms: C_13  and  O_17
REMARK   10  A    between atoms: C_15  and  O_16
REMARK   11  A    between atoms: N_19  and  C_20
REMARK   12  A    between atoms: C_26  and  C_28
REMARK                            x       y       z     vdW  Elec       q    Type
REMARK                         _______ _______ _______ _____ _____    ______ ____
ROOT
ATOM      1  C   UNL     1       2.699  -1.447  -3.247  0.00  0.00    +0.199 C 
ENDROOT
BRANCH   1   2
ATOM      2  C   UNL     1       2.716  -2.865  -2.740  0.00  0.00    +0.065 A 
ATOM      3  C   UNL     1       3.574  -3.795  -3.309  0.00  0.00    +0.129 A 
ATOM      4  C   UNL     1       3.589  -5.101  -2.842  0.00  0.00    +0.091 A 
ATOM      5  C   UNL     1       2.748  -5.477  -1.806  0.00  0.00    +0.124 A 
ATOM      6  C   UNL     1       1.891  -4.547  -1.236  0.00  0.00    +0.091 A 
ATOM      7  C   UNL     1       1.879  -3.240  -1.700  0.00  0.00    +0.129 A 
BRANCH   7   8
ATOM      8  O   UNL     1       1.042  -2.328  -1.139  0.00  0.00    -0.506 OA
ATOM      9  H   UNL     1       0.194  -2.240  -1.594  0.00  0.00    +0.292 HD
ENDBRANCH   7   8
BRANCH   5  10
ATOM     10  O   UNL     1       2.762  -6.756  -1.349  0.00  0.00    -0.507 OA
ATOM     11  H   UNL     1       3.392  -6.910  -0.630  0.00  0.00    +0.292 HD
ENDBRANCH   5  10
BRANCH   3  12
ATOM     12  O   UNL     1       4.398  -3.427  -4.324  0.00  0.00    -0.506 OA
ATOM     13  H   UNL     1       5.295  -3.203  -4.041  0.00  0.00    +0.292 HD
ENDBRANCH   3  12
ENDBRANCH   1   2
BRANCH   1  15
ATOM     14  N   UNL     1       0.502  -0.667  -2.420  0.00  0.00    -0.309 N 
ATOM     15  C   UNL     1       1.846  -0.599  -2.340  0.00  0.00    +0.239 C 
ATOM     16  O   UNL     1       2.369   0.145  -1.537  0.00  0.00    -0.273 OA
ATOM     17  H   UNL     1       0.085  -1.252  -3.071  0.00  0.00    +0.149 HD
BRANCH  14  19
ATOM     18  C   UNL     1      -0.019   1.625  -1.743  0.00  0.00    +0.031 C 
ATOM     19  C   UNL     1      -0.327   0.142  -1.523  0.00  0.00    +0.026 C 
ATOM     20  C   UNL     1      -0.024  -0.233  -0.071  0.00  0.00    +0.031 C 
ATOM     21  C   UNL     1      -1.805  -0.121  -1.820  0.00  0.00    +0.031 C 
ENDBRANCH  14  19
ENDBRANCH   1  15
BRANCH   1  22
ATOM     22  N   UNL     1       4.066  -0.919  -3.267  0.00  0.00    -0.281 N 
ATOM     23  C   UNL     1       4.567  -0.389  -4.400  0.00  0.00    +0.237 C 
ATOM     24  O   UNL     1       5.736  -0.071  -4.455  0.00  0.00    -0.274 OA
BRANCH  23  25
ATOM     25  C   UNL     1       3.676  -0.194  -5.599  0.00  0.00    +0.159 C 
ATOM     26  C   UNL     1       3.448  -1.540  -6.322  0.00  0.00    +0.041 C 
ATOM     27  C   UNL     1       4.562  -1.515  -7.394  0.00  0.00    +0.098 C 
ATOM     28  C   UNL     1       4.845  -0.044  -7.601  0.00  0.00    +0.214 C 
ATOM     29  O   UNL     1       5.445   0.422  -8.546  0.00  0.00    -0.276 OA
ATOM     30  N   UNL     1       4.333   0.675  -6.584  0.00  0.00    -0.304 N 
ATOM     31  H   UNL     1       4.389   1.640  -6.511  0.00  0.00    +0.149 HD
ENDBRANCH  23  25
BRANCH  22  32
ATOM     32  C   UNL     1       4.887  -0.966  -2.054  0.00  0.00    +0.077 C 
ATOM     33  C   UNL     1       5.293   0.455  -1.657  0.00  0.00    +0.022 C 
ATOM     34  C   UNL     1       6.150   0.405  -0.391  0.00  0.00    +0.002 C 
ATOM     35  C   UNL     1       7.405  -0.428  -0.658  0.00  0.00    +0.000 C 
ATOM     36  C   UNL     1       6.999  -1.849  -1.054  0.00  0.00    +0.002 C 
ATOM     37  C   UNL     1       6.142  -1.799  -2.321  0.00  0.00    +0.022 C 
ENDBRANCH  22  32
ENDBRANCH   1  22
TORSDOF 9
