REMARK  Name = ZINC39670108
REMARK  6 active torsions:
REMARK  status: ('A' for Active; 'I' for Inactive)
REMARK    1  A    between atoms: C_1  and  C_2
REMARK    2  A    between atoms: C_7  and  C_11
REMARK    3  A    between atoms: C_11  and  N_12
REMARK    4  A    between atoms: C_13  and  C_15
REMARK    5  A    between atoms: C_26  and  C_28
REMARK    6  A    between atoms: C_32  and  C_35
REMARK                            x       y       z     vdW  Elec       q    Type
REMARK                         _______ _______ _______ _____ _____    ______ ____
ROOT
ATOM      1  C   UNL     1       3.154  -7.368   3.688  0.00  0.00    +0.100 C 
ATOM      2  C   UNL     1       3.956  -7.708   2.412  0.00  0.00    +0.121 C 
ATOM      3  N   UNL     1       4.849  -8.820   2.816  0.00  0.00    -0.296 N 
ATOM      4  C   UNL     1       4.011  -9.662   3.703  0.00  0.00    +0.115 C 
ATOM      5  C   UNL     1       3.192  -8.653   4.532  0.00  0.00    -0.004 C 
ATOM      6  C   UNL     1       1.778  -9.181   4.756  0.00  0.00    -0.010 C 
ATOM      7  C   UNL     1       1.837 -10.425   5.646  0.00  0.00    -0.082 C 
ATOM      8  N   UNL     1       2.461 -10.082   6.929  0.00  0.00    +0.379 N 
ATOM      9  C   UNL     1       3.852  -9.664   6.714  0.00  0.00    -0.082 C 
ATOM     10  C   UNL     1       3.878  -8.387   5.869  0.00  0.00    -0.010 C 
ATOM     11  C   UNL     1       6.133  -9.019   2.458  0.00  0.00    +0.252 C 
ATOM     12  O   UNL     1       6.737  -9.988   2.876  0.00  0.00    -0.270 OA
ATOM     13  H   UNL     1       1.948  -9.328   7.361  0.00  0.00    -0.086 HD
ATOM     14  H   UNL     1       2.443 -10.887   7.537  0.00  0.00    -0.086 HD
ENDROOT
BRANCH  11  15
ATOM     15  C   UNL     1       6.805  -8.062   1.558  0.00  0.00    +0.107 A 
ATOM     16  C   UNL     1       7.498  -6.967   2.087  0.00  0.00    +0.138 A 
ATOM     17  C   UNL     1       8.125  -6.076   1.237  0.00  0.00    +0.039 A 
ATOM     18  C   UNL     1       8.070  -6.265  -0.132  0.00  0.00    +0.009 A 
ATOM     19  C   UNL     1       7.388  -7.344  -0.663  0.00  0.00    -0.014 A 
ATOM     20  C   UNL     1       6.759  -8.248   0.173  0.00  0.00    +0.141 A 
ATOM     21  F   UNL     1       6.098  -9.305  -0.348  0.00  0.00    -0.204 F 
ATOM     22  C   UNL     1       7.334  -7.538  -2.156  0.00  0.00    +0.047 C 
ATOM     23  F   UNL     1       7.552  -6.782   3.424  0.00  0.00    -0.205 F 
ENDBRANCH  11  15
BRANCH   1  25
ATOM     24  N   UNL     1       1.034  -6.169   4.120  0.00  0.00    -0.309 N 
ATOM     25  C   UNL     1       1.732  -7.014   3.335  0.00  0.00    +0.219 C 
ATOM     26  O   UNL     1       1.216  -7.489   2.346  0.00  0.00    -0.275 OA
ATOM     27  H   UNL     1       1.446  -5.789   4.911  0.00  0.00    +0.149 HD
BRANCH  24  28
ATOM     28  C   UNL     1      -0.348  -5.825   3.777  0.00  0.00    +0.159 C 
BRANCH  28  35
ATOM     29  C   UNL     1      -3.378  -2.419   9.615  0.00  0.00    +0.044 C 
ATOM     30  C   UNL     1      -2.712  -2.654   8.283  0.00  0.00    -0.046 A 
ATOM     31  C   UNL     1      -2.363  -1.565   7.467  0.00  0.00    +0.021 A 
ATOM     32  C   UNL     1      -1.766  -1.772   6.275  0.00  0.00    +0.093 A 
ATOM     33  N   UNL     1      -1.494  -3.039   5.844  0.00  0.00    -0.308 N 
ATOM     34  C   UNL     1      -0.912  -3.524   4.705  0.00  0.00    +0.115 A 
ATOM     35  C   UNL     1      -0.898  -4.871   4.806  0.00  0.00    +0.051 A 
ATOM     36  N   UNL     1      -1.454  -5.217   5.970  0.00  0.00    -0.342 N 
ATOM     37  C   UNL     1      -1.824  -4.121   6.618  0.00  0.00    +0.116 A 
ATOM     38  C   UNL     1      -2.442  -3.921   7.868  0.00  0.00    +0.048 A 
ATOM     39  H   UNL     1      -1.569  -6.125   6.290  0.00  0.00    +0.167 HD
ENDBRANCH  28  35
ENDBRANCH  24  28
ENDBRANCH   1  25
TORSDOF 4
