REMARK  Name = ZINC00643911
REMARK  11 active torsions:
REMARK  status: ('A' for Active; 'I' for Inactive)
REMARK    1  A    between atoms: C_1  and  C_2
REMARK    2  A    between atoms: C_2  and  N_3
REMARK    3  A    between atoms: N_3  and  C_4
REMARK    4  A    between atoms: C_4  and  C_5
REMARK    5  A    between atoms: C_6  and  C_8
REMARK    6  A    between atoms: C_12  and  N_13
REMARK    7  A    between atoms: C_14  and  C_16
REMARK    8  A    between atoms: C_22  and  C_26
REMARK    9  A    between atoms: C_26  and  C_27
REMARK   10  A    between atoms: C_26  and  C_28
REMARK   11  A    between atoms: C_26  and  C_29
REMARK                            x       y       z     vdW  Elec       q    Type
REMARK                         _______ _______ _______ _____ _____    ______ ____
ROOT
ATOM      1  C   UNL     1      -0.973   3.625  -0.113  0.00  0.00    +0.069 A 
ATOM      2  C   UNL     1      -1.037   4.315  -1.391  0.00  0.00    -0.023 A 
ATOM      3  C   UNL     1      -0.896   5.657  -1.327  0.00  0.00    -0.004 A 
ATOM      4  S   UNL     1      -0.667   6.008   0.393  0.00  0.00    -0.077 S 
ATOM      5  C   UNL     1      -0.765   4.396   1.022  0.00  0.00    +0.085 A 
ATOM      6  C   UNL     1      -0.924   6.623  -2.471  0.00  0.00    +0.046 C 
ATOM      7  C   UNL     1      -1.502   5.907  -3.697  0.00  0.00    -0.000 C 
ATOM      8  C   UNL     1      -0.814   4.547  -3.852  0.00  0.00    +0.009 C 
ATOM      9  C   UNL     1      -1.252   3.611  -2.724  0.00  0.00    +0.037 C 
ENDROOT
BRANCH   5  10
ATOM     10  N   UNL     1      -0.662   3.979   2.339  0.00  0.00    -0.273 N 
ATOM     11  C   UNL     1      -0.458   4.882   3.318  0.00  0.00    +0.284 C 
ATOM     12  O   UNL     1      -0.364   6.064   3.046  0.00  0.00    -0.266 OA
ATOM     13  H   UNL     1      -0.737   3.036   2.556  0.00  0.00    +0.156 HD
BRANCH  11  14
ATOM     14  C   UNL     1      -0.349   4.440   4.712  0.00  0.00    +0.189 A 
ATOM     15  C   UNL     1      -0.138   5.245   5.795  0.00  0.00    +0.054 A 
ATOM     16  C   UNL     1      -0.105   4.407   6.920  0.00  0.00    +0.042 A 
ATOM     17  C   UNL     1      -0.287   3.142   6.480  0.00  0.00    +0.196 A 
ATOM     18  O   UNL     1      -0.433   3.166   5.149  0.00  0.00    -0.458 OA
ENDBRANCH  11  14
ENDBRANCH   5  10
BRANCH   7  19
ATOM     19  C   UNL     1      -1.259   6.750  -4.950  0.00  0.00    -0.035 C 
ATOM     20  C   UNL     1      -1.831   6.027  -6.171  0.00  0.00    +0.011 C 
ATOM     21  C   UNL     1      -1.947   8.108  -4.793  0.00  0.00    +0.011 C 
ATOM     22  C   UNL     1       0.245   6.960  -5.139  0.00  0.00    +0.011 C 
ENDBRANCH   7  19
BRANCH   1  24
ATOM     23  N   UNL     1      -0.019   1.385  -0.009  0.00  0.00    -0.298 N 
ATOM     24  C   UNL     1      -1.115   2.169  -0.028  0.00  0.00    +0.249 C 
ATOM     25  O   UNL     1      -2.223   1.668   0.026  0.00  0.00    -0.270 OA
BRANCH  23  27
ATOM     26  C   UNL     1       1.879   2.103  -1.375  0.00  0.00    +0.024 C 
ATOM     27  C   UNL     1       1.314   1.990   0.043  0.00  0.00    +0.104 C 
ENDBRANCH  23  27
BRANCH  23  28
ATOM     28  C   UNL     1      -0.161  -0.073  -0.034  0.00  0.00    +0.104 C 
ATOM     29  C   UNL     1      -0.380  -0.589   1.390  0.00  0.00    +0.024 C 
ENDBRANCH  23  28
ENDBRANCH   1  24
TORSDOF 6
