REMARK  Name = ZINC12530793
REMARK  16 active torsions:
REMARK  status: ('A' for Active; 'I' for Inactive)
REMARK    1  A    between atoms: C_1  and  C_2
REMARK    2  A    between atoms: C_2  and  C_3
REMARK    3  A    between atoms: C_3  and  C_5
REMARK    4  A    between atoms: C_3  and  N_65
REMARK    5  A    between atoms: C_8  and  S_17
REMARK    6  A    between atoms: N_9  and  C_10
REMARK    7  A    between atoms: C_10  and  C_11
REMARK    8  A    between atoms: S_17  and  C_18
REMARK    9  A    between atoms: C_18  and  C_19
REMARK   10  A    between atoms: N_21  and  C_22
REMARK   11  A    between atoms: C_24  and  O_32
REMARK   12  A    between atoms: C_25  and  N_29
REMARK   13  A    between atoms: C_27  and  C_28
REMARK   14  A    between atoms: O_32  and  C_33
REMARK   15  A    between atoms: C_34  and  N_65
REMARK   16  A    between atoms: C_35  and  N_65
REMARK                            x       y       z     vdW  Elec       q    Type
REMARK                         _______ _______ _______ _____ _____    ______ ____
ROOT
ATOM      1  C   UNL     1       0.286   0.250   0.270  0.00  0.00    +0.121 A 
ATOM      2  N   UNL     1       0.504   1.527   0.414  0.00  0.00    -0.135 NA
ATOM      3  N   UNL     1       1.764   1.747   0.538  0.00  0.00    -0.123 NA
ATOM      4  C   UNL     1       2.423   0.614   0.480  0.00  0.00    +0.192 A 
ATOM      5  N   UNL     1       1.500  -0.377   0.307  0.00  0.00    -0.303 N 
ENDROOT
BRANCH   1   6
ATOM      6  C   UNL     1      -1.057  -0.412   0.094  0.00  0.00    +0.000 C 
BRANCH   6   9
ATOM      7  C   UNL     1      -1.468  -0.276   2.476  0.00  0.00    -0.096 C 
ATOM      8  C   UNL     1      -2.219   1.502   1.015  0.00  0.00    -0.096 C 
ATOM      9  N   UNL     1      -2.001   0.045   1.136  0.00  0.00    +0.383 N 
ATOM     10  H   UNL     1      -2.898  -0.438   1.008  0.00  0.00    -0.082 HD
ENDBRANCH   6   9
BRANCH   6  12
ATOM     11  C   UNL     1      -2.974  -0.753  -1.472  0.00  0.00    +0.002 C 
ATOM     12  C   UNL     1      -1.624  -0.057  -1.282  0.00  0.00    -0.011 C 
ENDBRANCH   6  12
ENDBRANCH   1   6
BRANCH   5  13
ATOM     13  C   UNL     1       1.757  -1.815   0.186  0.00  0.00    +0.160 C 
BRANCH  13  14
ATOM     14  C   UNL     1       1.960  -2.169  -1.264  0.00  0.00    -0.028 A 
ATOM     15  C   UNL     1       0.879  -2.537  -2.043  0.00  0.00    +0.005 A 
ATOM     16  C   UNL     1       1.065  -2.857  -3.376  0.00  0.00    +0.000 A 
ATOM     17  C   UNL     1       2.333  -2.819  -3.925  0.00  0.00    +0.000 A 
ATOM     18  C   UNL     1       3.414  -2.456  -3.145  0.00  0.00    +0.000 A 
ATOM     19  C   UNL     1       3.228  -2.131  -1.814  0.00  0.00    +0.005 A 
ENDBRANCH  13  14
ENDBRANCH   5  13
BRANCH   4  20
ATOM     20  S   UNL     1       4.169   0.409   0.602  0.00  0.00    -0.077 S 
BRANCH  20  21
ATOM     21  C   UNL     1       4.673   2.135   0.814  0.00  0.00    +0.173 C 
BRANCH  21  22
ATOM     22  C   UNL     1       6.173   2.208   0.943  0.00  0.00    +0.227 C 
ATOM     23  O   UNL     1       6.836   1.193   0.896  0.00  0.00    -0.275 OA
ATOM     24  N   UNL     1       6.778   3.400   1.110  0.00  0.00    -0.284 N 
ATOM     25  H   UNL     1       6.245   4.206   1.200  0.00  0.00    +0.155 HD
BRANCH  24  26
ATOM     26  C   UNL     1       8.174   3.477   1.155  0.00  0.00    +0.040 A 
ATOM     27  C   UNL     1       8.918   2.377   1.559  0.00  0.00    +0.071 A 
ATOM     28  C   UNL     1      10.301   2.456   1.601  0.00  0.00    +0.152 A 
ATOM     29  C   UNL     1      10.939   3.634   1.239  0.00  0.00    +0.168 A 
ATOM     30  C   UNL     1      10.197   4.728   0.837  0.00  0.00    +0.041 A 
ATOM     31  C   UNL     1       8.819   4.652   0.789  0.00  0.00    -0.027 A 
ATOM     32  C   UNL     1       8.013   5.845   0.344  0.00  0.00    +0.046 C 
BRANCH  29  33
ATOM     33  N   UNL     1      12.416   3.719   1.284  0.00  0.00    +0.060 N 
ATOM     34  O   UNL     1      12.977   4.752   0.967  0.00  0.00    -0.126 OA
ATOM     35  O   UNL     1      13.071   2.755   1.639  0.00  0.00    -0.126 OA
ENDBRANCH  29  33
BRANCH  28  36
ATOM     36  O   UNL     1      11.032   1.381   1.996  0.00  0.00    -0.493 OA
ATOM     37  C   UNL     1      10.309   0.201   2.355  0.00  0.00    +0.277 C 
ENDBRANCH  28  36
ENDBRANCH  24  26
ENDBRANCH  21  22
ENDBRANCH  20  21
ENDBRANCH   4  20
TORSDOF 11
