REMARK  Name = ZINC20206682
REMARK  9 active torsions:
REMARK  status: ('A' for Active; 'I' for Inactive)
REMARK    1  A    between atoms: C_1  and  C_2
REMARK    2  A    between atoms: C_2  and  S_3
REMARK    3  A    between atoms: S_3  and  C_6
REMARK    4  A    between atoms: C_14  and  C_15
REMARK    5  A    between atoms: C_18  and  O_21
REMARK    6  A    between atoms: O_21  and  C_22
REMARK    7  A    between atoms: C_22  and  C_23
REMARK    8  A    between atoms: C_23  and  O_24
REMARK    9  A    between atoms: O_24  and  C_25
REMARK                            x       y       z     vdW  Elec       q    Type
REMARK                         _______ _______ _______ _____ _____    ______ ____
ROOT
ATOM      1  C   UNL     1       3.161   1.862   1.423  0.00  0.00    +0.257 C 
ATOM      2  N   UNL     1       3.091   2.978   2.081  0.00  0.00    -0.174 NA
ATOM      3  S   UNL     1       2.670   2.513   3.636  0.00  0.00    +0.049 S 
ATOM      4  C   UNL     1       2.641   0.859   3.425  0.00  0.00    +0.183 C 
ATOM      5  N   UNL     1       2.424  -0.102   4.295  0.00  0.00    -0.152 NA
ATOM      6  C   UNL     1       2.516  -1.386   3.900  0.00  0.00    +0.273 C 
ATOM      7  O   UNL     1       2.192  -2.294   4.648  0.00  0.00    -0.268 OA
ATOM      8  C   UNL     1       3.022  -1.669   2.534  0.00  0.00    +0.079 C 
ATOM      9  C   UNL     1       3.627  -2.864   2.215  0.00  0.00    +0.024 C 
ATOM     10  C   UNL     1       2.836  -0.587   1.524  0.00  0.00    +0.138 C 
ATOM     11  N   UNL     1       2.635  -0.815   0.255  0.00  0.00    -0.284 NA
ATOM     12  N   UNL     1       2.895   0.708   2.078  0.00  0.00    -0.201 N 
ATOM     13  H   UNL     1       2.599  -1.726  -0.074  0.00  0.00    +0.188 HD
ENDROOT
BRANCH   9  14
ATOM     14  C   UNL     1       3.955  -3.823   3.272  0.00  0.00    -0.024 A 
ATOM     15  C   UNL     1       3.812  -5.199   3.044  0.00  0.00    +0.011 A 
ATOM     16  C   UNL     1       4.121  -6.092   4.038  0.00  0.00    +0.046 A 
ATOM     17  C   UNL     1       4.576  -5.635   5.270  0.00  0.00    +0.121 A 
ATOM     18  C   UNL     1       4.720  -4.271   5.503  0.00  0.00    +0.046 A 
ATOM     19  C   UNL     1       4.420  -3.369   4.515  0.00  0.00    +0.011 A 
BRANCH  17  20
ATOM     20  O   UNL     1       4.880  -6.523   6.250  0.00  0.00    -0.489 OA
BRANCH  20  21
ATOM     21  C   UNL     1       5.342  -5.987   7.491  0.00  0.00    +0.270 C 
BRANCH  21  22
ATOM     22  C   UNL     1       5.632  -7.131   8.464  0.00  0.00    +0.270 C 
BRANCH  22  23
ATOM     23  O   UNL     1       6.716  -7.918   7.966  0.00  0.00    -0.487 OA
BRANCH  23  24
ATOM     24  C   UNL     1       7.103  -8.982   8.717  0.00  0.00    +0.139 A 
ATOM     25  C   UNL     1       6.449  -9.268   9.906  0.00  0.00    +0.047 A 
ATOM     26  C   UNL     1       6.843 -10.351  10.668  0.00  0.00    +0.004 A 
ATOM     27  C   UNL     1       7.890 -11.150  10.246  0.00  0.00    +0.002 A 
ATOM     28  C   UNL     1       8.544 -10.868   9.061  0.00  0.00    +0.023 A 
ATOM     29  C   UNL     1       8.149  -9.789   8.292  0.00  0.00    +0.083 A 
ATOM     30 CL   UNL     1       8.966  -9.440   6.801  0.00  0.00    -0.080 Cl
ENDBRANCH  23  24
ENDBRANCH  22  23
ENDBRANCH  21  22
ENDBRANCH  20  21
ENDBRANCH  17  20
ENDBRANCH   9  14
BRANCH   1  31
ATOM     31  S   UNL     1       3.586   1.850  -0.287  0.00  0.00    +0.029 S 
ATOM     32  O   UNL     1       4.307   0.640  -0.474  0.00  0.00    -0.167 OA
ATOM     33  O   UNL     1       4.208   3.107  -0.515  0.00  0.00    -0.167 OA
BRANCH  31  35
ATOM     34  C   UNL     1       2.247   1.756  -2.671  0.00  0.00    +0.028 C 
ATOM     35  C   UNL     1       1.998   1.772  -1.161  0.00  0.00    +0.172 C 
ENDBRANCH  31  35
ENDBRANCH   1  31
TORSDOF 8
