REMARK  Name = ZINC36051558
REMARK  5 active torsions:
REMARK  status: ('A' for Active; 'I' for Inactive)
REMARK    1  A    between atoms: C_4  and  N_7
REMARK    2  A    between atoms: C_8  and  C_29
REMARK    3  A    between atoms: N_12  and  C_13
REMARK    4  A    between atoms: C_16  and  C_19
REMARK    5  A    between atoms: C_33  and  N_35
REMARK                            x       y       z     vdW  Elec       q    Type
REMARK                         _______ _______ _______ _____ _____    ______ ____
ROOT
ATOM      1  N   UNL     1       3.687  -0.489  -0.076  0.00  0.00    -0.291 N 
ATOM      2  C   UNL     1       3.913  -1.333  -1.048  0.00  0.00    +0.063 A 
ATOM      3  C   UNL     1       5.147  -2.123  -0.975  0.00  0.00    +0.075 A 
ATOM      4  S   UNL     1       5.842  -1.580   0.459  0.00  0.00    -0.061 S 
ATOM      5  C   UNL     1       4.599  -0.392   0.928  0.00  0.00    +0.148 A 
ATOM      6  N   UNL     1       4.569   0.400   2.003  0.00  0.00    -0.295 N 
ATOM      7  H   UNL     1       3.783   0.937   2.189  0.00  0.00    +0.154 HD
ENDROOT
BRANCH   1  11
ATOM      8  C   UNL     1       0.273   1.850  -0.064  0.00  0.00    +0.000 A 
ATOM      9  C   UNL     1       1.512   2.442  -0.241  0.00  0.00    +0.002 A 
ATOM     10  C   UNL     1       2.654   1.670  -0.246  0.00  0.00    +0.026 A 
ATOM     11  C   UNL     1       2.558   0.284  -0.072  0.00  0.00    +0.049 A 
ATOM     12  C   UNL     1       1.301  -0.306   0.107  0.00  0.00    +0.026 A 
ATOM     13  C   UNL     1       0.169   0.479   0.110  0.00  0.00    +0.002 A 
ENDBRANCH   1  11
BRANCH   6  14
ATOM     14  C   UNL     1       5.653   0.454   2.847  0.00  0.00    +0.033 A 
ATOM     15  C   UNL     1       6.950   0.353   2.328  0.00  0.00    +0.024 A 
ATOM     16  C   UNL     1       8.025   0.407   3.164  0.00  0.00    +0.013 A 
ATOM     17  C   UNL     1       7.832   0.562   4.545  0.00  0.00    +0.019 A 
ATOM     18  C   UNL     1       6.533   0.662   5.064  0.00  0.00    +0.013 A 
ATOM     19  C   UNL     1       5.460   0.614   4.225  0.00  0.00    +0.024 A 
BRANCH  17  20
ATOM     20  C   UNL     1       8.993   0.619   5.448  0.00  0.00    +0.164 A 
ATOM     21  N   UNL     1      10.215   0.183   5.192  0.00  0.00    -0.129 NA
ATOM     22  N   UNL     1      10.972   0.405   6.209  0.00  0.00    -0.134 NA
ATOM     23  C   UNL     1      10.285   0.990   7.158  0.00  0.00    +0.134 A 
ATOM     24  N   UNL     1       9.018   1.139   6.713  0.00  0.00    -0.311 N 
ATOM     25  C   UNL     1       7.897   1.723   7.450  0.00  0.00    +0.125 C 
ATOM     26  C   UNL     1       8.430   2.748   8.455  0.00  0.00    +0.022 C 
ATOM     27  C   UNL     1       8.741   2.055   9.781  0.00  0.00    +0.002 C 
ATOM     28  C   UNL     1       9.817   0.991   9.587  0.00  0.00    +0.008 C 
ATOM     29  C   UNL     1      10.795   1.437   8.504  0.00  0.00    +0.076 C 
ENDBRANCH  17  20
ENDBRANCH   6  14
BRANCH   2  30
ATOM     30  C   UNL     1       2.968  -1.485  -2.170  0.00  0.00    +0.002 A 
ATOM     31  C   UNL     1       2.214  -0.389  -2.609  0.00  0.00    +0.010 A 
ATOM     32  C   UNL     1       1.334  -0.540  -3.658  0.00  0.00    +0.003 A 
ATOM     33  C   UNL     1       1.194  -1.770  -4.279  0.00  0.00    +0.033 A 
ATOM     34  C   UNL     1       1.936  -2.859  -3.851  0.00  0.00    +0.127 A 
ATOM     35  C   UNL     1       2.825  -2.724  -2.807  0.00  0.00    +0.042 A 
BRANCH  34  36
ATOM     36  N   UNL     1       1.778  -4.169  -4.522  0.00  0.00    +0.056 N 
ATOM     37  O   UNL     1       0.933  -4.298  -5.523  0.00  0.00    -0.126 OA
ATOM     38  O   UNL     1       2.483  -5.205  -4.117  0.00  0.00    -0.126 OA
ENDBRANCH  34  36
ENDBRANCH   2  30
TORSDOF 5
