REMARK  Name = ZINC39242897
REMARK  5 active torsions:
REMARK  status: ('A' for Active; 'I' for Inactive)
REMARK    1  A    between atoms: C_1  and  C_2
REMARK    2  A    between atoms: C_2  and  C_3
REMARK    3  A    between atoms: C_3  and  C_5
REMARK    4  A    between atoms: C_3  and  S_17
REMARK    5  A    between atoms: S_17  and  C_18
REMARK                            x       y       z     vdW  Elec       q    Type
REMARK                         _______ _______ _______ _____ _____    ______ ____
ROOT
ATOM      1  C   UNL     1       0.813  -0.608   1.178  0.00  0.00    +0.140 C 
ENDROOT
BRANCH   1   2
ATOM      2  C   UNL     1       1.016  -2.099   1.112  0.00  0.00    +0.232 C 
ATOM      3  O   UNL     1       0.285  -2.839   1.736  0.00  0.00    -0.274 OA
ATOM      4  N   UNL     1       2.010  -2.611   0.359  0.00  0.00    -0.264 N 
ATOM      5  C   UNL     1       2.197  -3.987   0.297  0.00  0.00    +0.165 A 
ATOM      6  N   UNL     1       1.507  -4.933   0.895  0.00  0.00    -0.229 NA
ATOM      7  C   UNL     1       1.802  -6.221   0.744  0.00  0.00    +0.054 A 
ATOM      8  C   UNL     1       2.861  -6.473  -0.068  0.00  0.00    +0.014 A 
ATOM      9  S   UNL     1       3.360  -4.849  -0.567  0.00  0.00    -0.057 S 
ATOM     10  C   UNL     1       3.436  -7.800  -0.431  0.00  0.00    +0.044 C 
ATOM     11  C   UNL     1       2.875  -8.849   0.543  0.00  0.00    +0.006 C 
ATOM     12  C   UNL     1       1.360  -8.660   0.654  0.00  0.00    +0.006 C 
ATOM     13  C   UNL     1       1.044  -7.364   1.404  0.00  0.00    +0.056 C 
ATOM     14  H   UNL     1       2.594  -2.020  -0.140  0.00  0.00    +0.157 HD
ENDBRANCH   1   2
BRANCH   1  16
ATOM     15  C   UNL     1      -0.139   1.370  -0.016  0.00  0.00    +0.005 C 
ATOM     16  C   UNL     1      -0.048  -0.157  -0.004  0.00  0.00    +0.020 C 
ENDBRANCH   1  16
BRANCH   1  17
ATOM     17  S   UNL     1      -0.020  -0.179   2.732  0.00  0.00    -0.072 S 
BRANCH  17  18
ATOM     18  C   UNL     1       1.181  -0.535   3.971  0.00  0.00    +0.208 C 
ATOM     19  N   UNL     1       2.336  -1.024   3.590  0.00  0.00    -0.227 NA
ATOM     20  C   UNL     1       3.354  -1.241   4.615  0.00  0.00    +0.252 C 
ATOM     21  C   UNL     1       2.605  -1.508   5.913  0.00  0.00    +0.117 C 
ATOM     22  C   UNL     1       3.171  -2.629   6.438  0.00  0.00    +0.025 A 
ATOM     23  C   UNL     1       2.982  -3.303   7.670  0.00  0.00    +0.012 A 
ATOM     24  C   UNL     1       3.710  -4.432   7.884  0.00  0.00    +0.001 A 
ATOM     25  C   UNL     1       4.626  -4.962   6.970  0.00  0.00    +0.002 A 
ATOM     26  C   UNL     1       4.893  -4.396   5.762  0.00  0.00    +0.026 A 
ATOM     27  C   UNL     1       4.154  -3.163   5.445  0.00  0.00    +0.046 A 
ATOM     28  N   UNL     1       4.208  -2.400   4.396  0.00  0.00    -0.358 N 
ATOM     29  N   UNL     1       1.532  -0.787   6.254  0.00  0.00    -0.147 NA
ATOM     30  N   UNL     1       0.859  -0.282   5.263  0.00  0.00    -0.122 NA
ATOM     31  H   UNL     1       4.731  -2.574   3.598  0.00  0.00    +0.162 HD
ENDBRANCH  17  18
ENDBRANCH   1  17
TORSDOF 4
