REMARK  Name = ZINC18107127
REMARK  3 active torsions:
REMARK  status: ('A' for Active; 'I' for Inactive)
REMARK    1  A    between atoms: N_9  and  N_10
REMARK    2  A    between atoms: N_10  and  C_11
REMARK    3  A    between atoms: C_11  and  N_13
REMARK                            x       y       z     vdW  Elec       q    Type
REMARK                         _______ _______ _______ _____ _____    ______ ____
ROOT
ATOM      1  C   UNL     1       0.115   1.383   1.194  0.00  0.00    +0.017 A 
ATOM      2  C   UNL     1       1.269   2.102   0.955  0.00  0.00    +0.025 A 
ATOM      3  C   UNL     1       2.466   1.439   0.705  0.00  0.00    +0.043 A 
ATOM      4  C   UNL     1       2.479   0.038   0.701  0.00  0.00    +0.029 A 
ATOM      5  C   UNL     1       1.312  -0.678   0.942  0.00  0.00    +0.027 A 
ATOM      6  C   UNL     1       0.133  -0.002   1.188  0.00  0.00    +0.019 A 
ATOM      7 BR   UNL     1      -1.459  -0.969   1.518  0.00  0.00    -0.050 Br
ATOM      8  C   UNL     1       3.875  -0.366   0.410  0.00  0.00    +0.153 C 
ATOM      9  N   UNL     1       4.350  -1.584   0.310  0.00  0.00    -0.175 NA
ATOM     10  C   UNL     1       4.615   0.902   0.258  0.00  0.00    +0.269 C 
ATOM     11  O   UNL     1       5.801   1.014   0.012  0.00  0.00    -0.268 OA
ATOM     12  N   UNL     1       3.746   1.911   0.440  0.00  0.00    -0.280 N 
ATOM     13  H   UNL     1       3.983   2.851   0.391  0.00  0.00    +0.155 HD
ENDROOT
BRANCH   9  14
ATOM     14  N   UNL     1       5.707  -1.786   0.028  0.00  0.00    -0.218 N 
ATOM     15  H   UNL     1       6.296  -1.025  -0.093  0.00  0.00    +0.176 HD
BRANCH  14  16
ATOM     16  C   UNL     1       6.195  -3.038  -0.075  0.00  0.00    +0.153 C 
ATOM     17  S   UNL     1       7.869  -3.286  -0.338  0.00  0.00    -0.017 S 
BRANCH  16  18
ATOM     18  N   UNL     1       5.365  -4.096   0.028  0.00  0.00    -0.307 N 
ATOM     19  C   UNL     1       3.905  -3.914   0.039  0.00  0.00    +0.135 C 
ATOM     20  C   UNL     1       3.292  -4.862  -0.998  0.00  0.00    +0.179 C 
ATOM     21  O   UNL     1       3.769  -6.189  -0.763  0.00  0.00    -0.377 OA
ATOM     22  C   UNL     1       5.183  -6.338  -0.909  0.00  0.00    +0.179 C 
ATOM     23  C   UNL     1       5.893  -5.466   0.127  0.00  0.00    +0.135 C 
ENDBRANCH  16  18
ENDBRANCH  14  16
ENDBRANCH   9  14
TORSDOF 3
