REMARK  Name = ZINC13218239
REMARK  8 active torsions:
REMARK  status: ('A' for Active; 'I' for Inactive)
REMARK    1  A    between atoms: C_1  and  O_2
REMARK    2  A    between atoms: O_2  and  C_3
REMARK    3  A    between atoms: C_6  and  C_31
REMARK    4  A    between atoms: C_8  and  S_9
REMARK    5  A    between atoms: S_9  and  N_12
REMARK    6  A    between atoms: N_12  and  C_13
REMARK    7  A    between atoms: C_16  and  C_19
REMARK    8  A    between atoms: C_22  and  C_23
REMARK                            x       y       z     vdW  Elec       q    Type
REMARK                         _______ _______ _______ _____ _____    ______ ____
ROOT
ATOM      1  C   UNL     1       4.023   2.687   1.863  0.00  0.00    +0.048 A 
ATOM      2  C   UNL     1       3.227   1.557   1.702  0.00  0.00    +0.025 A 
ATOM      3  C   UNL     1       3.684   0.326   2.117  0.00  0.00    +0.015 A 
ATOM      4  C   UNL     1       4.945   0.215   2.711  0.00  0.00    +0.037 A 
ATOM      5  C   UNL     1       5.739   1.353   2.877  0.00  0.00    +0.015 A 
ATOM      6  C   UNL     1       5.278   2.580   2.455  0.00  0.00    +0.025 A 
ENDROOT
BRANCH   4   7
ATOM      7  C   UNL     1       5.435  -1.101   3.163  0.00  0.00    +0.232 C 
ATOM      8  N   UNL     1       4.762  -2.213   3.053  0.00  0.00    -0.205 NA
ATOM      9  C   UNL     1       5.507  -3.237   3.564  0.00  0.00    +0.152 C 
ATOM     10  C   UNL     1       5.157  -4.572   3.635  0.00  0.00    +0.043 C 
ATOM     11  C   UNL     1       6.758  -2.619   4.029  0.00  0.00    +0.364 C 
ATOM     12  O   UNL     1       7.704  -3.174   4.558  0.00  0.00    -0.243 OA
ATOM     13  O   UNL     1       6.633  -1.305   3.745  0.00  0.00    -0.402 OA
BRANCH  10  14
ATOM     14  C   UNL     1       3.863  -5.017   3.120  0.00  0.00    -0.016 A 
ATOM     15  C   UNL     1       3.462  -6.403   3.177  0.00  0.00    +0.015 A 
ATOM     16  C   UNL     1       2.251  -6.712   2.677  0.00  0.00    +0.046 A 
ATOM     17  S   UNL     1       1.627  -5.140   2.120  0.00  0.00    -0.104 S 
ATOM     18  C   UNL     1       2.960  -4.127   2.561  0.00  0.00    +0.053 A 
ENDBRANCH  10  14
ENDBRANCH   4   7
BRANCH   1  19
ATOM     19  N   UNL     1       3.559   3.930   1.438  0.00  0.00    -0.216 N 
ATOM     20  H   UNL     1       3.650   4.705   2.014  0.00  0.00    +0.174 HD
BRANCH  19  21
ATOM     21  S   UNL     1       2.852   4.084  -0.052  0.00  0.00    +0.076 S 
ATOM     22  O   UNL     1       2.549   5.463  -0.217  0.00  0.00    -0.150 OA
ATOM     23  O   UNL     1       1.860   3.071  -0.137  0.00  0.00    -0.150 OA
BRANCH  21  29
ATOM     24  C   UNL     1       5.212   4.486  -1.375  0.00  0.00    +0.147 A 
ATOM     25  C   UNL     1       6.183   4.181  -2.322  0.00  0.00    +0.048 A 
ATOM     26  C   UNL     1       6.023   3.091  -3.148  0.00  0.00    +0.019 A 
ATOM     27  C   UNL     1       4.887   2.285  -3.026  0.00  0.00    +0.065 A 
ATOM     28  C   UNL     1       3.913   2.596  -2.073  0.00  0.00    +0.047 A 
ATOM     29  C   UNL     1       4.079   3.691  -1.254  0.00  0.00    +0.151 A 
BRANCH  27  30
ATOM     30  C   UNL     1       4.713   1.114  -3.905  0.00  0.00    +0.387 C 
ATOM     31  O   UNL     1       3.723   0.418  -3.801  0.00  0.00    -0.241 OA
ATOM     32  O   UNL     1       5.653   0.816  -4.823  0.00  0.00    -0.241 OA
ENDBRANCH  27  30
BRANCH  24  34
ATOM     33  C   UNL     1       6.611   6.270  -0.662  0.00  0.00    +0.277 C 
ATOM     34  O   UNL     1       5.372   5.564  -0.566  0.00  0.00    -0.493 OA
ENDBRANCH  24  34
ENDBRANCH  21  29
ENDBRANCH  19  21
ENDBRANCH   1  19
TORSDOF 7
