REMARK  Name = ZINC02570557
REMARK  6 active torsions:
REMARK  status: ('A' for Active; 'I' for Inactive)
REMARK    1  A    between atoms: C_3  and  S_14
REMARK    2  A    between atoms: C_4  and  N_11
REMARK    3  A    between atoms: C_6  and  C_7
REMARK    4  A    between atoms: S_14  and  C_15
REMARK    5  A    between atoms: C_18  and  C_21
REMARK    6  A    between atoms: N_19  and  N_20
REMARK                            x       y       z     vdW  Elec       q    Type
REMARK                         _______ _______ _______ _____ _____    ______ ____
ROOT
ATOM      1  C   UNL     1       2.850   4.242   0.047  0.00  0.00    +0.213 A 
ATOM      2  N   UNL     1       3.756   3.241   0.199  0.00  0.00    -0.120 NA
ATOM      3  N   UNL     1       4.923   3.748   0.389  0.00  0.00    -0.127 NA
ATOM      4  C   UNL     1       4.836   5.103   0.380  0.00  0.00    +0.182 A 
ATOM      5  N   UNL     1       3.528   5.429   0.164  0.00  0.00    -0.223 N 
ENDROOT
BRANCH   4   6
ATOM      6  C   UNL     1       5.908   6.014   0.562  0.00  0.00    +0.024 A 
ATOM      7  C   UNL     1       5.648   7.357   0.895  0.00  0.00    +0.031 A 
ATOM      8  C   UNL     1       6.696   8.231   1.075  0.00  0.00    +0.043 A 
ATOM      9  C   UNL     1       8.005   7.795   0.918  0.00  0.00    +0.040 A 
ATOM     10  C   UNL     1       8.272   6.474   0.583  0.00  0.00    +0.043 A 
ATOM     11  C   UNL     1       7.239   5.582   0.404  0.00  0.00    +0.031 A 
ATOM     12 CL   UNL     1       9.915   5.945   0.390  0.00  0.00    -0.083 Cl
ATOM     13 CL   UNL     1       6.380   9.887   1.492  0.00  0.00    -0.083 Cl
ENDBRANCH   4   6
BRANCH   5  14
ATOM     14  N   UNL     1       3.000   6.686   0.081  0.00  0.00    -0.295 N 
ATOM     15  H   UNL     1       2.787   7.050   0.998  0.00  0.00    +0.163 HD
ATOM     16  H   UNL     1       3.619   7.306  -0.420  0.00  0.00    +0.163 HD
ENDBRANCH   5  14
BRANCH   1  17
ATOM     17  S   UNL     1       1.171   4.057  -0.232  0.00  0.00    -0.046 S 
BRANCH  17  20
ATOM     18  C   UNL     1       0.801   0.155  -1.152  0.00  0.00    +0.013 A 
ATOM     19  C   UNL     1       0.910   1.525  -1.259  0.00  0.00    +0.018 A 
ATOM     20  C   UNL     1       1.031   2.305  -0.105  0.00  0.00    +0.046 A 
ATOM     21  C   UNL     1       1.039   1.689   1.151  0.00  0.00    +0.140 A 
ATOM     22  C   UNL     1       0.929   0.319   1.243  0.00  0.00    +0.046 A 
ATOM     23  C   UNL     1       0.811  -0.449   0.095  0.00  0.00    +0.057 A 
BRANCH  23  24
ATOM     24  C   UNL     1       0.691  -1.947   0.204  0.00  0.00    +0.417 C 
ATOM     25  F   UNL     1      -0.659  -2.301   0.300  0.00  0.00    -0.166 F 
ATOM     26  F   UNL     1       1.250  -2.543  -0.932  0.00  0.00    -0.166 F 
ATOM     27  F   UNL     1       1.371  -2.388   1.344  0.00  0.00    -0.166 F 
ENDBRANCH  23  24
BRANCH  21  28
ATOM     28  N   UNL     1       1.160   2.508   2.378  0.00  0.00    +0.058 N 
ATOM     29  O   UNL     1       1.162   1.927   3.560  0.00  0.00    -0.126 OA
ATOM     30  O   UNL     1       1.265   3.818   2.288  0.00  0.00    -0.126 OA
ENDBRANCH  21  28
ENDBRANCH  17  20
ENDBRANCH   1  17
TORSDOF 6
