REMARK  Name = ZINC09547184
REMARK  9 active torsions:
REMARK  status: ('A' for Active; 'I' for Inactive)
REMARK    1  A    between atoms: C_1  and  O_2
REMARK    2  A    between atoms: O_2  and  C_3
REMARK    3  A    between atoms: C_5  and  C_11
REMARK    4  A    between atoms: C_7  and  O_9
REMARK    5  A    between atoms: O_9  and  C_10
REMARK    6  A    between atoms: C_11  and  N_12
REMARK    7  A    between atoms: C_16  and  C_19
REMARK    8  A    between atoms: N_21  and  C_22
REMARK    9  A    between atoms: C_27  and  N_31
REMARK                            x       y       z     vdW  Elec       q    Type
REMARK                         _______ _______ _______ _____ _____    ______ ____
ROOT
ATOM      1  N   UNL     1      10.046   3.084   0.141  0.00  0.00    -0.310 N 
ATOM      2  C   UNL     1      10.315   4.407   0.248  0.00  0.00    +0.089 A 
ATOM      3  C   UNL     1       9.318   5.329   0.265  0.00  0.00    +0.019 A 
ATOM      4  C   UNL     1       7.987   4.923   0.172  0.00  0.00    +0.020 A 
ATOM      5  C   UNL     1       7.703   3.563   0.061  0.00  0.00    +0.106 A 
ATOM      6  C   UNL     1       8.779   2.638   0.054  0.00  0.00    +0.264 A 
ATOM      7  O   UNL     1       8.557   1.443  -0.036  0.00  0.00    -0.267 OA
ENDROOT
BRANCH   5   8
ATOM      8  C   UNL     1       6.313   3.095  -0.040  0.00  0.00    +0.285 C 
ATOM      9  O   UNL     1       5.405   3.900  -0.133  0.00  0.00    -0.265 OA
ATOM     10  N   UNL     1       6.044   1.775  -0.029  0.00  0.00    -0.182 NA
BRANCH  10  11
ATOM     11  C   UNL     1       4.731   1.336  -0.015  0.00  0.00    +0.197 A 
ATOM     12  N   UNL     1       3.626   2.045  -0.011  0.00  0.00    -0.221 NA
ATOM     13  C   UNL     1       2.400   1.478   0.003  0.00  0.00    +0.081 A 
ATOM     14  C   UNL     1       1.141   2.120   0.009  0.00  0.00    +0.031 A 
ATOM     15  C   UNL     1      -0.018   1.390   0.024  0.00  0.00    +0.035 A 
ATOM     16  C   UNL     1      -0.001   0.002   0.033  0.00  0.00    +0.127 A 
ATOM     17  C   UNL     1       1.213  -0.659   0.027  0.00  0.00    +0.050 A 
ATOM     18  C   UNL     1       2.379   0.064   0.012  0.00  0.00    +0.043 A 
ATOM     19  S   UNL     1       4.109  -0.340   0.000  0.00  0.00    -0.048 S 
BRANCH  16  20
ATOM     20  N   UNL     1      -1.269  -0.761   0.049  0.00  0.00    +0.056 N 
ATOM     21  O   UNL     1      -2.335  -0.172   0.055  0.00  0.00    -0.126 OA
ATOM     22  O   UNL     1      -1.246  -1.979   0.057  0.00  0.00    -0.126 OA
ENDBRANCH  16  20
ENDBRANCH  10  11
ENDBRANCH   5   8
BRANCH   1  23
ATOM     23  C   UNL     1      11.152   2.123   0.127  0.00  0.00    +0.160 C 
BRANCH  23  26
ATOM     24  C   UNL     1      11.103   0.198   3.379  0.00  0.00    +0.124 A 
ATOM     25  C   UNL     1      10.820   0.596   2.080  0.00  0.00    +0.051 A 
ATOM     26  C   UNL     1      11.461   1.693   1.537  0.00  0.00    -0.021 A 
ATOM     27  C   UNL     1      12.391   2.392   2.283  0.00  0.00    +0.051 A 
ATOM     28  C   UNL     1      12.674   2.001   3.584  0.00  0.00    +0.124 A 
ATOM     29  C   UNL     1      12.031   0.902   4.132  0.00  0.00    +0.091 A 
BRANCH  24  31
ATOM     30  C   UNL     1      10.812  -1.232   5.255  0.00  0.00    +0.277 C 
ATOM     31  O   UNL     1      10.471  -0.880   3.913  0.00  0.00    -0.495 OA
ENDBRANCH  24  31
BRANCH  28  32
ATOM     32  O   UNL     1      13.583   2.693   4.320  0.00  0.00    -0.495 OA
ATOM     33  C   UNL     1      13.829   2.231   5.650  0.00  0.00    +0.277 C 
ENDBRANCH  28  32
ENDBRANCH  23  26
ENDBRANCH   1  23
TORSDOF 7
