REMARK  Name = ZINC04716070
REMARK  10 active torsions:
REMARK  status: ('A' for Active; 'I' for Inactive)
REMARK    1  A    between atoms: C_1  and  C_2
REMARK    2  A    between atoms: C_2  and  O_3
REMARK    3  A    between atoms: O_3  and  C_4
REMARK    4  A    between atoms: C_7  and  C_12
REMARK    5  A    between atoms: C_8  and  O_10
REMARK    6  A    between atoms: O_10  and  C_11
REMARK    7  A    between atoms: C_17  and  C_21
REMARK    8  A    between atoms: C_17  and  C_22
REMARK    9  A    between atoms: C_27  and  S_29
REMARK   10  A    between atoms: S_29  and  C_30
REMARK                            x       y       z     vdW  Elec       q    Type
REMARK                         _______ _______ _______ _____ _____    ______ ____
ROOT
ATOM      1  C   UNL     1       1.137  -6.064   1.756  0.00  0.00    +0.166 C 
ATOM      2  C   UNL     1       0.125  -6.511   2.793  0.00  0.00    +0.041 C 
ATOM      3  C   UNL     1      -0.823  -7.440   2.408  0.00  0.00    +0.028 C 
ATOM      4  C   UNL     1      -1.858  -7.915   3.401  0.00  0.00    +0.060 C 
ATOM      5  C   UNL     1      -1.271  -7.866   4.813  0.00  0.00    -0.023 C 
ATOM      6  C   UNL     1      -0.828  -6.432   5.119  0.00  0.00    +0.086 C 
ATOM      7  C   UNL     1       0.168  -5.993   4.077  0.00  0.00    +0.164 C 
ATOM      8  O   UNL     1       1.021  -5.174   4.367  0.00  0.00    -0.292 OA
ATOM      9  C   UNL     1      -2.333  -8.301   5.824  0.00  0.00    +0.011 C 
ATOM     10  C   UNL     1      -0.065  -8.804   4.899  0.00  0.00    +0.011 C 
ATOM     11  N   UNL     1      -0.840  -7.925   1.176  0.00  0.00    -0.330 N 
ATOM     12  C   UNL     1       0.008  -7.592   0.212  0.00  0.00    +0.215 C 
ATOM     13  N   UNL     1       1.006  -6.677   0.429  0.00  0.00    -0.208 N 
ATOM     14  N   UNL     1       1.709  -6.549  -0.772  0.00  0.00    -0.239 N 
ATOM     15  C   UNL     1       1.103  -7.393  -1.661  0.00  0.00    +0.174 C 
ATOM     16  N   UNL     1       0.106  -7.999  -1.061  0.00  0.00    -0.192 NA
ATOM     17  H   UNL     1      -1.527  -8.576   0.961  0.00  0.00    +0.168 HD
ATOM     18  H   UNL     1       2.474  -5.977  -0.941  0.00  0.00    +0.172 HD
ENDROOT
BRANCH   1  22
ATOM     19  C   UNL     1       0.803  -1.824   1.307  0.00  0.00    +0.124 A 
ATOM     20  C   UNL     1      -0.275  -2.563   1.772  0.00  0.00    +0.046 A 
ATOM     21  C   UNL     1      -0.165  -3.933   1.916  0.00  0.00    +0.013 A 
ATOM     22  C   UNL     1       1.020  -4.570   1.597  0.00  0.00    +0.021 A 
ATOM     23  C   UNL     1       2.101  -3.835   1.132  0.00  0.00    +0.129 A 
ATOM     24  C   UNL     1       1.990  -2.461   0.981  0.00  0.00    +0.091 A 
BRANCH  23  25
ATOM     25  O   UNL     1       3.265  -4.462   0.818  0.00  0.00    -0.495 OA
ATOM     26  C   UNL     1       4.336  -3.643   0.345  0.00  0.00    +0.277 C 
ENDBRANCH  23  25
BRANCH  19  27
ATOM     27  O   UNL     1       0.694  -0.477   1.166  0.00  0.00    -0.492 OA
BRANCH  27  29
ATOM     28  C   UNL     1      -0.491   1.625   1.298  0.00  0.00    +0.048 C 
ATOM     29  C   UNL     1      -0.558   0.113   1.522  0.00  0.00    +0.225 C 
ENDBRANCH  27  29
ENDBRANCH  19  27
ENDBRANCH   1  22
BRANCH  15  30
ATOM     30  S   UNL     1       1.585  -7.631  -3.340  0.00  0.00    -0.092 S 
ATOM     31  C   UNL     1       0.401  -8.855  -3.966  0.00  0.00    +0.093 C 
ENDBRANCH  15  30
TORSDOF 5
