REMARK  Name = ZINC10187182
REMARK  5 active torsions:
REMARK  status: ('A' for Active; 'I' for Inactive)
REMARK    1  A    between atoms: C_5  and  S_6
REMARK    2  A    between atoms: S_6  and  N_9
REMARK    3  A    between atoms: C_13  and  C_15
REMARK    4  A    between atoms: N_17  and  C_18
REMARK    5  A    between atoms: C_19  and  C_27
REMARK                            x       y       z     vdW  Elec       q    Type
REMARK                         _______ _______ _______ _____ _____    ______ ____
ROOT
ATOM      1  C   UNL     1       1.887   2.993   0.233  0.00  0.00    +0.236 C 
ATOM      2  O   UNL     1       1.210   3.659   0.987  0.00  0.00    -0.274 OA
ATOM      3  N   UNL     1       3.123   3.408  -0.108  0.00  0.00    -0.278 N 
ATOM      4  H   UNL     1       3.664   2.875  -0.711  0.00  0.00    +0.155 HD
ENDROOT
BRANCH   3   5
ATOM      5  C   UNL     1       3.620   4.598   0.403  0.00  0.00    +0.084 A 
ATOM      6  C   UNL     1       4.858   5.183   0.176  0.00  0.00    +0.068 A 
ATOM      7  C   UNL     1       5.133   6.448   0.835  0.00  0.00    -0.023 A 
ATOM      8  C   UNL     1       4.139   6.916   1.620  0.00  0.00    -0.004 A 
ATOM      9  S   UNL     1       2.850   5.710   1.486  0.00  0.00    -0.077 S 
ATOM     10  C   UNL     1       4.141   8.181   2.422  0.00  0.00    +0.043 C 
ATOM     11  C   UNL     1       5.587   8.689   2.521  0.00  0.00    +0.005 C 
ATOM     12  C   UNL     1       6.215   8.663   1.125  0.00  0.00    +0.005 C 
ATOM     13  C   UNL     1       6.440   7.217   0.682  0.00  0.00    +0.037 C 
BRANCH   6  14
ATOM     14  C   UNL     1       5.848   4.551  -0.701  0.00  0.00    +0.244 C 
ATOM     15  O   UNL     1       5.862   4.809  -1.890  0.00  0.00    -0.270 OA
ATOM     16  N   UNL     1       6.744   3.683  -0.190  0.00  0.00    -0.325 N 
ATOM     17  H   UNL     1       6.733   3.476   0.758  0.00  0.00    +0.145 HD
ATOM     18  H   UNL     1       7.399   3.264  -0.770  0.00  0.00    +0.145 HD
ENDBRANCH   6  14
ENDBRANCH   3   5
BRANCH   1  23
ATOM     19  N   UNL     1      -0.096   1.825  -0.600  0.00  0.00    -0.164 NA
ATOM     20  C   UNL     1      -0.751   0.550  -0.270  0.00  0.00    +0.110 C 
ATOM     21  C   UNL     1       0.341  -0.402   0.263  0.00  0.00    +0.019 C 
ATOM     22  C   UNL     1       1.451   0.573   0.735  0.00  0.00    +0.031 C 
ATOM     23  C   UNL     1       1.346   1.700  -0.322  0.00  0.00    +0.166 C 
BRANCH  19  24
ATOM     24  S   UNL     1      -0.853   3.174  -1.191  0.00  0.00    +0.068 S 
ATOM     25  O   UNL     1      -2.170   3.167  -0.659  0.00  0.00    -0.152 OA
ATOM     26  O   UNL     1       0.042   4.260  -0.996  0.00  0.00    -0.152 OA
BRANCH  24  31
ATOM     27  C   UNL     1      -2.022   2.390  -3.634  0.00  0.00    +0.038 A 
ATOM     28  C   UNL     1      -1.935   2.335  -5.013  0.00  0.00    +0.030 A 
ATOM     29  C   UNL     1      -0.835   2.844  -5.622  0.00  0.00    +0.080 A 
ATOM     30  S   UNL     1       0.119   3.431  -4.231  0.00  0.00    -0.057 S 
ATOM     31  C   UNL     1      -1.012   2.960  -2.933  0.00  0.00    +0.144 A 
ATOM     32 CL   UNL     1      -0.453   2.907  -7.314  0.00  0.00    -0.076 Cl
ENDBRANCH  24  31
ENDBRANCH  19  24
ENDBRANCH   1  23
TORSDOF 5
