REMARK  Name = ZINC08756794
REMARK  3 active torsions:
REMARK  status: ('A' for Active; 'I' for Inactive)
REMARK    1  A    between atoms: C_4  and  S_7
REMARK    2  A    between atoms: S_7  and  C_10
REMARK    3  A    between atoms: N_27  and  C_30
REMARK                            x       y       z     vdW  Elec       q    Type
REMARK                         _______ _______ _______ _____ _____    ______ ____
ROOT
ATOM      1  C   UNL     1       3.055   0.732  -1.744  0.00  0.00    +0.249 A 
ATOM      2  C   UNL     1       3.850   1.574  -2.501  0.00  0.00    +0.204 A 
ATOM      3  N   UNL     1       4.422   2.760  -2.230  0.00  0.00    -0.209 NA
ATOM      4  C   UNL     1       5.154   3.399  -3.118  0.00  0.00    +0.133 A 
ATOM      5  C   UNL     1       5.351   2.798  -4.445  0.00  0.00    +0.042 A 
ATOM      6  C   UNL     1       6.116   3.427  -5.428  0.00  0.00    +0.033 A 
ATOM      7  C   UNL     1       6.272   2.824  -6.657  0.00  0.00    +0.042 A 
ATOM      8  C   UNL     1       5.673   1.599  -6.920  0.00  0.00    +0.022 A 
ATOM      9  C   UNL     1       4.915   0.965  -5.957  0.00  0.00    +0.030 A 
ATOM     10  C   UNL     1       4.747   1.557  -4.713  0.00  0.00    +0.080 A 
ATOM     11  N   UNL     1       3.995   0.960  -3.717  0.00  0.00    -0.192 N 
ATOM     12  N   UNL     1       3.276  -0.239  -3.647  0.00  0.00    -0.057 NA
ATOM     13  N   UNL     1       2.748  -0.332  -2.476  0.00  0.00    -0.108 NA
ATOM     14 CL   UNL     1       7.221   3.601  -7.885  0.00  0.00    -0.084 Cl
ATOM     15  N   UNL     1       5.727   4.616  -2.808  0.00  0.00    -0.312 N 
ATOM     16  C   UNL     1       6.673   4.483  -1.692  0.00  0.00    +0.125 C 
ATOM     17  C   UNL     1       7.344   5.834  -1.432  0.00  0.00    +0.125 C 
ATOM     18  N   UNL     1       6.316   6.838  -1.129  0.00  0.00    -0.314 N 
ATOM     19  C   UNL     1       5.369   6.971  -2.245  0.00  0.00    +0.125 C 
ATOM     20  C   UNL     1       4.698   5.620  -2.505  0.00  0.00    +0.125 C 
ENDROOT
BRANCH  18  21
ATOM     21  C   UNL     1       6.893   8.064  -0.817  0.00  0.00    +0.099 A 
ATOM     22  C   UNL     1       7.820   8.146   0.217  0.00  0.00    +0.042 A 
ATOM     23  C   UNL     1       8.386   9.371   0.517  0.00  0.00    +0.005 A 
ATOM     24  C   UNL     1       8.005  10.478  -0.230  0.00  0.00    +0.018 A 
ATOM     25  C   UNL     1       7.079  10.325  -1.242  0.00  0.00    +0.084 A 
ATOM     26  N   UNL     1       6.506   9.135  -1.568  0.00  0.00    -0.350 N 
ATOM     27  H   UNL     1       5.826   9.049  -2.333  0.00  0.00    +0.166 HD
ENDBRANCH  18  21
BRANCH   1  28
ATOM     28  S   UNL     1       2.541   1.020  -0.083  0.00  0.00    +0.047 S 
ATOM     29  O   UNL     1       3.493   1.907   0.489  0.00  0.00    -0.163 OA
ATOM     30  O   UNL     1       2.252  -0.252   0.479  0.00  0.00    -0.163 OA
BRANCH  28  34
ATOM     31  C   UNL     1      -1.380   3.275  -0.268  0.00  0.00    +0.000 A 
ATOM     32  C   UNL     1      -1.378   1.893  -0.249  0.00  0.00    +0.002 A 
ATOM     33  C   UNL     1      -0.180   1.204  -0.187  0.00  0.00    +0.027 A 
ATOM     34  C   UNL     1       1.015   1.898  -0.154  0.00  0.00    +0.095 A 
ATOM     35  C   UNL     1       1.013   3.280  -0.178  0.00  0.00    +0.027 A 
ATOM     36  C   UNL     1      -0.184   3.969  -0.234  0.00  0.00    +0.002 A 
ENDBRANCH  28  34
ENDBRANCH   1  28
TORSDOF 3
