REMARK  Name = ZINC12529084
REMARK  7 active torsions:
REMARK  status: ('A' for Active; 'I' for Inactive)
REMARK    1  A    between atoms: C_1  and  N_60
REMARK    2  A    between atoms: C_2  and  C_3
REMARK    3  A    between atoms: C_2  and  N_60
REMARK    4  A    between atoms: C_10  and  C_11
REMARK    5  A    between atoms: C_10  and  N_60
REMARK    6  A    between atoms: C_14  and  C_29
REMARK    7  A    between atoms: C_17  and  C_19
REMARK                            x       y       z     vdW  Elec       q    Type
REMARK                         _______ _______ _______ _____ _____    ______ ____
ROOT
ATOM      1  C   UNL     1       0.537  -2.376   2.842  0.00  0.00    +0.219 C 
ATOM      2  O   UNL     1       0.507  -1.558   3.737  0.00  0.00    -0.276 OA
ATOM      3  N   UNL     1       0.799  -3.669   3.118  0.00  0.00    -0.187 N 
ATOM      4  C   UNL     1       1.066  -4.221   4.456  0.00  0.00    +0.137 C 
ATOM      5  C   UNL     1       1.295  -5.722   4.189  0.00  0.00    +0.087 C 
ATOM      6  C   UNL     1       1.127  -5.855   2.692  0.00  0.00    +0.069 C 
ATOM      7  N   UNL     1       0.855  -4.702   2.185  0.00  0.00    -0.181 NA
ENDROOT
BRANCH   6   8
ATOM      8  C   UNL     1       1.250  -7.111   1.931  0.00  0.00    -0.002 A 
ATOM      9  C   UNL     1       1.546  -8.311   2.606  0.00  0.00    +0.010 A 
ATOM     10  C   UNL     1       1.663  -9.480   1.927  0.00  0.00    +0.009 A 
ATOM     11  C   UNL     1       1.489  -9.504   0.530  0.00  0.00    -0.018 A 
ATOM     12  C   UNL     1       1.605 -10.703  -0.193  0.00  0.00    +0.008 A 
ATOM     13  C   UNL     1       1.430 -10.696  -1.543  0.00  0.00    +0.001 A 
ATOM     14  C   UNL     1       1.137  -9.515  -2.223  0.00  0.00    +0.001 A 
ATOM     15  C   UNL     1       1.017  -8.335  -1.557  0.00  0.00    +0.008 A 
ATOM     16  C   UNL     1       1.191  -8.303  -0.161  0.00  0.00    -0.017 A 
ATOM     17  C   UNL     1       1.067  -7.104   0.557  0.00  0.00    +0.018 A 
ENDBRANCH   6   8
BRANCH   4  18
ATOM     18  C   UNL     1      -0.122  -4.018   5.361  0.00  0.00    -0.025 A 
ATOM     19  C   UNL     1      -1.403  -4.155   4.860  0.00  0.00    +0.005 A 
ATOM     20  C   UNL     1      -2.493  -3.974   5.691  0.00  0.00    +0.000 A 
ATOM     21  C   UNL     1      -2.301  -3.645   7.020  0.00  0.00    +0.000 A 
ATOM     22  C   UNL     1      -1.020  -3.503   7.519  0.00  0.00    +0.000 A 
ATOM     23  C   UNL     1       0.070  -3.689   6.690  0.00  0.00    +0.005 A 
ENDBRANCH   4  18
BRANCH   1  24
ATOM     24  C   UNL     1       0.280  -1.947   1.420  0.00  0.00    +0.021 C 
BRANCH  24  26
ATOM     25  C   UNL     1      -1.229  -0.172   2.080  0.00  0.00    -0.095 C 
ATOM     26  N   UNL     1       0.043  -0.488   1.398  0.00  0.00    +0.386 N 
ATOM     27  H   UNL     1       0.811  -0.018   1.891  0.00  0.00    -0.081 HD
BRANCH  26  28
ATOM     28  C   UNL     1       0.002  -0.004   0.002  0.00  0.00    -0.043 C 
BRANCH  28  29
ATOM     29  C   UNL     1      -0.018   1.503   0.010  0.00  0.00    -0.064 A 
ATOM     30  C   UNL     1      -1.225   2.177   0.020  0.00  0.00    +0.003 A 
ATOM     31  C   UNL     1      -1.244   3.559   0.033  0.00  0.00    +0.020 A 
ATOM     32  C   UNL     1      -0.056   4.268   0.025  0.00  0.00    +0.041 A 
ATOM     33  C   UNL     1       1.151   3.592   0.010  0.00  0.00    +0.020 A 
ATOM     34  C   UNL     1       1.169   2.210   0.003  0.00  0.00    +0.003 A 
ATOM     35 CL   UNL     1      -0.079   6.003   0.035  0.00  0.00    -0.084 Cl
ENDBRANCH  28  29
ENDBRANCH  26  28
ENDBRANCH  24  26
ENDBRANCH   1  24
TORSDOF 6
