REMARK  Name = ZINC39926567
REMARK  8 active torsions:
REMARK  status: ('A' for Active; 'I' for Inactive)
REMARK    1  A    between atoms: C_1  and  O_2
REMARK    2  A    between atoms: O_2  and  C_3
REMARK    3  A    between atoms: C_6  and  N_9
REMARK    4  A    between atoms: C_10  and  S_21
REMARK    5  A    between atoms: S_21  and  C_22
REMARK    6  A    between atoms: C_22  and  C_23
REMARK    7  A    between atoms: N_25  and  N_26
REMARK    8  A    between atoms: C_27  and  C_28
REMARK                            x       y       z     vdW  Elec       q    Type
REMARK                         _______ _______ _______ _____ _____    ______ ____
ROOT
ATOM      1  N   UNL     1       2.541  -2.503   4.230  0.00  0.00    -0.239 N 
ATOM      2  C   UNL     1       2.508  -3.963   4.327  0.00  0.00    +0.227 C 
ATOM      3  N   UNL     1       3.747  -4.461   4.934  0.00  0.00    -0.317 N 
ATOM      4  C   UNL     1       4.265  -3.798   6.041  0.00  0.00    +0.041 A 
ATOM      5  C   UNL     1       5.017  -4.457   6.999  0.00  0.00    +0.024 A 
ATOM      6  C   UNL     1       5.520  -3.753   8.077  0.00  0.00    +0.002 A 
ATOM      7  C   UNL     1       5.277  -2.395   8.206  0.00  0.00    +0.001 A 
ATOM      8  C   UNL     1       4.526  -1.724   7.263  0.00  0.00    +0.015 A 
ATOM      9  C   UNL     1       4.009  -2.422   6.174  0.00  0.00    +0.058 A 
ATOM     10  C   UNL     1       3.185  -1.757   5.150  0.00  0.00    +0.255 C 
ATOM     11  O   UNL     1       3.083  -0.545   5.138  0.00  0.00    -0.269 OA
ATOM     12  H   UNL     1       4.198  -5.239   4.569  0.00  0.00    +0.149 HD
ENDROOT
BRANCH   1  16
ATOM     13  C   UNL     1       0.625  -0.620   1.042  0.00  0.00    +0.120 A 
ATOM     14  C   UNL     1       1.947  -1.020   0.917  0.00  0.00    +0.047 A 
ATOM     15  C   UNL     1       2.582  -1.644   1.973  0.00  0.00    +0.027 A 
ATOM     16  C   UNL     1       1.897  -1.870   3.160  0.00  0.00    +0.039 A 
ATOM     17  C   UNL     1       0.574  -1.469   3.284  0.00  0.00    +0.027 A 
ATOM     18  C   UNL     1      -0.059  -0.840   2.229  0.00  0.00    +0.047 A 
BRANCH  13  20
ATOM     19  C   UNL     1       0.763   0.189  -1.190  0.00  0.00    +0.277 C 
ATOM     20  O   UNL     1      -0.001  -0.006   0.002  0.00  0.00    -0.495 OA
ENDBRANCH  13  20
ENDBRANCH   1  16
BRANCH   2  21
ATOM     21  S   UNL     1       1.098  -4.465   5.353  0.00  0.00    -0.110 S 
BRANCH  21  22
ATOM     22  C   UNL     1       1.420  -3.678   6.956  0.00  0.00    +0.170 C 
BRANCH  22  23
ATOM     23  C   UNL     1       0.309  -4.019   7.915  0.00  0.00    +0.242 C 
ATOM     24  O   UNL     1      -0.610  -4.723   7.553  0.00  0.00    -0.273 OA
ATOM     25  N   UNL     1       0.336  -3.542   9.175  0.00  0.00    -0.206 N 
ATOM     26  H   UNL     1       1.071  -2.979   9.465  0.00  0.00    +0.177 HD
BRANCH  25  27
ATOM     27  N   UNL     1      -0.697  -3.859  10.066  0.00  0.00    -0.188 NA
ATOM     28  C   UNL     1      -0.671  -3.395  11.291  0.00  0.00    +0.136 C 
BRANCH  28  29
ATOM     29  C   UNL     1      -1.705  -3.712  12.183  0.00  0.00    +0.000 C 
ATOM     30  C   UNL     1      -1.831  -3.300  13.507  0.00  0.00    +0.004 A 
ATOM     31  C   UNL     1      -1.024  -2.487  14.335  0.00  0.00    +0.010 A 
ATOM     32  C   UNL     1      -1.401  -2.248  15.616  0.00  0.00    +0.001 A 
ATOM     33  C   UNL     1      -2.576  -2.788  16.147  0.00  0.00    +0.002 A 
ATOM     34  C   UNL     1      -3.397  -3.575  15.412  0.00  0.00    +0.026 A 
ATOM     35  C   UNL     1      -3.070  -3.871  14.062  0.00  0.00    +0.043 A 
ATOM     36  N   UNL     1      -3.690  -4.596  13.155  0.00  0.00    -0.380 N 
ATOM     37  C   UNL     1      -2.921  -4.569  11.906  0.00  0.00    +0.150 C 
ATOM     38  H   UNL     1      -4.525  -5.070  13.289  0.00  0.00    +0.160 HD
ENDBRANCH  28  29
ENDBRANCH  25  27
ENDBRANCH  22  23
ENDBRANCH  21  22
ENDBRANCH   2  21
TORSDOF 7
