REMARK  Name = ZINC41584570
REMARK  9 active torsions:
REMARK  status: ('A' for Active; 'I' for Inactive)
REMARK    1  A    between atoms: C_1  and  C_2
REMARK    2  A    between atoms: C_2  and  O_3
REMARK    3  A    between atoms: O_3  and  C_4
REMARK    4  A    between atoms: C_7  and  C_10
REMARK    5  A    between atoms: C_15  and  C_36
REMARK    6  A    between atoms: C_17  and  O_35
REMARK    7  A    between atoms: C_18  and  C_21
REMARK    8  A    between atoms: C_21  and  N_22
REMARK    9  A    between atoms: C_27  and  C_29
REMARK                            x       y       z     vdW  Elec       q    Type
REMARK                         _______ _______ _______ _____ _____    ______ ____
ROOT
ATOM      1  C   UNL     1       0.412  -4.421  -1.897  0.00  0.00    +0.058 C 
ATOM      2  C   UNL     1       0.865  -5.171  -2.934  0.00  0.00    +0.176 C 
ATOM      3  C   UNL     1       0.634  -6.610  -3.131  0.00  0.00    +0.232 C 
ATOM      4  O   UNL     1       0.007  -7.370  -2.414  0.00  0.00    -0.283 OA
ATOM      5  C   UNL     1       1.330  -6.926  -4.392  0.00  0.00    +0.071 A 
ATOM      6  C   UNL     1       1.491  -8.104  -5.124  0.00  0.00    -0.033 A 
ATOM      7  C   UNL     1       2.208  -8.090  -6.286  0.00  0.00    +0.050 A 
ATOM      8  C   UNL     1       2.779  -6.904  -6.742  0.00  0.00    +0.122 A 
ATOM      9  C   UNL     1       2.627  -5.728  -6.026  0.00  0.00    +0.020 A 
ATOM     10  C   UNL     1       1.900  -5.725  -4.842  0.00  0.00    +0.145 A 
ATOM     11  O   UNL     1       1.606  -4.729  -3.977  0.00  0.00    -0.451 OA
ATOM     12  C   UNL     1       0.875  -9.388  -4.632  0.00  0.00    +0.045 C 
ENDROOT
BRANCH   1  16
ATOM     13  C   UNL     1       0.999  -0.223  -1.902  0.00  0.00    +0.121 A 
ATOM     14  C   UNL     1       0.242  -0.815  -0.898  0.00  0.00    +0.046 A 
ATOM     15  C   UNL     1       0.048  -2.177  -0.891  0.00  0.00    +0.011 A 
ATOM     16  C   UNL     1       0.615  -2.968  -1.899  0.00  0.00    -0.021 A 
ATOM     17  C   UNL     1       1.377  -2.366  -2.909  0.00  0.00    +0.011 A 
ATOM     18  C   UNL     1       1.560  -1.002  -2.908  0.00  0.00    +0.046 A 
BRANCH  13  19
ATOM     19  O   UNL     1       1.187   1.122  -1.904  0.00  0.00    -0.492 OA
BRANCH  19  21
ATOM     20  C   UNL     1       0.902   3.349  -1.011  0.00  0.00    +0.048 C 
ATOM     21  C   UNL     1       0.583   1.863  -0.841  0.00  0.00    +0.225 C 
ENDBRANCH  19  21
ENDBRANCH  13  19
ENDBRANCH   1  16
BRANCH   8  22
ATOM     22  O   UNL     1       3.490  -6.901  -7.898  0.00  0.00    -0.506 OA
ATOM     23  H   UNL     1       2.959  -6.720  -8.686  0.00  0.00    +0.292 HD
ENDBRANCH   8  22
BRANCH   9  24
ATOM     24  C   UNL     1       3.251  -4.453  -6.531  0.00  0.00    -0.035 C 
BRANCH  24  25
ATOM     25  N   UNL     1       4.663  -4.407  -6.131  0.00  0.00    +0.387 N 
ATOM     26  C   UNL     1       4.754  -4.339  -4.668  0.00  0.00    -0.078 C 
ATOM     27  C   UNL     1       6.224  -4.372  -4.242  0.00  0.00    -0.019 C 
ATOM     28  C   UNL     1       6.955  -3.175  -4.856  0.00  0.00    -0.003 C 
ATOM     29  C   UNL     1       6.790  -3.215  -6.378  0.00  0.00    -0.011 C 
ATOM     30  C   UNL     1       5.300  -3.225  -6.725  0.00  0.00    -0.036 C 
ATOM     31  H   UNL     1       5.132  -5.239  -6.457  0.00  0.00    -0.080 HD
BRANCH  30  32
ATOM     32  C   UNL     1       5.133  -3.264  -8.222  0.00  0.00    -0.043 A 
ATOM     33  C   UNL     1       4.707  -2.138  -8.911  0.00  0.00    +0.005 A 
ATOM     34  C   UNL     1       4.567  -2.220 -10.287  0.00  0.00    +0.020 A 
ATOM     35  C   UNL     1       4.856  -3.413 -10.924  0.00  0.00    +0.111 A 
ATOM     36  N   UNL     1       5.260  -4.463 -10.236  0.00  0.00    -0.263 NA
ATOM     37  C   UNL     1       5.409  -4.420  -8.927  0.00  0.00    +0.112 A 
ENDBRANCH  30  32
ENDBRANCH  24  25
ENDBRANCH   9  24
TORSDOF 7
