REMARK  Name = ZINC35990941
REMARK  11 active torsions:
REMARK  status: ('A' for Active; 'I' for Inactive)
REMARK    1  A    between atoms: C_1  and  C_2
REMARK    2  A    between atoms: C_2  and  N_3
REMARK    3  A    between atoms: C_4  and  C_24
REMARK    4  A    between atoms: C_5  and  C_19
REMARK    5  A    between atoms: C_6  and  C_11
REMARK    6  A    between atoms: C_14  and  C_18
REMARK    7  A    between atoms: C_16  and  C_17
REMARK    8  A    between atoms: C_19  and  O_21
REMARK    9  A    between atoms: O_21  and  C_22
REMARK   10  A    between atoms: C_22  and  C_23
REMARK   11  A    between atoms: C_24  and  N_25
REMARK                            x       y       z     vdW  Elec       q    Type
REMARK                         _______ _______ _______ _____ _____    ______ ____
ROOT
ATOM      1  N   UNL     1       0.315   0.067  -1.675  0.00  0.00    -0.258 N 
ATOM      2  C   UNL     1      -0.050  -0.574  -2.824  0.00  0.00    +0.041 C 
ATOM      3  C   UNL     1       0.866  -1.194  -3.598  0.00  0.00    +0.080 C 
ATOM      4  C   UNL     1       2.312  -1.153  -3.148  0.00  0.00    +0.144 C 
ATOM      5  N   UNL     1       2.602  -0.436  -1.895  0.00  0.00    -0.288 N 
ATOM      6  C   UNL     1       1.577   0.138  -1.233  0.00  0.00    +0.307 C 
ATOM      7  O   UNL     1       1.806   0.735  -0.200  0.00  0.00    -0.252 OA
ATOM      8  H   UNL     1       3.508  -0.376  -1.555  0.00  0.00    +0.151 HD
ENDROOT
BRANCH   4   9
ATOM      9  C   UNL     1       3.123  -0.514  -4.246  0.00  0.00    -0.020 A 
ATOM     10  C   UNL     1       2.513   0.337  -5.149  0.00  0.00    +0.006 A 
ATOM     11  C   UNL     1       3.256   0.924  -6.156  0.00  0.00    +0.004 A 
ATOM     12  C   UNL     1       4.609   0.660  -6.260  0.00  0.00    -0.050 A 
ATOM     13  C   UNL     1       5.219  -0.190  -5.357  0.00  0.00    +0.007 A 
ATOM     14  C   UNL     1       4.476  -0.773  -4.347  0.00  0.00    -0.045 A 
ATOM     15  C   UNL     1       5.143  -1.696  -3.359  0.00  0.00    +0.044 C 
ATOM     16  C   UNL     1       5.419   1.299  -7.359  0.00  0.00    +0.044 C 
ENDBRANCH   4   9
BRANCH   1  18
ATOM     17  C   UNL     1      -0.905   2.163  -1.358  0.00  0.00    +0.025 C 
ATOM     18  C   UNL     1      -0.731   0.718  -0.883  0.00  0.00    +0.111 C 
ENDBRANCH   1  18
BRANCH   3  19
ATOM     19  C   UNL     1       0.488  -1.859  -4.788  0.00  0.00    +0.339 C 
ATOM     20  O   UNL     1      -0.661  -1.796  -5.182  0.00  0.00    -0.245 OA
BRANCH  19  21
ATOM     21  O   UNL     1       1.403  -2.563  -5.487  0.00  0.00    -0.462 OA
BRANCH  21  22
ATOM     22  C   UNL     1       0.980  -3.119  -6.733  0.00  0.00    +0.229 C 
ATOM     23  C   UNL     1       2.109  -3.966  -7.323  0.00  0.00    +0.048 C 
ENDBRANCH  21  22
ENDBRANCH  19  21
ENDBRANCH   3  19
BRANCH   2  24
ATOM     24  C   UNL     1      -1.500  -0.590  -3.234  0.00  0.00    +0.136 C 
BRANCH  24  25
ATOM     25  N   UNL     1      -2.079  -1.906  -2.935  0.00  0.00    -0.299 NA
ATOM     26  C   UNL     1      -2.029  -2.185  -1.520  0.00  0.00    +0.083 C 
ATOM     27  C   UNL     1      -1.738  -3.666  -1.208  0.00  0.00    -0.004 C 
ATOM     28  C   UNL     1      -2.516  -4.618  -2.138  0.00  0.00    -0.081 C 
ATOM     29  N   UNL     1      -3.869  -4.167  -2.361  0.00  0.00    +0.380 N 
ATOM     30  C   UNL     1      -3.892  -3.387  -3.614  0.00  0.00    -0.067 C 
ATOM     31  C   UNL     1      -3.475  -1.998  -3.431  0.00  0.00    +0.066 C 
ATOM     32  H   UNL     1      -4.484  -4.963  -2.443  0.00  0.00    -0.086 HD
ATOM     33  H   UNL     1      -4.165  -3.585  -1.592  0.00  0.00    -0.086 HD
ENDBRANCH  24  25
ENDBRANCH   2  24
TORSDOF 7
