REMARK  Name = ZINC67145568
REMARK  7 active torsions:
REMARK  status: ('A' for Active; 'I' for Inactive)
REMARK    1  A    between atoms: C_1  and  C_2
REMARK    2  A    between atoms: C_2  and  C_3
REMARK    3  A    between atoms: C_3  and  C_22
REMARK    4  A    between atoms: N_6  and  C_10
REMARK    5  A    between atoms: C_10  and  C_11
REMARK    6  A    between atoms: N_13  and  C_14
REMARK    7  A    between atoms: C_19  and  O_20
REMARK                            x       y       z     vdW  Elec       q    Type
REMARK                         _______ _______ _______ _____ _____    ______ ____
ROOT
ATOM      1  C   UNL     1       0.722  -0.504   1.270  0.00  0.00    +0.138 C 
ATOM      2  C   UNL     1       2.110   0.100   1.347  0.00  0.00    +0.251 C 
ATOM      3  O   UNL     1       3.011  -0.029   0.546  0.00  0.00    -0.272 OA
ATOM      4  N   UNL     1       2.134   0.811   2.491  0.00  0.00    -0.215 N 
ATOM      5  C   UNL     1       0.967   0.741   3.141  0.00  0.00    +0.310 C 
ATOM      6  O   UNL     1       0.747   1.300   4.197  0.00  0.00    -0.252 OA
ATOM      7  N   UNL     1       0.064  -0.018   2.494  0.00  0.00    -0.281 N 
ATOM      8  H   UNL     1      -0.844  -0.207   2.779  0.00  0.00    +0.152 HD
ENDROOT
BRANCH   1   9
ATOM      9  C   UNL     1       0.795  -2.010   1.269  0.00  0.00    -0.015 A 
ATOM     10  C   UNL     1       0.838  -2.699   0.072  0.00  0.00    +0.006 A 
ATOM     11  C   UNL     1       0.905  -4.080   0.072  0.00  0.00    +0.000 A 
ATOM     12  C   UNL     1       0.929  -4.771   1.269  0.00  0.00    +0.000 A 
ATOM     13  C   UNL     1       0.886  -4.081   2.466  0.00  0.00    +0.000 A 
ATOM     14  C   UNL     1       0.824  -2.700   2.466  0.00  0.00    +0.006 A 
ENDBRANCH   1   9
BRANCH   1  16
ATOM     15  C   UNL     1      -0.028   1.527   0.024  0.00  0.00    +0.007 C 
ATOM     16  C   UNL     1      -0.015  -0.003   0.026  0.00  0.00    +0.037 C 
ENDBRANCH   1  16
BRANCH   4  17
ATOM     17  C   UNL     1       3.296   1.567   2.966  0.00  0.00    +0.214 C 
BRANCH  17  18
ATOM     18  C   UNL     1       3.235   2.973   2.426  0.00  0.00    +0.235 C 
ATOM     19  O   UNL     1       2.313   3.310   1.714  0.00  0.00    -0.274 OA
ATOM     20  N   UNL     1       4.207   3.855   2.733  0.00  0.00    -0.281 N 
ATOM     21  H   UNL     1       4.910   3.607   3.353  0.00  0.00    +0.155 HD
BRANCH  20  22
ATOM     22  C   UNL     1       4.201   5.133   2.157  0.00  0.00    +0.077 A 
ATOM     23  C   UNL     1       2.998   5.772   1.896  0.00  0.00    +0.047 A 
ATOM     24  C   UNL     1       2.994   7.033   1.327  0.00  0.00    +0.043 A 
ATOM     25  C   UNL     1       4.189   7.658   1.017  0.00  0.00    +0.023 A 
ATOM     26  C   UNL     1       5.392   7.026   1.274  0.00  0.00    +0.049 A 
ATOM     27  C   UNL     1       5.403   5.766   1.849  0.00  0.00    +0.138 A 
ATOM     28 CL   UNL     1       1.488   7.832   1.001  0.00  0.00    -0.083 Cl
BRANCH  27  29
ATOM     29  O   UNL     1       6.585   5.145   2.109  0.00  0.00    -0.505 OA
ATOM     30  H   UNL     1       6.913   4.603   1.378  0.00  0.00    +0.292 HD
ENDBRANCH  27  29
ENDBRANCH  20  22
ENDBRANCH  17  18
ENDBRANCH   4  17
TORSDOF 6
