REMARK  Name = ZINC63573526
REMARK  10 active torsions:
REMARK  status: ('A' for Active; 'I' for Inactive)
REMARK    1  A    between atoms: C_1  and  C_2
REMARK    2  A    between atoms: C_2  and  O_3
REMARK    3  A    between atoms: O_3  and  C_4
REMARK    4  A    between atoms: C_4  and  C_5
REMARK    5  A    between atoms: C_5  and  C_6
REMARK    6  A    between atoms: C_6  and  N_7
REMARK    7  A    between atoms: C_16  and  O_32
REMARK    8  A    between atoms: C_23  and  C_25
REMARK    9  A    between atoms: C_28  and  C_31
REMARK   10  A    between atoms: O_32  and  C_33
REMARK                            x       y       z     vdW  Elec       q    Type
REMARK                         _______ _______ _______ _____ _____    ______ ____
ROOT
ATOM      1  N   UNL     1       4.366  -4.670   2.946  0.00  0.00    -0.299 N 
ATOM      2  C   UNL     1       3.853  -5.774   3.525  0.00  0.00    +0.303 C 
ATOM      3  O   UNL     1       3.220  -6.571   2.860  0.00  0.00    -0.253 OA
ATOM      4  N   UNL     1       4.041  -5.994   4.842  0.00  0.00    -0.276 N 
ATOM      5  C   UNL     1       4.697  -4.970   5.662  0.00  0.00    +0.114 C 
ATOM      6  C   UNL     1       3.763  -4.561   6.815  0.00  0.00    +0.052 C 
ATOM      7  C   UNL     1       3.213  -5.838   7.400  0.00  0.00    -0.035 C 
ATOM      8  C   UNL     1       3.175  -6.286   8.649  0.00  0.00    +0.003 A 
ATOM      9  C   UNL     1       3.551  -5.665   9.928  0.00  0.00    +0.055 A 
ATOM     10  C   UNL     1       3.400  -6.427  11.045  0.00  0.00    +0.121 A 
ATOM     11  C   UNL     1       2.915  -7.743  11.036  0.00  0.00    +0.047 A 
ATOM     12  C   UNL     1       2.532  -8.409   9.917  0.00  0.00    +0.029 A 
ATOM     13  C   UNL     1       2.641  -7.683   8.644  0.00  0.00    +0.043 A 
ATOM     14  N   UNL     1       2.333  -8.049   7.436  0.00  0.00    -0.375 N 
ATOM     15  C   UNL     1       2.572  -6.918   6.537  0.00  0.00    +0.131 C 
ATOM     16  C   UNL     1       3.581  -7.256   5.442  0.00  0.00    +0.134 C 
ATOM     17  H   UNL     1       4.809  -3.999   3.489  0.00  0.00    +0.150 HD
ATOM     18  H   UNL     1       2.003  -8.922   7.174  0.00  0.00    +0.160 HD
ENDROOT
BRANCH  16  19
ATOM     19  C   UNL     1       2.921  -8.111   4.390  0.00  0.00    -0.025 A 
ATOM     20  C   UNL     1       1.693  -7.745   3.872  0.00  0.00    +0.006 A 
ATOM     21  C   UNL     1       1.089  -8.529   2.908  0.00  0.00    +0.004 A 
ATOM     22  C   UNL     1       1.712  -9.679   2.461  0.00  0.00    -0.050 A 
ATOM     23  C   UNL     1       2.941 -10.044   2.978  0.00  0.00    +0.004 A 
ATOM     24  C   UNL     1       3.548  -9.258   3.940  0.00  0.00    +0.006 A 
ATOM     25  C   UNL     1       1.053 -10.534   1.410  0.00  0.00    +0.044 C 
ENDBRANCH  16  19
BRANCH  10  26
ATOM     26  O   UNL     1       3.740  -5.880  12.242  0.00  0.00    -0.495 OA
ATOM     27  C   UNL     1       3.572  -6.700  13.401  0.00  0.00    +0.277 C 
ENDBRANCH  10  26
BRANCH   1  28
ATOM     28  C   UNL     1       4.256  -4.485   1.497  0.00  0.00    +0.108 C 
BRANCH  28  29
ATOM     29  C   UNL     1       4.915  -3.162   1.101  0.00  0.00    +0.047 C 
BRANCH  29  30
ATOM     30  C   UNL     1       4.800  -2.969  -0.412  0.00  0.00    +0.161 C 
BRANCH  30  31
ATOM     31  O   UNL     1       5.415  -1.733  -0.783  0.00  0.00    -0.380 OA
BRANCH  31  33
ATOM     32  C   UNL     1       6.048  -0.115  -2.463  0.00  0.00    +0.034 C 
ATOM     33  C   UNL     1       5.363  -1.455  -2.183  0.00  0.00    +0.156 C 
ENDBRANCH  31  33
ENDBRANCH  30  31
ENDBRANCH  29  30
ENDBRANCH  28  29
ENDBRANCH   1  28
TORSDOF 7
