REMARK  Name = ZINC59151946
REMARK  13 active torsions:
REMARK  status: ('A' for Active; 'I' for Inactive)
REMARK    1  A    between atoms: C_1  and  C_2
REMARK    2  A    between atoms: C_5  and  N_9
REMARK    3  A    between atoms: C_6  and  C_8
REMARK    4  A    between atoms: C_10  and  C_31
REMARK    5  A    between atoms: C_11  and  C_15
REMARK    6  A    between atoms: C_12  and  C_14
REMARK    7  A    between atoms: N_16  and  N_17
REMARK    8  A    between atoms: C_18  and  C_20
REMARK    9  A    between atoms: C_20  and  O_21
REMARK   10  A    between atoms: O_21  and  C_22
REMARK   11  A    between atoms: C_23  and  C_30
REMARK   12  A    between atoms: C_25  and  C_29
REMARK   13  A    between atoms: C_27  and  C_28
REMARK                            x       y       z     vdW  Elec       q    Type
REMARK                         _______ _______ _______ _____ _____    ______ ____
ROOT
ATOM      1  C   UNL     1       0.306  -7.381  -1.763  0.00  0.00    +0.142 C 
ATOM      2  N   UNL     1       0.423  -8.576  -1.273  0.00  0.00    -0.188 NA
ENDROOT
BRANCH   1   5
ATOM      3  N   UNL     1       0.212  -4.147  -0.113  0.00  0.00    -0.236 N 
ATOM      4  C   UNL     1       0.177  -4.891  -1.239  0.00  0.00    +0.051 A 
ATOM      5  C   UNL     1       0.295  -6.212  -0.862  0.00  0.00    +0.038 A 
ATOM      6  C   UNL     1       0.402  -6.239   0.546  0.00  0.00    +0.069 A 
ATOM      7  N   UNL     1       0.358  -5.008   0.981  0.00  0.00    -0.171 NA
ATOM      8  C   UNL     1       0.549  -7.473   1.398  0.00  0.00    +0.068 C 
ATOM      9  C   UNL     1       0.037  -4.373  -2.647  0.00  0.00    +0.066 C 
BRANCH   3  14
ATOM     10  C   UNL     1      -0.152   1.511   0.140  0.00  0.00    +0.044 C 
ATOM     11  C   UNL     1      -0.055   0.009   0.073  0.00  0.00    -0.050 A 
ATOM     12  C   UNL     1       0.818  -0.588  -0.818  0.00  0.00    +0.005 A 
ATOM     13  C   UNL     1       0.909  -1.964  -0.881  0.00  0.00    +0.028 A 
ATOM     14  C   UNL     1       0.122  -2.750  -0.050  0.00  0.00    +0.069 A 
ATOM     15  C   UNL     1      -0.754  -2.148   0.844  0.00  0.00    -0.025 A 
ATOM     16  C   UNL     1      -0.836  -0.771   0.907  0.00  0.00    +0.008 A 
ATOM     17  C   UNL     1      -1.610  -2.997   1.748  0.00  0.00    +0.046 C 
ENDBRANCH   3  14
ENDBRANCH   1   5
BRANCH   2  18
ATOM     18  N   UNL     1       0.434  -9.686  -2.128  0.00  0.00    -0.204 N 
ATOM     19  C   UNL     1       0.556 -10.928  -1.619  0.00  0.00    +0.270 C 
ATOM     20  O   UNL     1       0.656 -11.085  -0.420  0.00  0.00    -0.270 OA
ATOM     21  H   UNL     1       0.354  -9.560  -3.087  0.00  0.00    +0.177 HD
BRANCH  19  22
ATOM     22  C   UNL     1       0.567 -12.121  -2.539  0.00  0.00    +0.326 C 
BRANCH  22  23
ATOM     23  O   UNL     1       0.706 -13.316  -1.767  0.00  0.00    -0.482 OA
BRANCH  23  24
ATOM     24  C   UNL     1       0.734 -14.491  -2.449  0.00  0.00    +0.127 A 
ATOM     25  C   UNL     1      -0.447 -15.170  -2.713  0.00  0.00    -0.008 A 
ATOM     26  C   UNL     1      -0.416 -16.364  -3.407  0.00  0.00    +0.010 A 
ATOM     27  C   UNL     1       0.791 -16.883  -3.838  0.00  0.00    -0.050 A 
ATOM     28  C   UNL     1       1.969 -16.209  -3.575  0.00  0.00    +0.010 A 
ATOM     29  C   UNL     1       1.943 -15.012  -2.887  0.00  0.00    -0.008 A 
ATOM     30  C   UNL     1       3.227 -14.275  -2.607  0.00  0.00    +0.047 C 
ATOM     31  C   UNL     1       0.822 -18.186  -4.594  0.00  0.00    +0.044 C 
ATOM     32  C   UNL     1      -1.763 -14.605  -2.244  0.00  0.00    +0.047 C 
ENDBRANCH  23  24
ENDBRANCH  22  23
ENDBRANCH  19  22
ENDBRANCH   2  18
TORSDOF 6
