REMARK  Name = ZINC09329937
REMARK  6 active torsions:
REMARK  status: ('A' for Active; 'I' for Inactive)
REMARK    1  A    between atoms: C_1  and  C_2
REMARK    2  A    between atoms: C_5  and  C_8
REMARK    3  A    between atoms: C_8  and  C_10
REMARK    4  A    between atoms: C_12  and  C_30
REMARK    5  A    between atoms: C_22  and  C_29
REMARK    6  A    between atoms: C_33  and  N_36
REMARK                            x       y       z     vdW  Elec       q    Type
REMARK                         _______ _______ _______ _____ _____    ______ ____
ROOT
ATOM      1  C   UNL     1       3.533   1.521   1.324  0.00  0.00    +0.069 C 
ATOM      2  C   UNL     1       3.974   1.869  -0.112  0.00  0.00    +0.016 C 
ATOM      3  C   UNL     1       5.513   1.904  -0.069  0.00  0.00    -0.047 C 
ATOM      4  C   UNL     1       6.072   1.317  -1.381  0.00  0.00    +0.052 C 
ATOM      5  S   UNL     1       6.888  -0.227  -0.787  0.00  0.00    -0.181 S 
ATOM      6  C   UNL     1       6.065  -0.305   0.865  0.00  0.00    -0.005 C 
ATOM      7  C   UNL     1       4.833   1.357   2.117  0.00  0.00    +0.052 C 
ATOM      8  C   UNL     1       5.100   2.558   2.982  0.00  0.00    -0.027 A 
ATOM      9  C   UNL     1       5.279   3.897   2.711  0.00  0.00    +0.008 A 
ATOM     10  C   UNL     1       5.517   4.785   3.744  0.00  0.00    -0.050 A 
ATOM     11  C   UNL     1       5.574   4.326   5.048  0.00  0.00    +0.005 A 
ATOM     12  C   UNL     1       5.394   2.986   5.323  0.00  0.00    +0.024 A 
ATOM     13  C   UNL     1       5.153   2.085   4.289  0.00  0.00    +0.036 A 
ATOM     14  N   UNL     1       4.941   0.705   4.311  0.00  0.00    -0.286 N 
ATOM     15  C   UNL     1       4.744   0.201   3.078  0.00  0.00    +0.212 C 
ATOM     16  O   UNL     1       4.535  -0.960   2.796  0.00  0.00    -0.277 OA
ATOM     17  C   UNL     1       5.714   6.250   3.451  0.00  0.00    +0.044 C 
ATOM     18  H   UNL     1       4.937   0.171   5.121  0.00  0.00    +0.155 HD
ATOM     19  N   UNL     1       5.896   1.168   1.146  0.00  0.00    +0.401 N 
ATOM     20  H   UNL     1       6.777   1.544   1.513  0.00  0.00    -0.078 HD
ENDROOT
BRANCH   2  21
ATOM     21  C   UNL     1       3.432   3.217  -0.513  0.00  0.00    -0.045 A 
ATOM     22  C   UNL     1       2.093   3.358  -0.825  0.00  0.00    +0.006 A 
ATOM     23  C   UNL     1       1.597   4.593  -1.198  0.00  0.00    +0.033 A 
ATOM     24  C   UNL     1       2.438   5.689  -1.248  0.00  0.00    +0.126 A 
ATOM     25  C   UNL     1       3.777   5.548  -0.937  0.00  0.00    +0.033 A 
ATOM     26  C   UNL     1       4.274   4.311  -0.569  0.00  0.00    +0.006 A 
BRANCH  24  27
ATOM     27  N   UNL     1       1.905   7.013  -1.642  0.00  0.00    +0.056 N 
ATOM     28  O   UNL     1       2.647   7.978  -1.691  0.00  0.00    -0.126 OA
ATOM     29  O   UNL     1       0.725   7.138  -1.917  0.00  0.00    -0.126 OA
ENDBRANCH  24  27
ENDBRANCH   2  21
BRANCH   1  30
ATOM     30  C   UNL     1       2.706   2.640   1.903  0.00  0.00    +0.166 C 
ATOM     31  O   UNL     1       3.044   3.792   1.736  0.00  0.00    -0.292 OA
BRANCH  30  36
ATOM     32  C   UNL     1      -2.052   1.446   4.901  0.00  0.00    +0.044 C 
ATOM     33  C   UNL     1      -0.805   1.759   4.114  0.00  0.00    -0.050 A 
ATOM     34  C   UNL     1      -0.358   3.066   4.025  0.00  0.00    +0.004 A 
ATOM     35  C   UNL     1       0.783   3.360   3.308  0.00  0.00    +0.011 A 
ATOM     36  C   UNL     1       1.488   2.334   2.670  0.00  0.00    +0.018 A 
ATOM     37  C   UNL     1       1.026   1.018   2.760  0.00  0.00    +0.011 A 
ATOM     38  C   UNL     1      -0.113   0.738   3.486  0.00  0.00    +0.004 A 
ENDBRANCH  30  36
ENDBRANCH   1  30
TORSDOF 4
