REMARK  Name = ZINC35665426
REMARK  12 active torsions:
REMARK  status: ('A' for Active; 'I' for Inactive)
REMARK    1  A    between atoms: C_1  and  C_2
REMARK    2  A    between atoms: C_2  and  O_3
REMARK    3  A    between atoms: O_3  and  C_4
REMARK    4  A    between atoms: C_4  and  C_6
REMARK    5  A    between atoms: C_7  and  C_24
REMARK    6  A    between atoms: N_8  and  C_21
REMARK    7  A    between atoms: C_12  and  C_14
REMARK    8  A    between atoms: C_19  and  C_20
REMARK    9  A    between atoms: C_21  and  C_22
REMARK   10  A    between atoms: C_24  and  N_25
REMARK   11  A    between atoms: C_32  and  C_34
REMARK   12  A    between atoms: C_37  and  C_40
REMARK                            x       y       z     vdW  Elec       q    Type
REMARK                         _______ _______ _______ _____ _____    ______ ____
ROOT
ATOM      1  C   UNL     1       1.221  -0.885  -1.301  0.00  0.00    +0.076 C 
ATOM      2  C   UNL     1       1.096  -2.172  -1.691  0.00  0.00    +0.011 C 
ATOM      3  N   UNL     1       1.767  -2.646  -2.782  0.00  0.00    -0.257 N 
ATOM      4  C   UNL     1       2.582  -1.897  -3.535  0.00  0.00    +0.307 C 
ATOM      5  O   UNL     1       3.136  -2.409  -4.489  0.00  0.00    -0.252 OA
ATOM      6  N   UNL     1       2.807  -0.595  -3.272  0.00  0.00    -0.288 N 
ATOM      7  C   UNL     1       2.125   0.015  -2.118  0.00  0.00    +0.144 C 
ATOM      8  H   UNL     1       3.402  -0.071  -3.831  0.00  0.00    +0.151 HD
ENDROOT
BRANCH   7   9
ATOM      9  C   UNL     1       1.300   1.172  -2.619  0.00  0.00    -0.020 A 
ATOM     10  C   UNL     1       0.644   1.079  -3.832  0.00  0.00    +0.006 A 
ATOM     11  C   UNL     1      -0.113   2.141  -4.291  0.00  0.00    +0.000 A 
ATOM     12  C   UNL     1      -0.216   3.295  -3.537  0.00  0.00    +0.000 A 
ATOM     13  C   UNL     1       0.439   3.387  -2.323  0.00  0.00    +0.004 A 
ATOM     14  C   UNL     1       1.193   2.324  -1.862  0.00  0.00    -0.045 A 
ATOM     15  C   UNL     1       1.903   2.422  -0.536  0.00  0.00    +0.044 C 
ENDBRANCH   7   9
BRANCH   1  16
ATOM     16  C   UNL     1       0.526  -0.393  -0.171  0.00  0.00    +0.339 C 
ATOM     17  O   UNL     1       1.111  -0.242   0.885  0.00  0.00    -0.245 OA
BRANCH  16  18
ATOM     18  O   UNL     1      -0.785  -0.090  -0.265  0.00  0.00    -0.462 OA
BRANCH  18  20
ATOM     19  C   UNL     1      -2.898   0.666   0.632  0.00  0.00    +0.048 C 
ATOM     20  C   UNL     1      -1.397   0.507   0.881  0.00  0.00    +0.229 C 
ENDBRANCH  18  20
ENDBRANCH  16  18
ENDBRANCH   1  16
BRANCH   3  21
ATOM     21  C   UNL     1       1.585  -4.053  -3.148  0.00  0.00    +0.141 C 
BRANCH  21  22
ATOM     22  C   UNL     1       0.521  -4.162  -4.210  0.00  0.00    -0.015 C 
ATOM     23  C   UNL     1       0.786  -4.765  -5.343  0.00  0.00    +0.005 C 
ENDBRANCH  21  22
ENDBRANCH   3  21
BRANCH   2  24
ATOM     24  C   UNL     1       0.203  -3.100  -0.909  0.00  0.00    -0.026 C 
BRANCH  24  25
ATOM     25  N   UNL     1       1.027  -4.001  -0.092  0.00  0.00    +0.384 N 
ATOM     26  C   UNL     1       0.167  -5.054   0.443  0.00  0.00    -0.077 C 
ATOM     27  C   UNL     1       0.984  -6.312   0.640  0.00  0.00    +0.000 C 
ATOM     28  C   UNL     1       1.512  -6.359   2.086  0.00  0.00    +0.106 C 
ATOM     29  N   UNL     1       1.944  -5.021   2.537  0.00  0.00    -0.299 N 
ATOM     30  C   UNL     1       2.683  -4.115   1.681  0.00  0.00    +0.089 C 
ATOM     31  C   UNL     1       1.700  -3.229   0.881  0.00  0.00    -0.059 C 
ATOM     32  C   UNL     1       1.639  -4.627   3.789  0.00  0.00    +0.247 C 
ATOM     33  O   UNL     1       2.045  -3.560   4.206  0.00  0.00    -0.270 OA
ATOM     34  H   UNL     1       1.717  -4.430  -0.691  0.00  0.00    -0.081 HD
BRANCH  32  35
ATOM     35  C   UNL     1       0.813  -5.494   4.656  0.00  0.00    +0.037 A 
ATOM     36  C   UNL     1       1.109  -6.853   4.775  0.00  0.00    +0.013 A 
ATOM     37  C   UNL     1       0.334  -7.656   5.586  0.00  0.00    +0.004 A 
ATOM     38  C   UNL     1      -0.736  -7.117   6.279  0.00  0.00    -0.050 A 
ATOM     39  C   UNL     1      -1.035  -5.771   6.165  0.00  0.00    +0.004 A 
ATOM     40  C   UNL     1      -0.264  -4.956   5.362  0.00  0.00    +0.013 A 
ATOM     41  C   UNL     1      -1.579  -8.001   7.162  0.00  0.00    +0.044 C 
ENDBRANCH  32  35
ENDBRANCH  24  25
ENDBRANCH   2  24
TORSDOF 9
