REMARK  Name = ZINC24916051
REMARK  8 active torsions:
REMARK  status: ('A' for Active; 'I' for Inactive)
REMARK    1  A    between atoms: C_1  and  C_2
REMARK    2  A    between atoms: C_2  and  O_3
REMARK    3  A    between atoms: O_3  and  C_4
REMARK    4  A    between atoms: C_7  and  C_10
REMARK    5  A    between atoms: C_13  and  S_22
REMARK    6  A    between atoms: N_14  and  C_15
REMARK    7  A    between atoms: S_22  and  C_23
REMARK    8  A    between atoms: C_23  and  C_24
REMARK                            x       y       z     vdW  Elec       q    Type
REMARK                         _______ _______ _______ _____ _____    ______ ____
ROOT
ATOM      1  C   UNL     1       1.053   0.360   4.646  0.00  0.00    +0.169 A 
ATOM      2  N   UNL     1       1.760  -0.127   3.653  0.00  0.00    -0.128 NA
ATOM      3  N   UNL     1       1.244   0.226   2.530  0.00  0.00    -0.122 NA
ATOM      4  C   UNL     1       0.174   0.961   2.735  0.00  0.00    +0.197 A 
ATOM      5  N   UNL     1       0.016   1.077   4.090  0.00  0.00    -0.267 N 
ENDROOT
BRANCH   5   6
ATOM      6  C   UNL     1      -0.991   1.778   4.769  0.00  0.00    +0.086 A 
ATOM      7  C   UNL     1      -2.174   1.137   5.112  0.00  0.00    +0.029 A 
ATOM      8  C   UNL     1      -3.164   1.829   5.781  0.00  0.00    +0.002 A 
ATOM      9  C   UNL     1      -2.980   3.160   6.110  0.00  0.00    +0.003 A 
ATOM     10  C   UNL     1      -1.804   3.803   5.771  0.00  0.00    +0.040 A 
ATOM     11  C   UNL     1      -0.805   3.114   5.105  0.00  0.00    +0.147 A 
ATOM     12  F   UNL     1       0.346   3.740   4.778  0.00  0.00    -0.203 F 
ENDBRANCH   5   6
BRANCH   1  16
ATOM     13  C   UNL     1       1.823  -0.161   8.792  0.00  0.00    +0.121 A 
ATOM     14  C   UNL     1       2.809  -0.462   7.861  0.00  0.00    +0.046 A 
ATOM     15  C   UNL     1       2.563  -0.294   6.515  0.00  0.00    +0.015 A 
ATOM     16  C   UNL     1       1.321   0.179   6.088  0.00  0.00    +0.020 A 
ATOM     17  C   UNL     1       0.334   0.485   7.027  0.00  0.00    +0.015 A 
ATOM     18  C   UNL     1       0.587   0.310   8.371  0.00  0.00    +0.046 A 
BRANCH  13  19
ATOM     19  O   UNL     1       2.070  -0.328  10.117  0.00  0.00    -0.492 OA
BRANCH  19  21
ATOM     20  C   UNL     1       1.472  -0.250  12.458  0.00  0.00    +0.048 C 
ATOM     21  C   UNL     1       1.012   0.000  11.020  0.00  0.00    +0.225 C 
ENDBRANCH  19  21
ENDBRANCH  13  19
ENDBRANCH   1  16
BRANCH   4  22
ATOM     22  S   UNL     1      -0.860   1.669   1.497  0.00  0.00    -0.076 S 
BRANCH  22  23
ATOM     23  C   UNL     1      -0.013   1.086   0.008  0.00  0.00    +0.173 C 
BRANCH  23  24
ATOM     24  C   UNL     1      -0.742   1.585  -1.213  0.00  0.00    +0.233 C 
ATOM     25  O   UNL     1      -1.736   2.268  -1.089  0.00  0.00    -0.274 OA
ATOM     26  N   UNL     1      -0.288   1.272  -2.443  0.00  0.00    -0.224 N 
ATOM     27  C   UNL     1      -0.904   1.694  -3.710  0.00  0.00    +0.136 C 
ATOM     28  C   UNL     1       0.004   1.069  -4.787  0.00  0.00    +0.125 C 
ATOM     29  N   UNL     1       1.034   0.362  -4.013  0.00  0.00    -0.297 N 
ATOM     30  C   UNL     1       0.797   0.533  -2.705  0.00  0.00    +0.309 C 
ATOM     31  O   UNL     1       1.501   0.058  -1.836  0.00  0.00    -0.252 OA
ATOM     32  H   UNL     1       1.831  -0.191  -4.533  0.00  0.00    +0.150 HD
ENDBRANCH  23  24
ENDBRANCH  22  23
ENDBRANCH   4  22
TORSDOF 7
