REMARK  Name = ZINC32693698
REMARK  6 active torsions:
REMARK  status: ('A' for Active; 'I' for Inactive)
REMARK    1  A    between atoms: C_6  and  C_7
REMARK    2  A    between atoms: C_7  and  N_8
REMARK    3  A    between atoms: N_11  and  N_14
REMARK    4  A    between atoms: C_15  and  C_16
REMARK    5  A    between atoms: C_17  and  N_29
REMARK    6  A    between atoms: C_19  and  C_20
REMARK                            x       y       z     vdW  Elec       q    Type
REMARK                         _______ _______ _______ _____ _____    ______ ____
ROOT
ATOM      1  C   UNL     1      -0.883   3.237   1.197  0.00  0.00    -0.008 C 
ATOM      2  C   UNL     1      -1.115   1.913   1.024  0.00  0.00    +0.022 C 
ATOM      3  C   UNL     1      -0.054   1.274   0.256  0.00  0.00    -0.027 C 
ATOM      4  C   UNL     1       0.009  -0.032  -0.080  0.00  0.00    +0.013 C 
ATOM      5  C   UNL     1       0.961   2.337  -0.101  0.00  0.00    +0.042 C 
ATOM      6  C   UNL     1       0.408   3.628   0.523  0.00  0.00    +0.043 C 
ENDROOT
BRANCH   4   7
ATOM      7  C   UNL     1      -1.206  -0.861  -0.040  0.00  0.00    -0.025 A 
ATOM      8  C   UNL     1      -1.185  -2.108   0.593  0.00  0.00    +0.009 A 
ATOM      9  C   UNL     1      -2.329  -2.876   0.633  0.00  0.00    +0.020 A 
ATOM     10  C   UNL     1      -3.494  -2.422   0.036  0.00  0.00    +0.041 A 
ATOM     11  C   UNL     1      -3.520  -1.191  -0.599  0.00  0.00    +0.020 A 
ATOM     12  C   UNL     1      -2.386  -0.409  -0.640  0.00  0.00    +0.009 A 
ATOM     13 CL   UNL     1      -4.927  -3.400   0.084  0.00  0.00    -0.084 Cl
ENDBRANCH   4   7
BRANCH   2  14
ATOM     14  N   UNL     1      -2.231   1.244   1.523  0.00  0.00    -0.389 NA
ATOM     15  C   UNL     1      -2.092   0.204   2.555  0.00  0.00    +0.113 C 
ATOM     16  C   UNL     1      -3.077   0.523   3.692  0.00  0.00    +0.177 C 
ATOM     17  O   UNL     1      -4.385   0.701   3.143  0.00  0.00    -0.377 OA
ATOM     18  C   UNL     1      -4.494   1.800   2.235  0.00  0.00    +0.177 C 
ATOM     19  C   UNL     1      -3.583   1.551   1.028  0.00  0.00    +0.113 C 
ATOM     20  H   UNL     1      -1.358   1.812   1.170  0.00  0.00    +0.127 HD
ENDBRANCH   2  14
BRANCH   1  22
ATOM     21  N   UNL     1      -1.465   5.399   1.923  0.00  0.00    -0.192 NA
ATOM     22  C   UNL     1      -1.730   4.122   1.901  0.00  0.00    +0.135 C 
BRANCH  21  26
ATOM     23  N   UNL     1      -3.469   7.909   4.513  0.00  0.00    -0.295 NA
ATOM     24  C   UNL     1      -2.211   8.321   3.876  0.00  0.00    +0.105 C 
ATOM     25  C   UNL     1      -2.146   7.742   2.459  0.00  0.00    +0.141 C 
ATOM     26  N   UNL     1      -2.356   6.288   2.538  0.00  0.00    -0.253 N 
ATOM     27  C   UNL     1      -3.529   5.794   3.275  0.00  0.00    +0.141 C 
ATOM     28  C   UNL     1      -3.536   6.449   4.665  0.00  0.00    +0.105 C 
BRANCH  23  29
ATOM     29  C   UNL     1      -3.650   8.582   5.806  0.00  0.00    +0.119 C 
BRANCH  29  35
ATOM     30  C   UNL     1      -6.069   9.203   5.982  0.00  0.00    +0.006 A 
ATOM     31  C   UNL     1      -7.351   8.970   6.441  0.00  0.00    +0.020 A 
ATOM     32  C   UNL     1      -7.611   7.870   7.240  0.00  0.00    +0.041 A 
ATOM     33  C   UNL     1      -6.587   7.001   7.573  0.00  0.00    +0.020 A 
ATOM     34  C   UNL     1      -5.306   7.232   7.109  0.00  0.00    +0.006 A 
ATOM     35  C   UNL     1      -5.047   8.331   6.311  0.00  0.00    -0.033 A 
ATOM     36 CL   UNL     1      -9.220   7.580   7.822  0.00  0.00    -0.084 Cl
ENDBRANCH  29  35
ENDBRANCH  23  29
ENDBRANCH  21  26
ENDBRANCH   1  22
TORSDOF 6
