REMARK  Name = ZINC03877578
REMARK  8 active torsions:
REMARK  status: ('A' for Active; 'I' for Inactive)
REMARK    1  A    between atoms: C_1  and  C_2
REMARK    2  A    between atoms: C_2  and  C_3
REMARK    3  A    between atoms: C_4  and  O_23
REMARK    4  A    between atoms: C_5  and  N_10
REMARK    5  A    between atoms: C_7  and  C_9
REMARK    6  A    between atoms: C_11  and  C_13
REMARK    7  A    between atoms: O_23  and  C_24
REMARK    8  A    between atoms: C_24  and  C_26
REMARK                            x       y       z     vdW  Elec       q    Type
REMARK                         _______ _______ _______ _____ _____    ______ ____
ROOT
ATOM      1  C   UNL     1      -3.050   9.226  -1.909  0.00  0.00    +0.085 A 
ATOM      2  C   UNL     1      -2.947   7.847  -1.957  0.00  0.00    +0.174 A 
ATOM      3  C   UNL     1      -2.237   7.185  -0.951  0.00  0.00    +0.080 A 
ATOM      4  C   UNL     1      -1.651   7.951   0.054  0.00  0.00    +0.050 A 
ATOM      5  C   UNL     1      -1.796   9.323   0.025  0.00  0.00    +0.041 A 
ATOM      6  N   UNL     1      -2.479   9.912  -0.938  0.00  0.00    -0.253 NA
ATOM      7  C   UNL     1      -1.166  10.159   1.109  0.00  0.00    +0.065 C 
ENDROOT
BRANCH   3   8
ATOM      8  N   UNL     1      -2.112   5.794  -0.958  0.00  0.00    -0.282 N 
ATOM      9  C   UNL     1      -2.070   5.116   0.206  0.00  0.00    +0.223 C 
ATOM     10  O   UNL     1      -2.064   5.718   1.259  0.00  0.00    -0.275 OA
ATOM     11  H   UNL     1      -2.057   5.316  -1.800  0.00  0.00    +0.155 HD
BRANCH   9  12
ATOM     12  C   UNL     1      -2.029   3.610   0.200  0.00  0.00    +0.048 C 
ATOM     13  C   UNL     1      -0.782   3.136  -0.549  0.00  0.00    +0.019 C 
ATOM     14  C   UNL     1      -0.741   1.607  -0.556  0.00  0.00    -0.009 C 
ATOM     15  C   UNL     1      -0.697   1.092   0.884  0.00  0.00    +0.007 C 
ATOM     16  C   UNL     1      -1.944   1.565   1.633  0.00  0.00    -0.009 C 
ATOM     17  C   UNL     1      -1.985   3.094   1.640  0.00  0.00    +0.019 C 
ATOM     18  C   UNL     1      -3.194   1.024   0.936  0.00  0.00    +0.007 C 
ATOM     19  C   UNL     1      -3.237   1.539  -0.504  0.00  0.00    -0.009 C 
ATOM     20  C   UNL     1      -1.990   1.066  -1.254  0.00  0.00    +0.007 C 
ATOM     21  C   UNL     1      -3.279   3.069  -0.498  0.00  0.00    +0.019 C 
ENDBRANCH   9  12
ENDBRANCH   3   8
BRANCH   1  23
ATOM     22  C   UNL     1      -2.874  10.311  -4.132  0.00  0.00    +0.010 C 
ATOM     23  C   UNL     1      -3.818   9.954  -2.983  0.00  0.00    +0.056 C 
ENDBRANCH   1  23
BRANCH   2  24
ATOM     24  O   UNL     1      -3.533   7.145  -2.964  0.00  0.00    -0.422 OA
BRANCH  24  25
ATOM     25  C   UNL     1      -4.798   6.739  -2.768  0.00  0.00    +0.319 C 
ATOM     26  O   UNL     1      -5.363   7.000  -1.733  0.00  0.00    -0.250 OA
BRANCH  25  27
ATOM     27  C   UNL     1      -5.512   5.956  -3.840  0.00  0.00    +0.069 C 
ATOM     28  C   UNL     1      -4.747   4.662  -4.122  0.00  0.00    +0.021 C 
ATOM     29  C   UNL     1      -5.472   3.867  -5.210  0.00  0.00    -0.009 C 
ATOM     30  C   UNL     1      -6.888   3.530  -4.737  0.00  0.00    +0.007 C 
ATOM     31  C   UNL     1      -7.653   4.825  -4.455  0.00  0.00    -0.009 C 
ATOM     32  C   UNL     1      -6.928   5.620  -3.367  0.00  0.00    +0.021 C 
ATOM     33  C   UNL     1      -7.728   5.662  -5.734  0.00  0.00    +0.007 C 
ATOM     34  C   UNL     1      -6.312   5.999  -6.206  0.00  0.00    -0.009 C 
ATOM     35  C   UNL     1      -5.547   4.704  -6.488  0.00  0.00    +0.007 C 
ATOM     36  C   UNL     1      -5.587   6.793  -5.118  0.00  0.00    +0.021 C 
ENDBRANCH  25  27
ENDBRANCH  24  25
ENDBRANCH   2  24
TORSDOF 6
