REMARK  Name = ZINC11918121
REMARK  7 active torsions:
REMARK  status: ('A' for Active; 'I' for Inactive)
REMARK    1  A    between atoms: N_9  and  C_14
REMARK    2  A    between atoms: C_14  and  C_15
REMARK    3  A    between atoms: C_15  and  C_16
REMARK    4  A    between atoms: C_16  and  C_17
REMARK    5  A    between atoms: C_17  and  C_18
REMARK    6  A    between atoms: C_18  and  C_19
REMARK    7  A    between atoms: N_21  and  C_22
REMARK                            x       y       z     vdW  Elec       q    Type
REMARK                         _______ _______ _______ _____ _____    ______ ____
ROOT
ATOM      1  C   UNL     1       2.460   1.007   0.105  0.00  0.00    +0.096 C 
ENDROOT
BRANCH   1   2
ATOM      2  C   UNL     1       1.123   1.694   0.006  0.00  0.00    +0.217 C 
ATOM      3  O   UNL     1       1.067   2.903  -0.075  0.00  0.00    -0.275 OA
ATOM      4  N   UNL     1      -0.011   0.966   0.007  0.00  0.00    -0.285 N 
ATOM      5  H   UNL     1       0.035  -0.003   0.005  0.00  0.00    +0.155 HD
BRANCH   4   6
ATOM      6  C   UNL     1      -1.256   1.608   0.007  0.00  0.00    +0.037 A 
ATOM      7  C   UNL     1      -2.325   1.050   0.695  0.00  0.00    +0.027 A 
ATOM      8  C   UNL     1      -3.554   1.684   0.700  0.00  0.00    +0.051 A 
ATOM      9  C   UNL     1      -3.723   2.871   0.010  0.00  0.00    +0.167 A 
ATOM     10  C   UNL     1      -2.653   3.432  -0.686  0.00  0.00    +0.169 A 
ATOM     11  C   UNL     1      -1.423   2.800  -0.686  0.00  0.00    +0.072 A 
ATOM     12  O   UNL     1      -3.083   4.592  -1.277  0.00  0.00    -0.447 OA
ATOM     13  C   UNL     1      -4.249   4.951  -0.522  0.00  0.00    +0.254 C 
ATOM     14  O   UNL     1      -4.815   3.686  -0.151  0.00  0.00    -0.448 OA
ATOM     15  C   UNL     1      -5.229   5.768  -1.371  0.00  0.00    +0.093 C 
ATOM     16  C   UNL     1      -5.857   6.764  -0.362  0.00  0.00    +0.008 C 
ATOM     17  C   UNL     1      -4.665   7.116   0.564  0.00  0.00    +0.008 C 
ATOM     18  C   UNL     1      -3.889   5.787   0.705  0.00  0.00    +0.093 C 
ENDBRANCH   4   6
ENDBRANCH   1   2
BRANCH   1  19
ATOM     19  C   UNL     1       3.575   2.054   0.082  0.00  0.00    +0.009 C 
BRANCH  19  20
ATOM     20  C   UNL     1       4.933   1.356   0.182  0.00  0.00    +0.002 C 
BRANCH  20  21
ATOM     21  C   UNL     1       6.048   2.404   0.159  0.00  0.00    +0.022 C 
BRANCH  21  22
ATOM     22  C   UNL     1       7.406   1.706   0.260  0.00  0.00    +0.127 C 
BRANCH  22  31
ATOM     23  C   UNL     1      11.495   5.775   2.405  0.00  0.00    +0.001 A 
ATOM     24  C   UNL     1      12.005   6.127   1.165  0.00  0.00    +0.002 A 
ATOM     25  C   UNL     1      11.514   5.546   0.012  0.00  0.00    +0.026 A 
ATOM     26  C   UNL     1      10.502   4.603   0.093  0.00  0.00    +0.053 A 
ATOM     27  C   UNL     1       9.984   4.246   1.351  0.00  0.00    +0.063 A 
ATOM     28  C   UNL     1      10.487   4.838   2.506  0.00  0.00    +0.015 A 
ATOM     29  C   UNL     1       8.908   3.239   1.401  0.00  0.00    +0.262 A 
ATOM     30  O   UNL     1       8.426   2.894   2.463  0.00  0.00    -0.267 OA
ATOM     31  N   UNL     1       8.473   2.708   0.237  0.00  0.00    -0.288 N 
ATOM     32  C   UNL     1       9.004   3.079  -0.939  0.00  0.00    +0.161 A 
ATOM     33  S   UNL     1       8.405   2.358  -2.371  0.00  0.00    -0.013 S 
ATOM     34  N   UNL     1       9.982   3.996  -1.040  0.00  0.00    -0.335 N 
ATOM     35  H   UNL     1      10.330   4.232  -1.914  0.00  0.00    +0.168 HD
ENDBRANCH  22  31
ENDBRANCH  21  22
ENDBRANCH  20  21
ENDBRANCH  19  20
ENDBRANCH   1  19
TORSDOF 7
