REMARK  Name = ZINC19320115
REMARK  2 active torsions:
REMARK  status: ('A' for Active; 'I' for Inactive)
REMARK    1  A    between atoms: C_12  and  C_23
REMARK    2  A    between atoms: C_20  and  N_22
REMARK                            x       y       z     vdW  Elec       q    Type
REMARK                         _______ _______ _______ _____ _____    ______ ____
ROOT
ATOM      1  C   UNL     1       6.065   0.027  -1.306  0.00  0.00    +0.001 A 
ATOM      2  C   UNL     1       6.122  -1.293  -1.730  0.00  0.00    +0.004 A 
ATOM      3  C   UNL     1       4.992  -2.082  -1.731  0.00  0.00    +0.047 A 
ATOM      4  C   UNL     1       3.777  -1.558  -1.304  0.00  0.00    +0.143 A 
ATOM      5  C   UNL     1       3.720  -0.223  -0.874  0.00  0.00    +0.060 A 
ATOM      6  C   UNL     1       4.872   0.566  -0.879  0.00  0.00    +0.015 A 
ATOM      7  C   UNL     1       2.429   0.321  -0.424  0.00  0.00    +0.152 A 
ATOM      8  C   UNL     1       1.345  -0.508  -0.447  0.00  0.00    +0.091 A 
ATOM      9  C   UNL     1       1.497  -1.829  -0.891  0.00  0.00    +0.345 A 
ATOM     10  O   UNL     1       0.519  -2.556  -0.904  0.00  0.00    -0.245 OA
ATOM     11  O   UNL     1       2.669  -2.326  -1.303  0.00  0.00    -0.422 OA
ATOM     12  C   UNL     1       0.002  -0.004   0.002  0.00  0.00    +0.094 C 
ATOM     13  C   UNL     1      -0.018   1.504   0.010  0.00  0.00    +0.038 C 
ATOM     14  C   UNL     1       1.109   2.198   0.003  0.00  0.00    +0.195 C 
ATOM     15  O   UNL     1       2.320   1.593  -0.006  0.00  0.00    -0.440 OA
ATOM     16  N   UNL     1       1.056   3.593  -0.004  0.00  0.00    -0.276 N 
ATOM     17  C   UNL     1      -0.099   4.224  -0.385  0.00  0.00    +0.184 C 
ATOM     18  N   UNL     1      -1.224   3.601  -0.380  0.00  0.00    -0.253 NA
ATOM     19  C   UNL     1      -1.350   2.210   0.033  0.00  0.00    +0.203 C 
ATOM     20  H   UNL     1       1.938   4.179   0.295  0.00  0.00    +0.156 HD
ENDROOT
BRANCH  12  21
ATOM     21  C   UNL     1      -0.283  -0.514   1.391  0.00  0.00    -0.035 A 
ATOM     22  C   UNL     1       0.556  -0.177   2.437  0.00  0.00    +0.005 A 
ATOM     23  C   UNL     1       0.293  -0.640   3.712  0.00  0.00    +0.015 A 
ATOM     24  C   UNL     1      -0.805  -1.450   3.940  0.00  0.00    +0.018 A 
ATOM     25  C   UNL     1      -1.641  -1.792   2.892  0.00  0.00    +0.015 A 
ATOM     26  C   UNL     1      -1.380  -1.324   1.619  0.00  0.00    +0.005 A 
ATOM     27 BR   UNL     1      -1.162  -2.090   5.683  0.00  0.00    -0.050 Br
ENDBRANCH  12  21
BRANCH  19  28
ATOM     28  N   UNL     1      -1.896   2.160   1.396  0.00  0.00    -0.306 NA
ATOM     29  H   UNL     1      -2.868   2.674   1.420  0.00  0.00    +0.120 HD
ATOM     30  H   UNL     1      -2.028   1.111   1.700  0.00  0.00    +0.120 HD
ENDBRANCH  19  28
TORSDOF 2
