REMARK  Name = ZINC20576291
REMARK  5 active torsions:
REMARK  status: ('A' for Active; 'I' for Inactive)
REMARK    1  A    between atoms: C_4  and  C_7
REMARK    2  A    between atoms: C_7  and  N_8
REMARK    3  A    between atoms: C_23  and  C_24
REMARK    4  A    between atoms: C_24  and  N_25
REMARK    5  A    between atoms: N_28  and  C_31
REMARK                            x       y       z     vdW  Elec       q    Type
REMARK                         _______ _______ _______ _____ _____    ______ ____
ROOT
ATOM      1  N   UNL     1      10.055   1.772  -1.145  0.00  0.00    -0.295 NA
ATOM      2  C   UNL     1       9.783   0.882  -0.007  0.00  0.00    +0.103 C 
ATOM      3  C   UNL     1       8.333   0.399  -0.077  0.00  0.00    +0.122 C 
ATOM      4  N   UNL     1       7.431   1.559  -0.061  0.00  0.00    -0.306 N 
ATOM      5  C   UNL     1       7.703   2.449  -1.199  0.00  0.00    +0.122 C 
ATOM      6  C   UNL     1       9.153   2.932  -1.129  0.00  0.00    +0.103 C 
ATOM      7  C   UNL     1       6.102   1.157  -0.051  0.00  0.00    +0.186 A 
ATOM      8  N   UNL     1       5.581  -0.062  -0.053  0.00  0.00    -0.124 NA
ATOM      9  N   UNL     1       4.335  -0.254  -0.036  0.00  0.00    -0.121 NA
ATOM     10  C   UNL     1       3.471   0.748  -0.028  0.00  0.00    +0.202 A 
ATOM     11  S   UNL     1       4.603   2.135  -0.031  0.00  0.00    -0.013 S 
ATOM     12  N   UNL     1       2.075   0.729  -0.014  0.00  0.00    -0.297 N 
ATOM     13  C   UNL     1       1.264   1.828  -0.000  0.00  0.00    +0.093 A 
ATOM     14  C   UNL     1      -0.017   1.405   0.010  0.00  0.00    +0.020 A 
ATOM     15  C   UNL     1       0.002  -0.004   0.002  0.00  0.00    +0.024 A 
ATOM     16  C   UNL     1       1.294  -0.392  -0.012  0.00  0.00    +0.040 A 
ENDROOT
BRANCH   1  17
ATOM     17  C   UNL     1      11.461   2.198  -1.156  0.00  0.00    +0.119 C 
BRANCH  17  21
ATOM     18  C   UNL     1      12.318   4.188  -4.837  0.00  0.00    +0.000 A 
ATOM     19  C   UNL     1      11.867   4.912  -3.749  0.00  0.00    +0.000 A 
ATOM     20  C   UNL     1      11.589   4.268  -2.558  0.00  0.00    +0.005 A 
ATOM     21  C   UNL     1      11.763   2.900  -2.454  0.00  0.00    -0.033 A 
ATOM     22  C   UNL     1      12.220   2.178  -3.541  0.00  0.00    +0.005 A 
ATOM     23  C   UNL     1      12.493   2.821  -4.733  0.00  0.00    +0.000 A 
ENDBRANCH  17  21
ENDBRANCH   1  17
BRANCH  16  24
ATOM     24  C   UNL     1       1.789  -1.815  -0.024  0.00  0.00    +0.138 C 
BRANCH  24  25
ATOM     25  N   UNL     1       2.052  -2.230  -1.409  0.00  0.00    -0.300 NA
ATOM     26  C   UNL     1       0.806  -2.291  -2.185  0.00  0.00    +0.066 C 
ATOM     27  C   UNL     1       1.130  -2.649  -3.638  0.00  0.00    -0.063 C 
ATOM     28  N   UNL     1       1.834  -3.938  -3.676  0.00  0.00    +0.383 N 
ATOM     29  C   UNL     1       3.080  -3.878  -2.899  0.00  0.00    -0.063 C 
ATOM     30  C   UNL     1       2.756  -3.519  -1.447  0.00  0.00    +0.066 C 
ATOM     31  H   UNL     1       1.183  -4.695  -3.215  0.00  0.00    -0.081 HD
BRANCH  28  32
ATOM     32  C   UNL     1       2.096  -4.354  -5.060  0.00  0.00    -0.068 C 
ATOM     33  C   UNL     1       2.938  -3.286  -5.763  0.00  0.00    -0.015 C 
ATOM     34  C   UNL     1       3.211  -3.719  -7.205  0.00  0.00    -0.002 C 
ATOM     35  C   UNL     1       1.884  -3.891  -7.946  0.00  0.00    -0.000 C 
ATOM     36  C   UNL     1       1.042  -4.959  -7.243  0.00  0.00    -0.002 C 
ATOM     37  C   UNL     1       0.769  -4.526  -5.801  0.00  0.00    -0.015 C 
ENDBRANCH  28  32
ENDBRANCH  24  25
ENDBRANCH  16  24
TORSDOF 5
