REMARK  Name = ZINC63541069
REMARK  11 active torsions:
REMARK  status: ('A' for Active; 'I' for Inactive)
REMARK    1  A    between atoms: C_1  and  C_2
REMARK    2  A    between atoms: C_2  and  N_3
REMARK    3  A    between atoms: C_4  and  C_33
REMARK    4  A    between atoms: C_6  and  C_10
REMARK    5  A    between atoms: C_7  and  C_9
REMARK    6  A    between atoms: N_11  and  N_12
REMARK    7  A    between atoms: C_13  and  C_15
REMARK    8  A    between atoms: C_15  and  C_32
REMARK    9  A    between atoms: C_18  and  C_23
REMARK   10  A    between atoms: C_20  and  C_21
REMARK   11  A    between atoms: C_20  and  C_22
REMARK                            x       y       z     vdW  Elec       q    Type
REMARK                         _______ _______ _______ _____ _____    ______ ____
ROOT
ATOM      1  C   UNL     1       6.274  -6.856  -1.389  0.00  0.00    +0.051 C 
ATOM      2  C   UNL     1       5.990  -7.775  -0.183  0.00  0.00    +0.017 C 
ATOM      3  C   UNL     1       7.329  -7.806   0.595  0.00  0.00    +0.009 C 
ATOM      4  C   UNL     1       8.383  -7.822  -0.540  0.00  0.00    +0.038 C 
ATOM      5  C   UNL     1       7.796  -6.885  -1.616  0.00  0.00    -0.015 C 
ATOM      6  C   UNL     1       8.107  -7.429  -3.011  0.00  0.00    +0.012 C 
ATOM      7  C   UNL     1       8.376  -5.478  -1.460  0.00  0.00    +0.012 C 
ATOM      8  C   UNL     1       5.549  -7.379  -2.630  0.00  0.00    +0.021 C 
ENDROOT
BRANCH   4   9
ATOM      9  C   UNL     1       9.724  -7.285  -0.034  0.00  0.00    +0.178 C 
ATOM     10  N   UNL     1      10.726  -7.340  -1.105  0.00  0.00    -0.363 N 
ATOM     11  C   UNL     1      11.688  -8.118  -0.701  0.00  0.00    +0.060 A 
ATOM     12  C   UNL     1      12.947  -8.555  -1.321  0.00  0.00    +0.027 A 
ATOM     13  C   UNL     1      13.767  -9.385  -0.646  0.00  0.00    +0.002 A 
ATOM     14  C   UNL     1      13.470  -9.862   0.643  0.00  0.00    +0.002 A 
ATOM     15  C   UNL     1      12.343  -9.524   1.301  0.00  0.00    +0.027 A 
ATOM     16  C   UNL     1      11.374  -8.622   0.664  0.00  0.00    +0.060 A 
ATOM     17  N   UNL     1      10.230  -8.136   1.050  0.00  0.00    -0.363 N 
ATOM     18  H   UNL     1      10.680  -6.880  -1.958  0.00  0.00    +0.162 HD
ATOM     19  H   UNL     1       9.793  -8.305   1.900  0.00  0.00    +0.162 HD
ENDBRANCH   4   9
BRANCH   1  21
ATOM     20  N   UNL     1       5.880  -4.502  -2.039  0.00  0.00    -0.207 N 
ATOM     21  C   UNL     1       5.825  -5.450  -1.083  0.00  0.00    +0.239 C 
ATOM     22  O   UNL     1       5.414  -5.172   0.024  0.00  0.00    -0.273 OA
ATOM     23  H   UNL     1       6.274  -4.705  -2.902  0.00  0.00    +0.177 HD
BRANCH  20  25
ATOM     24  C   UNL     1       5.420  -2.307  -2.711  0.00  0.00    +0.137 C 
ATOM     25  N   UNL     1       5.367  -3.223  -1.788  0.00  0.00    -0.188 NA
BRANCH  24  28
ATOM     26  N   UNL     1       4.221   1.285  -2.637  0.00  0.00    -0.223 NA
ATOM     27  C   UNL     1       4.867   0.202  -3.405  0.00  0.00    +0.106 C 
ATOM     28  C   UNL     1       4.886  -0.972  -2.449  0.00  0.00    +0.008 C 
ATOM     29  C   UNL     1       4.313  -0.544  -1.312  0.00  0.00    +0.022 C 
ATOM     30  N   UNL     1       3.923   0.766  -1.410  0.00  0.00    -0.281 N 
ATOM     31  C   UNL     1       4.123  -1.397  -0.084  0.00  0.00    +0.062 C 
ATOM     32  C   UNL     1       4.046  -0.132  -4.652  0.00  0.00    +0.031 C 
ATOM     33  H   UNL     1       3.490   1.262  -0.698  0.00  0.00    +0.166 HD
BRANCH  26  35
ATOM     34  C   UNL     1       2.412   2.932  -2.532  0.00  0.00    +0.022 C 
ATOM     35  C   UNL     1       3.009   1.761  -3.316  0.00  0.00    +0.103 C 
ENDBRANCH  26  35
ENDBRANCH  24  28
ENDBRANCH  20  25
ENDBRANCH   1  21
TORSDOF 5
