REMARK  Name = ZINC60840934
REMARK  7 active torsions:
REMARK  status: ('A' for Active; 'I' for Inactive)
REMARK    1  A    between atoms: C_1  and  C_2
REMARK    2  A    between atoms: C_3  and  C_26
REMARK    3  A    between atoms: C_11  and  C_13
REMARK    4  A    between atoms: C_13  and  S_14
REMARK    5  A    between atoms: S_14  and  C_15
REMARK    6  A    between atoms: C_15  and  C_16
REMARK    7  A    between atoms: C_15  and  C_17
REMARK                            x       y       z     vdW  Elec       q    Type
REMARK                         _______ _______ _______ _____ _____    ______ ____
ROOT
ATOM      1  C   UNL     1       1.669   1.399   0.098  0.00  0.00    +0.045 C 
ATOM      2  C   UNL     1       1.595  -0.106   0.099  0.00  0.00    -0.026 A 
ATOM      3  C   UNL     1       1.814  -0.797  -1.032  0.00  0.00    -0.008 A 
ATOM      4  S   UNL     1       1.619  -2.494  -0.522  0.00  0.00    -0.073 S 
ATOM      5  C   UNL     1       1.249  -2.225   1.192  0.00  0.00    +0.116 A 
ATOM      6  C   UNL     1       1.293  -0.826   1.322  0.00  0.00    +0.075 A 
ATOM      7  C   UNL     1       1.030  -0.316   2.635  0.00  0.00    +0.260 A 
ATOM      8  O   UNL     1       1.042   0.884   2.847  0.00  0.00    -0.267 OA
ATOM      9  N   UNL     1       0.771  -1.184   3.631  0.00  0.00    -0.310 N 
ATOM     10  H   UNL     1       0.592  -0.845   4.522  0.00  0.00    +0.170 HD
ATOM     11  C   UNL     1       0.753  -2.524   3.413  0.00  0.00    +0.121 A 
ATOM     12  N   UNL     1       0.980  -3.019   2.225  0.00  0.00    -0.226 NA
ATOM     13  C   UNL     1       2.145  -0.265  -2.402  0.00  0.00    +0.052 C 
ENDROOT
BRANCH  11  14
ATOM     14  C   UNL     1       0.457  -3.457   4.559  0.00  0.00    +0.144 C 
BRANCH  14  15
ATOM     15  S   UNL     1       0.502  -5.172   3.970  0.00  0.00    -0.141 S 
BRANCH  15  16
ATOM     16  C   UNL     1       0.131  -6.154   5.449  0.00  0.00    +0.130 C 
ATOM     17  C   UNL     1       1.255  -5.980   6.473  0.00  0.00    +0.029 C 
BRANCH  16  18
ATOM     18  C   UNL     1       0.016  -7.608   5.072  0.00  0.00    +0.228 C 
ATOM     19  O   UNL     1       0.471  -7.998   4.017  0.00  0.00    -0.274 OA
ATOM     20  N   UNL     1      -0.593  -8.475   5.905  0.00  0.00    -0.300 N 
ATOM     21  C   UNL     1      -1.240  -7.957   7.122  0.00  0.00    +0.108 C 
ATOM     22  C   UNL     1      -2.632  -8.548   7.458  0.00  0.00    +0.030 C 
ATOM     23  C   UNL     1      -3.538  -8.657   6.273  0.00  0.00    +0.071 C 
ATOM     24  S   UNL     1      -3.292 -10.269   5.440  0.00  0.00    -0.159 S 
ATOM     25  C   UNL     1      -1.759 -10.133   4.611  0.00  0.00    +0.088 C 
ATOM     26  C   UNL     1      -0.594  -9.865   5.575  0.00  0.00    +0.118 C 
ENDBRANCH  16  18
ENDBRANCH  15  16
ENDBRANCH  14  15
ENDBRANCH  11  14
TORSDOF 4
