REMARK  Name = ZINC09442037
REMARK  11 active torsions:
REMARK  status: ('A' for Active; 'I' for Inactive)
REMARK    1  A    between atoms: C_1  and  C_2
REMARK    2  A    between atoms: C_2  and  C_3
REMARK    3  A    between atoms: C_6  and  S_15
REMARK    4  A    between atoms: S_15  and  C_16
REMARK    5  A    between atoms: C_16  and  C_18
REMARK    6  A    between atoms: C_16  and  C_20
REMARK    7  A    between atoms: C_18  and  C_19
REMARK    8  A    between atoms: N_22  and  C_23
REMARK    9  A    between atoms: C_24  and  C_31
REMARK   10  A    between atoms: C_26  and  C_30
REMARK   11  A    between atoms: C_28  and  C_29
REMARK                            x       y       z     vdW  Elec       q    Type
REMARK                         _______ _______ _______ _____ _____    ______ ____
ROOT
ATOM      1  C   UNL     1       0.875  -0.299   0.330  0.00  0.00    +0.139 C 
ENDROOT
BRANCH   1   2
ATOM      2  C   UNL     1       0.970  -1.792   0.148  0.00  0.00    +0.231 C 
ATOM      3  O   UNL     1      -0.019  -2.432  -0.141  0.00  0.00    -0.274 OA
ATOM      4  N   UNL     1       2.154  -2.417   0.308  0.00  0.00    -0.284 N 
ATOM      5  H   UNL     1       2.935  -1.912   0.582  0.00  0.00    +0.155 HD
BRANCH   4   6
ATOM      6  C   UNL     1       2.255  -3.794   0.078  0.00  0.00    +0.039 A 
ATOM      7  C   UNL     1       3.166  -4.279  -0.850  0.00  0.00    -0.029 A 
ATOM      8  C   UNL     1       3.268  -5.639  -1.069  0.00  0.00    +0.008 A 
ATOM      9  C   UNL     1       2.455  -6.516  -0.375  0.00  0.00    -0.050 A 
ATOM     10  C   UNL     1       1.542  -6.035   0.545  0.00  0.00    +0.008 A 
ATOM     11  C   UNL     1       1.440  -4.677   0.774  0.00  0.00    -0.029 A 
ATOM     12  C   UNL     1       0.444  -4.154   1.777  0.00  0.00    +0.045 C 
ATOM     13  C   UNL     1       2.564  -7.998  -0.622  0.00  0.00    +0.044 C 
ATOM     14  C   UNL     1       4.048  -3.324  -1.612  0.00  0.00    +0.045 C 
ENDBRANCH   4   6
ENDBRANCH   1   2
BRANCH   1  15
ATOM     15  C   UNL     1       1.253   0.399  -0.978  0.00  0.00    +0.020 C 
ATOM     16  C   UNL     1       1.294   1.912  -0.755  0.00  0.00    +0.005 C 
ENDBRANCH   1  15
BRANCH   1  17
ATOM     17  S   UNL     1      -0.819   0.147   0.784  0.00  0.00    -0.089 S 
BRANCH  17  21
ATOM     18  C   UNL     1      -0.892  -1.553   4.906  0.00  0.00    +0.137 A 
ATOM     19  N   UNL     1       0.122  -1.675   4.099  0.00  0.00    -0.135 NA
ATOM     20  N   UNL     1       0.140  -1.185   2.913  0.00  0.00    -0.139 NA
ATOM     21  C   UNL     1      -0.882  -0.511   2.417  0.00  0.00    +0.144 A 
ATOM     22  C   UNL     1      -2.029  -0.324   3.232  0.00  0.00    +0.083 A 
ATOM     23  N   UNL     1      -2.014  -0.872   4.504  0.00  0.00    -0.293 N 
ATOM     24  C   UNL     1      -3.217  -0.590   5.138  0.00  0.00    +0.063 A 
ATOM     25  C   UNL     1      -3.837  -0.829   6.376  0.00  0.00    +0.034 A 
ATOM     26  C   UNL     1      -5.079  -0.362   6.612  0.00  0.00    +0.048 A 
ATOM     27  S   UNL     1      -5.483   0.465   5.083  0.00  0.00    -0.095 S 
ATOM     28  C   UNL     1      -3.971   0.142   4.213  0.00  0.00    +0.038 A 
ATOM     29  C   UNL     1      -3.239   0.301   3.043  0.00  0.00    +0.046 A 
BRANCH  18  31
ATOM     30  C   UNL     1      -0.256  -1.138   7.266  0.00  0.00    +0.012 C 
ATOM     31  C   UNL     1      -0.834  -2.159   6.284  0.00  0.00    +0.073 C 
ENDBRANCH  18  31
ENDBRANCH  17  21
ENDBRANCH   1  17
TORSDOF 6
