REMARK  Name = ZINC16021972
REMARK  9 active torsions:
REMARK  status: ('A' for Active; 'I' for Inactive)
REMARK    1  A    between atoms: C_1  and  O_2
REMARK    2  A    between atoms: O_2  and  C_3
REMARK    3  A    between atoms: C_3  and  C_4
REMARK    4  A    between atoms: C_4  and  C_5
REMARK    5  A    between atoms: C_5  and  N_6
REMARK    6  A    between atoms: C_11  and  C_29
REMARK    7  A    between atoms: C_29  and  C_30
REMARK    8  A    between atoms: C_33  and  O_37
REMARK    9  A    between atoms: C_34  and  O_36
REMARK                            x       y       z     vdW  Elec       q    Type
REMARK                         _______ _______ _______ _____ _____    ______ ____
ROOT
ATOM      1  N   UNL     1      -2.408  -4.226   0.002  0.00  0.00    -0.241 N 
ATOM      2  C   UNL     1      -2.346  -4.940  -1.128  0.00  0.00    +0.227 C 
ATOM      3  O   UNL     1      -2.396  -4.482  -2.249  0.00  0.00    -0.275 OA
ATOM      4  C   UNL     1      -2.202  -6.406  -0.788  0.00  0.00    +0.107 C 
ATOM      5  C   UNL     1      -3.483  -7.156  -1.210  0.00  0.00    +0.072 C 
ATOM      6  N   UNL     1      -4.401  -7.026  -0.048  0.00  0.00    -0.295 NA
ATOM      7  C   UNL     1      -3.519  -7.158   1.126  0.00  0.00    +0.136 C 
ATOM      8  C   UNL     1      -2.207  -6.417   0.766  0.00  0.00    +0.122 C 
ATOM      9  C   UNL     1      -2.330  -4.953   1.123  0.00  0.00    +0.228 C 
ATOM     10  O   UNL     1      -2.356  -4.506   2.250  0.00  0.00    -0.275 OA
ATOM     11  C   UNL     1      -3.257  -8.599   1.462  0.00  0.00    +0.005 A 
ATOM     12  C   UNL     1      -2.701  -9.649   0.765  0.00  0.00    +0.008 A 
ATOM     13  C   UNL     1      -2.592 -10.894   1.358  0.00  0.00    +0.002 A 
ATOM     14  C   UNL     1      -3.043 -11.082   2.652  0.00  0.00    +0.022 A 
ATOM     15  C   UNL     1      -3.601 -10.033   3.355  0.00  0.00    +0.062 A 
ATOM     16  C   UNL     1      -3.714  -8.775   2.764  0.00  0.00    +0.057 A 
ATOM     17  N   UNL     1      -4.233  -7.577   3.261  0.00  0.00    -0.282 N 
ATOM     18  C   UNL     1      -4.156  -6.578   2.360  0.00  0.00    +0.243 C 
ATOM     19  O   UNL     1      -4.527  -5.434   2.514  0.00  0.00    -0.273 OA
ATOM     20 CL   UNL     1      -4.163 -10.280   4.978  0.00  0.00    -0.082 Cl
ATOM     21  H   UNL     1      -4.866  -6.131  -0.052  0.00  0.00    +0.124 HD
ATOM     22  H   UNL     1      -4.605  -7.475   4.151  0.00  0.00    +0.155 HD
ENDROOT
BRANCH   1  23
ATOM     23  C   UNL     1      -2.543  -2.768   0.011  0.00  0.00    +0.118 C 
BRANCH  23  24
ATOM     24  C   UNL     1      -1.154  -2.126   0.002  0.00  0.00    +0.047 C 
BRANCH  24  25
ATOM     25  C   UNL     1      -1.295  -0.603   0.011  0.00  0.00    +0.161 C 
BRANCH  25  27
ATOM     26  C   UNL     1      -0.017   1.425   0.010  0.00  0.00    +0.193 C 
ATOM     27  O   UNL     1       0.002  -0.004   0.002  0.00  0.00    -0.383 OA
ENDBRANCH  25  27
ENDBRANCH  24  25
ENDBRANCH  23  24
ENDBRANCH   1  23
BRANCH   5  28
ATOM     28  C   UNL     1      -4.097  -6.505  -2.451  0.00  0.00    +0.054 C 
BRANCH  28  29
ATOM     29  C   UNL     1      -5.273  -7.323  -2.918  0.00  0.00    -0.042 A 
ATOM     30  C   UNL     1      -5.084  -8.348  -3.826  0.00  0.00    +0.007 A 
ATOM     31  C   UNL     1      -6.160  -9.102  -4.256  0.00  0.00    +0.049 A 
ATOM     32  C   UNL     1      -7.432  -8.830  -3.778  0.00  0.00    +0.158 A 
ATOM     33  C   UNL     1      -7.622  -7.798  -2.864  0.00  0.00    +0.158 A 
ATOM     34  C   UNL     1      -6.539  -7.050  -2.432  0.00  0.00    +0.052 A 
BRANCH  33  35
ATOM     35  O   UNL     1      -8.868  -7.528  -2.391  0.00  0.00    -0.503 OA
ATOM     36  H   UNL     1      -9.099  -8.015  -1.589  0.00  0.00    +0.292 HD
ENDBRANCH  33  35
BRANCH  32  37
ATOM     37  O   UNL     1      -8.492  -9.570  -4.201  0.00  0.00    -0.503 OA
ATOM     38  H   UNL     1      -8.669 -10.350  -3.658  0.00  0.00    +0.292 HD
ENDBRANCH  32  37
ENDBRANCH  28  29
ENDBRANCH   5  28
TORSDOF 8
