REMARK  Name = ZINC08857551
REMARK  4 active torsions:
REMARK  status: ('A' for Active; 'I' for Inactive)
REMARK    1  A    between atoms: C_7  and  N_15
REMARK    2  A    between atoms: N_15  and  S_16
REMARK    3  A    between atoms: S_16  and  C_19
REMARK    4  A    between atoms: C_23  and  N_25
REMARK                            x       y       z     vdW  Elec       q    Type
REMARK                         _______ _______ _______ _____ _____    ______ ____
ROOT
ATOM      1  N   UNL     1      -1.348   5.941   0.047  0.00  0.00    -0.216 N 
ATOM      2  H   UNL     1      -2.075   5.598   0.590  0.00  0.00    +0.174 HD
ENDROOT
BRANCH   1   9
ATOM      3  C   UNL     1      -1.577   1.763  -0.268  0.00  0.00    +0.001 A 
ATOM      4  C   UNL     1      -0.421   1.006  -0.446  0.00  0.00    +0.001 A 
ATOM      5  C   UNL     1       0.800   1.604  -0.528  0.00  0.00    +0.012 A 
ATOM      6  C   UNL     1       0.896   3.002  -0.427  0.00  0.00    +0.027 A 
ATOM      7  C   UNL     1      -0.275   3.770  -0.241  0.00  0.00    +0.008 A 
ATOM      8  C   UNL     1      -1.518   3.119  -0.160  0.00  0.00    +0.010 A 
ATOM      9  C   UNL     1      -0.194   5.177  -0.137  0.00  0.00    +0.057 A 
ATOM     10  C   UNL     1       1.032   5.780  -0.220  0.00  0.00    +0.044 A 
ATOM     11  C   UNL     1       2.177   5.024  -0.403  0.00  0.00    +0.063 A 
ATOM     12  C   UNL     1       2.167   3.637  -0.512  0.00  0.00    +0.154 A 
ATOM     13  O   UNL     1       3.373   3.061  -0.686  0.00  0.00    -0.416 OA
ATOM     14  C   UNL     1       4.495   3.797  -0.748  0.00  0.00    +0.379 A 
ATOM     15  O   UNL     1       5.642   3.421  -0.900  0.00  0.00    -0.237 OA
ATOM     16  S   UNL     1       3.904   5.417  -0.556  0.00  0.00    -0.004 S 
ENDBRANCH   1   9
BRANCH   1  17
ATOM     17  S   UNL     1      -1.475   7.433  -0.660  0.00  0.00    +0.072 S 
ATOM     18  O   UNL     1      -2.794   7.894  -0.402  0.00  0.00    -0.150 OA
ATOM     19  O   UNL     1      -0.322   8.166  -0.272  0.00  0.00    -0.150 OA
BRANCH  17  20
ATOM     20  C   UNL     1      -1.358   7.195  -2.402  0.00  0.00    +0.111 A 
ATOM     21  C   UNL     1      -0.124   7.238  -3.024  0.00  0.00    +0.030 A 
ATOM     22  C   UNL     1      -0.031   7.047  -4.390  0.00  0.00    +0.024 A 
ATOM     23  C   UNL     1      -1.174   6.822  -5.136  0.00  0.00    +0.071 A 
ATOM     24  C   UNL     1      -2.409   6.784  -4.514  0.00  0.00    +0.146 A 
ATOM     25  C   UNL     1      -2.501   6.971  -3.147  0.00  0.00    +0.063 A 
ATOM     26 CL   UNL     1      -1.059   6.588  -6.852  0.00  0.00    -0.081 Cl
BRANCH  24  27
ATOM     27  N   UNL     1      -3.633   6.543  -5.312  0.00  0.00    +0.058 N 
ATOM     28  O   UNL     1      -4.720   6.510  -4.764  0.00  0.00    -0.126 OA
ATOM     29  O   UNL     1      -3.552   6.379  -6.516  0.00  0.00    -0.126 OA
ENDBRANCH  24  27
ENDBRANCH  17  20
ENDBRANCH   1  17
TORSDOF 4
