REMARK  Name = ZINC20608370
REMARK  10 active torsions:
REMARK  status: ('A' for Active; 'I' for Inactive)
REMARK    1  A    between atoms: C_2  and  N_22
REMARK    2  A    between atoms: N_4  and  C_6
REMARK    3  A    between atoms: C_6  and  N_7
REMARK    4  A    between atoms: C_9  and  N_12
REMARK    5  A    between atoms: N_12  and  C_13
REMARK    6  A    between atoms: C_13  and  N_15
REMARK    7  A    between atoms: N_15  and  C_16
REMARK    8  A    between atoms: N_22  and  C_23
REMARK    9  A    between atoms: C_23  and  N_25
REMARK   10  A    between atoms: N_25  and  C_26
REMARK                            x       y       z     vdW  Elec       q    Type
REMARK                         _______ _______ _______ _____ _____    ______ ____
ROOT
ATOM      1  C   UNL     1       0.581   2.501  -9.628  0.00  0.00    +0.286 C 
ENDROOT
BRANCH   1   5
ATOM      2  C   UNL     1      -2.845   2.261 -10.744  0.00  0.00    +0.157 A 
ATOM      3  C   UNL     1      -2.366   3.294 -11.562  0.00  0.00    +0.071 A 
ATOM      4  C   UNL     1      -1.062   3.502 -11.251  0.00  0.00    +0.133 A 
ATOM      5  N   UNL     1      -0.731   2.626 -10.266  0.00  0.00    -0.248 N 
ATOM      6  N   UNL     1      -1.866   1.858  -9.974  0.00  0.00    -0.176 NA
BRANCH   3   7
ATOM      7  N   UNL     1      -3.107   3.991 -12.536  0.00  0.00    -0.294 N 
ATOM      8  H   UNL     1      -2.910   5.059 -12.717  0.00  0.00    +0.154 HD
BRANCH   7   9
ATOM      9  C   UNL     1      -4.058   3.352 -13.245  0.00  0.00    +0.135 C 
ATOM     10  S   UNL     1      -4.275   1.664 -13.059  0.00  0.00    -0.019 S 
BRANCH   9  11
ATOM     11  N   UNL     1      -4.837   4.041 -14.102  0.00  0.00    -0.323 N 
ATOM     12  H   UNL     1      -4.697   5.125 -14.222  0.00  0.00    +0.148 HD
BRANCH  11  13
ATOM     13  C   UNL     1      -5.870   3.346 -14.874  0.00  0.00    +0.072 C 
ATOM     14  C   UNL     1      -5.250   2.756 -16.142  0.00  0.00    +0.022 C 
ATOM     15  C   UNL     1      -6.329   2.030 -16.948  0.00  0.00    +0.002 C 
ATOM     16  C   UNL     1      -7.431   3.019 -17.331  0.00  0.00    +0.000 C 
ATOM     17  C   UNL     1      -8.052   3.609 -16.063  0.00  0.00    +0.002 C 
ATOM     18  C   UNL     1      -6.973   4.335 -15.258  0.00  0.00    +0.022 C 
ENDBRANCH  11  13
ENDBRANCH   9  11
ENDBRANCH   7   9
ENDBRANCH   3   7
ENDBRANCH   1   5
BRANCH   1  19
ATOM     19  N   UNL     1       0.433   2.637  -8.177  0.00  0.00    -0.248 N 
ATOM     20  C   UNL     1       0.855   1.745  -7.243  0.00  0.00    +0.133 A 
ATOM     21  C   UNL     1       0.528   2.243  -6.023  0.00  0.00    +0.071 A 
ATOM     22  C   UNL     1      -0.117   3.473  -6.220  0.00  0.00    +0.157 A 
ATOM     23  N   UNL     1      -0.168   3.710  -7.506  0.00  0.00    -0.176 NA
BRANCH  21  24
ATOM     24  N   UNL     1       0.784   1.631  -4.781  0.00  0.00    -0.294 N 
ATOM     25  H   UNL     1       0.751   0.535  -4.691  0.00  0.00    +0.154 HD
BRANCH  24  26
ATOM     26  C   UNL     1       1.071   2.388  -3.704  0.00  0.00    +0.135 C 
ATOM     27  S   UNL     1       1.252   4.082  -3.871  0.00  0.00    -0.019 S 
BRANCH  26  28
ATOM     28  N   UNL     1       1.214   1.811  -2.494  0.00  0.00    -0.323 N 
ATOM     29  H   UNL     1       1.097   0.722  -2.386  0.00  0.00    +0.148 HD
BRANCH  28  30
ATOM     30  C   UNL     1       1.525   2.633  -1.322  0.00  0.00    +0.072 C 
ATOM     31  C   UNL     1       2.229   1.775  -0.269  0.00  0.00    +0.022 C 
ATOM     32  C   UNL     1       2.554   2.634   0.954  0.00  0.00    +0.002 C 
ATOM     33  C   UNL     1       1.258   3.199   1.540  0.00  0.00    +0.000 C 
ATOM     34  C   UNL     1       0.554   4.056   0.487  0.00  0.00    +0.002 C 
ATOM     35  C   UNL     1       0.229   3.197  -0.737  0.00  0.00    +0.022 C 
ENDBRANCH  28  30
ENDBRANCH  26  28
ENDBRANCH  24  26
ENDBRANCH  21  24
ENDBRANCH   1  19
TORSDOF 10
