REMARK  Name = ZINC39218224
REMARK  6 active torsions:
REMARK  status: ('A' for Active; 'I' for Inactive)
REMARK    1  A    between atoms: C_4  and  C_7
REMARK    2  A    between atoms: C_8  and  N_14
REMARK    3  A    between atoms: N_14  and  N_15
REMARK    4  A    between atoms: C_18  and  C_25
REMARK    5  A    between atoms: C_20  and  C_23
REMARK    6  A    between atoms: C_21  and  N_22
REMARK                            x       y       z     vdW  Elec       q    Type
REMARK                         _______ _______ _______ _____ _____    ______ ____
ROOT
ATOM      1  N   UNL     1       1.371  -2.128  -0.588  0.00  0.00    -0.211 N 
ATOM      2  C   UNL     1       0.589  -1.950   0.520  0.00  0.00    +0.039 C 
ATOM      3  C   UNL     1      -0.391  -1.021   0.528  0.00  0.00    +0.026 C 
ATOM      4  C   UNL     1      -0.639  -0.146  -0.675  0.00  0.00    +0.100 C 
ATOM      5  C   UNL     1      -0.013  -0.730  -1.907  0.00  0.00    +0.078 C 
ATOM      6  C   UNL     1       0.957  -1.675  -1.817  0.00  0.00    +0.119 C 
ATOM      7  C   UNL     1      -1.211  -0.842   1.656  0.00  0.00    +0.162 C 
ATOM      8  O   UNL     1      -2.079   0.008   1.634  0.00  0.00    -0.292 OA
ATOM      9  C   UNL     1      -1.035  -1.683   2.891  0.00  0.00    +0.080 C 
ATOM     10  C   UNL     1      -0.458  -3.045   2.489  0.00  0.00    +0.014 C 
ATOM     11  C   UNL     1       0.851  -2.812   1.730  0.00  0.00    +0.053 C 
ENDROOT
BRANCH   4  12
ATOM     12  C   UNL     1      -0.052   1.219  -0.423  0.00  0.00    +0.000 A 
ATOM     13  C   UNL     1       1.265   1.342  -0.021  0.00  0.00    +0.007 A 
ATOM     14  C   UNL     1       1.803   2.594   0.210  0.00  0.00    +0.000 A 
ATOM     15  C   UNL     1       1.026   3.724   0.040  0.00  0.00    +0.003 A 
ATOM     16  C   UNL     1      -0.291   3.604  -0.362  0.00  0.00    +0.038 A 
ATOM     17  C   UNL     1      -0.830   2.350  -0.599  0.00  0.00    +0.127 A 
ATOM     18  F   UNL     1      -2.116   2.232  -0.996  0.00  0.00    -0.205 F 
ENDBRANCH   4  12
BRANCH   6  19
ATOM     19  N   UNL     1       1.523  -2.183  -2.962  0.00  0.00    -0.344 N 
ATOM     20  H   UNL     1       2.214  -2.861  -2.901  0.00  0.00    +0.144 HD
ATOM     21  H   UNL     1       1.231  -1.864  -3.830  0.00  0.00    +0.144 HD
ENDBRANCH   6  19
BRANCH   1  22
ATOM     22  N   UNL     1       2.609  -2.774  -0.466  0.00  0.00    -0.260 N 
ATOM     23  H   UNL     1       2.645  -3.737  -0.359  0.00  0.00    +0.170 HD
BRANCH  22  25
ATOM     24  C   UNL     1       5.003  -2.666  -0.500  0.00  0.00    +0.110 C 
ATOM     25  C   UNL     1       3.751  -2.055  -0.500  0.00  0.00    +0.059 C 
ATOM     26  C   UNL     1       3.741  -0.536  -0.539  0.00  0.00    +0.153 C 
ATOM     27  C   UNL     1       5.108   0.125  -0.574  0.00  0.00    +0.260 C 
ATOM     28  O   UNL     1       5.221   1.334  -0.606  0.00  0.00    -0.272 OA
ATOM     29  N   UNL     1       6.186  -0.673  -0.567  0.00  0.00    -0.080 NA
ATOM     30  N   UNL     1       6.117  -1.947  -0.528  0.00  0.00    -0.155 NA
BRANCH  24  34
ATOM     31  C   UNL     1       5.258  -6.908  -0.395  0.00  0.00    +0.000 A 
ATOM     32  C   UNL     1       4.378  -6.293  -1.267  0.00  0.00    +0.001 A 
ATOM     33  C   UNL     1       4.291  -4.916  -1.305  0.00  0.00    +0.010 A 
ATOM     34  C   UNL     1       5.091  -4.146  -0.464  0.00  0.00    +0.003 A 
ATOM     35  C   UNL     1       5.976  -4.772   0.413  0.00  0.00    +0.010 A 
ATOM     36  C   UNL     1       6.055  -6.149   0.443  0.00  0.00    +0.001 A 
ENDBRANCH  24  34
ENDBRANCH  22  25
ENDBRANCH   1  22
BRANCH   5  37
ATOM     37  C   UNL     1      -0.442  -0.279  -3.196  0.00  0.00    +0.099 C 
ATOM     38  N   UNL     1      -0.782   0.079  -4.219  0.00  0.00    -0.191 NA
ENDBRANCH   5  37
TORSDOF 6
