REMARK  Name = ZINC03321461
REMARK  8 active torsions:
REMARK  status: ('A' for Active; 'I' for Inactive)
REMARK    1  A    between atoms: C_1  and  C_2
REMARK    2  A    between atoms: C_2  and  C_3
REMARK    3  A    between atoms: C_3  and  C_5
REMARK    4  A    between atoms: C_3  and  N_6
REMARK    5  A    between atoms: C_15  and  S_16
REMARK    6  A    between atoms: S_16  and  C_17
REMARK    7  A    between atoms: C_17  and  C_18
REMARK    8  A    between atoms: C_30  and  C_34
REMARK                            x       y       z     vdW  Elec       q    Type
REMARK                         _______ _______ _______ _____ _____    ______ ____
ROOT
ATOM      1  N   UNL     1       1.211  -4.663  -0.258  0.00  0.00    -0.284 N 
ATOM      2  C   UNL     1       1.512  -3.350  -0.391  0.00  0.00    +0.263 A 
ATOM      3  O   UNL     1       2.599  -2.973  -0.796  0.00  0.00    -0.267 OA
ATOM      4  C   UNL     1       0.476  -2.430  -0.026  0.00  0.00    +0.076 A 
ATOM      5  C   UNL     1       0.545  -0.979  -0.075  0.00  0.00    -0.023 A 
ATOM      6  C   UNL     1      -0.558  -0.304   0.320  0.00  0.00    -0.004 A 
ATOM      7  S   UNL     1      -1.732  -1.557   0.772  0.00  0.00    -0.073 S 
ATOM      8  C   UNL     1      -0.744  -2.979   0.432  0.00  0.00    +0.117 A 
ATOM      9  N   UNL     1      -0.976  -4.281   0.539  0.00  0.00    -0.216 NA
ATOM     10  C   UNL     1       0.004  -5.104   0.193  0.00  0.00    +0.173 A 
ATOM     11  C   UNL     1      -0.746   1.181   0.365  0.00  0.00    +0.043 C 
ATOM     12  C   UNL     1       0.630   1.850   0.244  0.00  0.00    +0.005 C 
ATOM     13  C   UNL     1       1.389   1.202  -0.919  0.00  0.00    +0.005 C 
ATOM     14  C   UNL     1       1.787  -0.226  -0.547  0.00  0.00    +0.037 C 
ENDROOT
BRANCH   1  15
ATOM     15  C   UNL     1       2.229  -5.654  -0.616  0.00  0.00    +0.089 C 
ATOM     16  C   UNL     1       2.627  -5.469  -2.082  0.00  0.00    +0.031 C 
BRANCH  15  18
ATOM     17  C   UNL     1       3.078  -5.729   1.732  0.00  0.00    +0.006 C 
ATOM     18  C   UNL     1       3.459  -5.466   0.274  0.00  0.00    +0.021 C 
ENDBRANCH  15  18
ENDBRANCH   1  15
BRANCH  10  19
ATOM     19  S   UNL     1      -0.266  -6.841   0.322  0.00  0.00    -0.080 S 
BRANCH  19  20
ATOM     20  C   UNL     1      -1.965  -6.849   0.947  0.00  0.00    +0.151 C 
BRANCH  20  21
ATOM     21  C   UNL     1      -2.422  -8.272   1.139  0.00  0.00    +0.121 A 
ATOM     22  N   UNL     1      -3.673  -8.513   1.609  0.00  0.00    -0.310 N 
ATOM     23  H   UNL     1      -4.255  -7.765   1.815  0.00  0.00    +0.170 HD
ATOM     24  C   UNL     1      -4.124  -9.769   1.789  0.00  0.00    +0.260 A 
ATOM     25  O   UNL     1      -5.251  -9.968   2.208  0.00  0.00    -0.267 OA
ATOM     26  C   UNL     1      -3.254 -10.867   1.487  0.00  0.00    +0.075 A 
ATOM     27  C   UNL     1      -3.523 -12.299   1.609  0.00  0.00    -0.023 A 
ATOM     28  C   UNL     1      -2.528 -13.141   1.257  0.00  0.00    -0.004 A 
ATOM     29  S   UNL     1      -1.194 -12.090   0.751  0.00  0.00    -0.073 S 
ATOM     30  C   UNL     1      -1.979 -10.519   1.013  0.00  0.00    +0.116 A 
ATOM     31  N   UNL     1      -1.606  -9.252   0.855  0.00  0.00    -0.226 NA
ATOM     32  C   UNL     1      -2.553 -14.639   1.289  0.00  0.00    +0.046 C 
ATOM     33  C   UNL     1      -4.012 -15.096   1.431  0.00  0.00    -0.009 C 
ATOM     34  C   UNL     1      -4.673 -14.290   2.552  0.00  0.00    +0.008 C 
ATOM     35  C   UNL     1      -4.860 -12.838   2.109  0.00  0.00    +0.037 C 
ATOM     36  C   UNL     1      -4.051 -16.586   1.777  0.00  0.00    +0.008 C 
ENDBRANCH  20  21
ENDBRANCH  19  20
ENDBRANCH  10  19
TORSDOF 5
