REMARK  Name = ZINC65146040
REMARK  5 active torsions:
REMARK  status: ('A' for Active; 'I' for Inactive)
REMARK    1  A    between atoms: C_4  and  C_7
REMARK    2  A    between atoms: C_13  and  C_14
REMARK    3  A    between atoms: N_16  and  N_17
REMARK    4  A    between atoms: N_20  and  C_21
REMARK    5  A    between atoms: C_21  and  C_22
REMARK                            x       y       z     vdW  Elec       q    Type
REMARK                         _______ _______ _______ _____ _____    ______ ____
ROOT
ATOM      1  C   UNL     1       3.211  -2.015  -5.102  0.00  0.00    +0.250 C 
ATOM      2  O   UNL     1       2.213  -1.328  -5.126  0.00  0.00    -0.272 OA
ATOM      3  N   UNL     1       3.749  -2.462  -6.254  0.00  0.00    -0.232 N 
ATOM      4  H   UNL     1       4.548  -3.012  -6.236  0.00  0.00    +0.173 HD
ENDROOT
BRANCH   1  11
ATOM      5  C   UNL     1       2.859  -0.454  -2.507  0.00  0.00    +0.219 C 
ATOM      6  O   UNL     1       3.224   0.340  -3.348  0.00  0.00    -0.275 OA
ATOM      7  N   UNL     1       3.087  -1.771  -2.680  0.00  0.00    -0.290 N 
ATOM      8  C   UNL     1       2.607  -2.849  -1.797  0.00  0.00    +0.108 C 
ATOM      9  C   UNL     1       2.570  -4.111  -2.696  0.00  0.00    +0.021 C 
ATOM     10  C   UNL     1       3.826  -3.900  -3.581  0.00  0.00    +0.033 C 
ATOM     11  C   UNL     1       3.851  -2.370  -3.784  0.00  0.00    +0.163 C 
BRANCH   5  15
ATOM     12  C   UNL     1       0.514   2.030   0.114  0.00  0.00    +0.000 C 
ATOM     13  C   UNL     1       2.008   1.878   0.408  0.00  0.00    +0.001 C 
ATOM     14  C   UNL     1       2.727   1.385  -0.849  0.00  0.00    +0.013 C 
ATOM     15  C   UNL     1       2.151   0.032  -1.269  0.00  0.00    +0.075 C 
ATOM     16  C   UNL     1       0.656   0.183  -1.563  0.00  0.00    +0.013 C 
ATOM     17  C   UNL     1      -0.063   0.676  -0.306  0.00  0.00    +0.001 C 
ENDBRANCH   5  15
ENDBRANCH   1  11
BRANCH   3  18
ATOM     18  N   UNL     1       3.155  -2.132  -7.479  0.00  0.00    -0.218 N 
ATOM     19  C   UNL     1       3.693  -2.579  -8.631  0.00  0.00    +0.316 C 
ATOM     20  O   UNL     1       3.176  -2.293  -9.694  0.00  0.00    -0.251 OA
ATOM     21  N   UNL     1       4.802  -3.344  -8.605  0.00  0.00    -0.296 N 
ATOM     22  H   UNL     1       2.356  -1.582  -7.498  0.00  0.00    +0.174 HD
ATOM     23  H   UNL     1       5.214  -3.572  -7.757  0.00  0.00    +0.150 HD
BRANCH  21  24
ATOM     24  C   UNL     1       5.387  -3.829  -9.858  0.00  0.00    +0.137 C 
BRANCH  24  25
ATOM     25  C   UNL     1       6.630  -4.667  -9.549  0.00  0.00    +0.135 C 
ATOM     26  C   UNL     1       7.318  -5.087 -10.866  0.00  0.00    +0.035 C 
ATOM     27  C   UNL     1       7.761  -6.543 -10.556  0.00  0.00    +0.031 C 
ATOM     28  C   UNL     1       6.603  -7.014  -9.641  0.00  0.00    +0.160 C 
ATOM     29  O   UNL     1       6.251  -5.863  -8.858  0.00  0.00    -0.375 OA
ENDBRANCH  24  25
ENDBRANCH  21  24
ENDBRANCH   3  18
TORSDOF 5
