REMARK  Name = ZINC34747917
REMARK  7 active torsions:
REMARK  status: ('A' for Active; 'I' for Inactive)
REMARK    1  A    between atoms: C_1  and  C_2
REMARK    2  A    between atoms: C_5  and  C_36
REMARK    3  A    between atoms: C_6  and  C_8
REMARK    4  A    between atoms: C_8  and  N_9
REMARK    5  A    between atoms: N_27  and  C_28
REMARK    6  A    between atoms: C_28  and  C_29
REMARK    7  A    between atoms: C_29  and  C_30
REMARK                            x       y       z     vdW  Elec       q    Type
REMARK                         _______ _______ _______ _____ _____    ______ ____
ROOT
ATOM      1  N   UNL     1       2.391  -2.976   1.917  0.00  0.00    +0.384 N 
ATOM      2  C   UNL     1       3.788  -3.425   1.857  0.00  0.00    -0.059 C 
ATOM      3  C   UNL     1       4.097  -4.292   3.082  0.00  0.00    +0.089 C 
ATOM      4  N   UNL     1       3.756  -3.528   4.292  0.00  0.00    -0.304 N 
ATOM      5  C   UNL     1       2.427  -2.902   4.365  0.00  0.00    +0.089 C 
ATOM      6  C   UNL     1       2.196  -2.100   3.080  0.00  0.00    -0.059 C 
ATOM      7  C   UNL     1       4.652  -3.404   5.324  0.00  0.00    +0.202 A 
ATOM      8  N   UNL     1       5.542  -2.434   5.297  0.00  0.00    -0.208 NA
ATOM      9  C   UNL     1       6.421  -2.291   6.284  0.00  0.00    +0.117 A 
ATOM     10  C   UNL     1       6.447  -3.153   7.389  0.00  0.00    +0.076 A 
ATOM     11  C   UNL     1       7.476  -2.873   8.403  0.00  0.00    -0.023 A 
ATOM     12  C   UNL     1       8.284  -1.825   8.174  0.00  0.00    -0.004 A 
ATOM     13  S   UNL     1       7.741  -1.155   6.619  0.00  0.00    -0.073 S 
ATOM     14  C   UNL     1       9.290  -1.631   9.277  0.00  0.00    +0.043 C 
ATOM     15  C   UNL     1       8.731  -2.452  10.460  0.00  0.00    +0.010 C 
ATOM     16  C   UNL     1       7.885  -3.515   9.732  0.00  0.00    +0.037 C 
ATOM     17  C   UNL     1       5.469  -4.197   7.393  0.00  0.00    +0.264 A 
ATOM     18  O   UNL     1       5.417  -4.993   8.315  0.00  0.00    -0.267 OA
ATOM     19  N   UNL     1       4.604  -4.284   6.365  0.00  0.00    -0.280 N 
ATOM     20  H   UNL     1       1.785  -3.778   1.996  0.00  0.00    -0.081 HD
ENDROOT
BRANCH   1  21
ATOM     21  C   UNL     1       2.063  -2.237   0.690  0.00  0.00    -0.043 C 
BRANCH  21  27
ATOM     22  C   UNL     1       4.561  -4.008  -3.268  0.00  0.00    +0.044 C 
ATOM     23  C   UNL     1       3.339  -4.014  -2.387  0.00  0.00    -0.050 A 
ATOM     24  C   UNL     1       2.291  -4.872  -2.664  0.00  0.00    +0.003 A 
ATOM     25  C   UNL     1       1.169  -4.877  -1.856  0.00  0.00    +0.004 A 
ATOM     26  C   UNL     1       1.096  -4.024  -0.771  0.00  0.00    -0.049 A 
ATOM     27  C   UNL     1       2.144  -3.167  -0.493  0.00  0.00    -0.061 A 
ATOM     28  C   UNL     1       3.267  -3.165  -1.299  0.00  0.00    +0.005 A 
ATOM     29  C   UNL     1      -0.127  -4.029   0.110  0.00  0.00    +0.044 C 
ENDBRANCH  21  27
ENDBRANCH   1  21
BRANCH  19  30
ATOM     30  C   UNL     1       3.595  -5.346   6.362  0.00  0.00    +0.133 C 
BRANCH  30  31
ATOM     31  C   UNL     1       4.206  -6.628   5.793  0.00  0.00    +0.057 C 
BRANCH  31  32
ATOM     32  C   UNL     1       3.169  -7.721   5.790  0.00  0.00    -0.046 A 
ATOM     33  C   UNL     1       3.029  -8.545   6.892  0.00  0.00    +0.004 A 
ATOM     34  C   UNL     1       2.077  -9.547   6.889  0.00  0.00    +0.000 A 
ATOM     35  C   UNL     1       1.265  -9.726   5.785  0.00  0.00    +0.000 A 
ATOM     36  C   UNL     1       1.404  -8.901   4.684  0.00  0.00    +0.000 A 
ATOM     37  C   UNL     1       2.353  -7.896   4.689  0.00  0.00    +0.004 A 
ENDBRANCH  31  32
ENDBRANCH  30  31
ENDBRANCH  19  30
TORSDOF 5
