REMARK  Name = ZINC20412838
REMARK  7 active torsions:
REMARK  status: ('A' for Active; 'I' for Inactive)
REMARK    1  A    between atoms: C_1  and  C_2
REMARK    2  A    between atoms: C_7  and  C_42
REMARK    3  A    between atoms: C_18  and  C_20
REMARK    4  A    between atoms: C_20  and  N_21
REMARK    5  A    between atoms: N_24  and  C_27
REMARK    6  A    between atoms: C_27  and  C_29
REMARK    7  A    between atoms: C_27  and  C_35
REMARK                            x       y       z     vdW  Elec       q    Type
REMARK                         _______ _______ _______ _____ _____    ______ ____
ROOT
ATOM      1  N   UNL     1       1.077   5.022   4.412  0.00  0.00    +0.382 N 
ATOM      2  C   UNL     1       0.915   4.265   5.661  0.00  0.00    -0.063 C 
ATOM      3  C   UNL     1       2.036   4.643   6.632  0.00  0.00    +0.067 C 
ATOM      4  N   UNL     1       1.993   6.090   6.887  0.00  0.00    -0.295 NA
ATOM      5  C   UNL     1       2.154   6.847   5.638  0.00  0.00    +0.067 C 
ATOM      6  C   UNL     1       1.033   6.469   4.667  0.00  0.00    -0.063 C 
ATOM      7  H   UNL     1       2.065   4.780   3.994  0.00  0.00    -0.082 HD
ENDROOT
BRANCH   1   8
ATOM      8  C   UNL     1       0.062   4.631   3.424  0.00  0.00    -0.063 C 
BRANCH   8  23
ATOM      9  C   UNL     1      -0.670   6.363  -0.992  0.00  0.00    +0.012 C 
ATOM     10  C   UNL     1      -1.835   5.519  -0.470  0.00  0.00    +0.012 C 
ATOM     11  C   UNL     1      -2.835   5.272  -1.601  0.00  0.00    +0.007 C 
ATOM     12  C   UNL     1      -2.164   4.429  -2.688  0.00  0.00    +0.001 C 
ATOM     13  C   UNL     1      -1.825   3.050  -2.121  0.00  0.00    +0.011 C 
ATOM     14  C   UNL     1      -0.808   3.192  -0.984  0.00  0.00    -0.007 C 
ATOM     15  C   UNL     1      -1.312   4.182   0.026  0.00  0.00    -0.064 C 
ATOM     16  C   UNL     1      -1.302   3.967   1.304  0.00  0.00    -0.019 C 
ATOM     17  C   UNL     1      -0.787   2.731   1.977  0.00  0.00    +0.064 C 
ATOM     18  C   UNL     1       0.088   1.917   0.998  0.00  0.00    +0.185 C 
ATOM     19  C   UNL     1      -0.552   1.824  -0.367  0.00  0.00    +0.056 C 
ATOM     20  O   UNL     1       1.344   2.658   0.975  0.00  0.00    -0.461 OA
ATOM     21  C   UNL     1       1.603   3.054   2.240  0.00  0.00    +0.309 C 
ATOM     22  O   UNL     1       2.700   3.273   2.694  0.00  0.00    -0.251 OA
ATOM     23  C   UNL     1       0.296   3.180   3.000  0.00  0.00    +0.092 C 
ATOM     24  C   UNL     1       0.511   3.707  -1.565  0.00  0.00    +0.016 C 
ENDBRANCH   8  23
ENDBRANCH   1   8
BRANCH   4  25
ATOM     25  C   UNL     1       3.007   6.481   7.875  0.00  0.00    +0.117 C 
BRANCH  25  26
ATOM     26  C   UNL     1       2.810   5.685   9.139  0.00  0.00    -0.026 A 
ATOM     27  C   UNL     1       1.534   5.440   9.610  0.00  0.00    +0.007 A 
ATOM     28  C   UNL     1       1.352   4.706  10.766  0.00  0.00    +0.020 A 
ATOM     29  C   UNL     1       2.449   4.226  11.460  0.00  0.00    +0.041 A 
ATOM     30  C   UNL     1       3.726   4.476  10.992  0.00  0.00    +0.020 A 
ATOM     31  C   UNL     1       3.906   5.206   9.832  0.00  0.00    +0.007 A 
ATOM     32 CL   UNL     1       2.221   3.309  12.917  0.00  0.00    -0.084 Cl
ENDBRANCH  25  26
BRANCH  25  33
ATOM     33  C   UNL     1       2.872   7.950   8.179  0.00  0.00    -0.026 A 
ATOM     34  C   UNL     1       1.617   8.520   8.294  0.00  0.00    +0.005 A 
ATOM     35  C   UNL     1       1.493   9.867   8.579  0.00  0.00    +0.000 A 
ATOM     36  C   UNL     1       2.623  10.647   8.738  0.00  0.00    +0.000 A 
ATOM     37  C   UNL     1       3.878  10.079   8.617  0.00  0.00    +0.000 A 
ATOM     38  C   UNL     1       4.002   8.730   8.338  0.00  0.00    +0.005 A 
ENDBRANCH  25  33
ENDBRANCH   4  25
TORSDOF 5
