REMARK  Name = ZINC01689688
REMARK  13 active torsions:
REMARK  status: ('A' for Active; 'I' for Inactive)
REMARK    1  A    between atoms: C_1  and  C_2
REMARK    2  A    between atoms: C_2  and  C_3
REMARK    3  A    between atoms: C_2  and  C_4
REMARK    4  A    between atoms: C_4  and  C_6
REMARK    5  A    between atoms: C_4  and  N_51
REMARK    6  A    between atoms: N_8  and  C_9
REMARK    7  A    between atoms: C_9  and  C_11
REMARK    8  A    between atoms: C_9  and  C_14
REMARK    9  A    between atoms: C_11  and  C_12
REMARK   10  A    between atoms: C_11  and  C_13
REMARK   11  A    between atoms: N_16  and  C_17
REMARK   12  A    between atoms: C_20  and  S_23
REMARK   13  A    between atoms: S_23  and  N_26
REMARK                            x       y       z     vdW  Elec       q    Type
REMARK                         _______ _______ _______ _____ _____    ______ ____
ROOT
ATOM      1  C   UNL     1      -2.582   4.166   0.253  0.00  0.00    +0.162 C 
ENDROOT
BRANCH   1   4
ATOM      2  C   UNL     1      -3.208   6.502  -0.043  0.00  0.00    +0.199 C 
ATOM      3  O   UNL     1      -4.312   6.133  -0.382  0.00  0.00    -0.278 OA
ATOM      4  N   UNL     1      -2.269   5.597   0.296  0.00  0.00    -0.305 N 
ATOM      5  H   UNL     1      -1.386   5.892   0.567  0.00  0.00    +0.149 HD
BRANCH   2   6
ATOM      6  C   UNL     1      -2.886   7.974   0.001  0.00  0.00    +0.015 C 
BRANCH   6   9
ATOM      7  H   UNL     1      -3.944   9.733   0.162  0.00  0.00    -0.089 HD
ATOM      8  H   UNL     1      -4.714   8.566  -0.739  0.00  0.00    -0.089 HD
ATOM      9  N   UNL     1      -4.144   8.737   0.088  0.00  0.00    +0.386 N 
ATOM     10  H   UNL     1      -4.664   8.437   0.921  0.00  0.00    -0.089 HD
ENDBRANCH   6   9
BRANCH   6  12
ATOM     11  C   UNL     1      -1.784   9.858  -1.214  0.00  0.00    +0.006 C 
ATOM     12  C   UNL     1      -2.111   8.364  -1.259  0.00  0.00    -0.023 C 
ATOM     13  C   UNL     1      -0.811   7.560  -1.327  0.00  0.00    +0.006 C 
ENDBRANCH   6  12
ENDBRANCH   2   6
ENDBRANCH   1   4
BRANCH   1  14
ATOM     14  C   UNL     1      -1.311   3.380   0.062  0.00  0.00    +0.238 C 
ATOM     15  O   UNL     1      -0.239   3.888   0.316  0.00  0.00    -0.273 OA
ATOM     16  N   UNL     1      -1.365   2.111  -0.390  0.00  0.00    -0.284 N 
ATOM     17  H   UNL     1      -2.215   1.727  -0.655  0.00  0.00    +0.155 HD
BRANCH  16  18
ATOM     18  C   UNL     1      -0.195   1.349  -0.478  0.00  0.00    +0.034 A 
ATOM     19  C   UNL     1       1.006   1.955  -0.826  0.00  0.00    +0.025 A 
ATOM     20  C   UNL     1       2.158   1.199  -0.916  0.00  0.00    +0.030 A 
ATOM     21  C   UNL     1       2.118  -0.159  -0.662  0.00  0.00    +0.105 A 
ATOM     22  C   UNL     1       0.924  -0.766  -0.316  0.00  0.00    +0.030 A 
ATOM     23  C   UNL     1      -0.232  -0.015  -0.223  0.00  0.00    +0.025 A 
BRANCH  21  24
ATOM     24  S   UNL     1       3.590  -1.120  -0.779  0.00  0.00    +0.056 S 
ATOM     25  O   UNL     1       4.676  -0.224  -0.586  0.00  0.00    -0.153 OA
ATOM     26  O   UNL     1       3.393  -2.266   0.038  0.00  0.00    -0.153 OA
BRANCH  24  27
ATOM     27  N   UNL     1       3.697  -1.664  -2.340  0.00  0.00    -0.204 NA
ATOM     28  H   UNL     1       3.010  -1.429  -2.983  0.00  0.00    +0.144 HD
ATOM     29  H   UNL     1       4.446  -2.218  -2.610  0.00  0.00    +0.144 HD
ENDBRANCH  24  27
ENDBRANCH  21  24
ENDBRANCH  16  18
ENDBRANCH   1  14
BRANCH   1  30
ATOM     30  C   UNL     1      -3.246   3.750   1.567  0.00  0.00    +0.012 C 
ATOM     31  C   UNL     1      -2.340   4.131   2.740  0.00  0.00    +0.009 C 
ATOM     32  C   UNL     1      -4.591   4.467   1.708  0.00  0.00    +0.009 C 
ENDBRANCH   1  30
TORSDOF 9
