REMARK  Name = ZINC58164049
REMARK  14 active torsions:
REMARK  status: ('A' for Active; 'I' for Inactive)
REMARK    1  A    between atoms: C_1  and  C_2
REMARK    2  A    between atoms: C_3  and  C_24
REMARK    3  A    between atoms: C_4  and  N_10
REMARK    4  A    between atoms: C_6  and  C_7
REMARK    5  A    between atoms: C_11  and  C_13
REMARK    6  A    between atoms: C_13  and  N_14
REMARK    7  A    between atoms: N_14  and  C_15
REMARK    8  A    between atoms: C_15  and  C_17
REMARK    9  A    between atoms: C_15  and  C_18
REMARK   10  A    between atoms: C_24  and  O_26
REMARK   11  A    between atoms: O_26  and  C_27
REMARK   12  A    between atoms: C_27  and  C_28
REMARK   13  A    between atoms: C_28  and  O_29
REMARK   14  A    between atoms: O_29  and  C_30
REMARK                            x       y       z     vdW  Elec       q    Type
REMARK                         _______ _______ _______ _____ _____    ______ ____
ROOT
ATOM      1  C   UNL     1      -0.018   1.503   0.010  0.00  0.00    +0.046 C 
ATOM      2  C   UNL     1       0.002  -0.004   0.002  0.00  0.00    -0.015 A 
ATOM      3  C   UNL     1       0.006  -0.730  -1.182  0.00  0.00    +0.091 A 
ATOM      4  C   UNL     1       0.026  -2.123  -1.086  0.00  0.00    +0.087 A 
ATOM      5  S   UNL     1       0.038  -2.412   0.569  0.00  0.00    -0.068 S 
ATOM      6  C   UNL     1       0.024  -0.732   1.161  0.00  0.00    +0.079 A 
ENDROOT
BRANCH   6   7
ATOM      7  C   UNL     1       0.030  -0.250   2.544  0.00  0.00    +0.248 C 
ATOM      8  O   UNL     1       0.016   0.945   2.771  0.00  0.00    -0.270 OA
ATOM      9  N   UNL     1       0.052  -1.130   3.564  0.00  0.00    -0.325 N 
ATOM     10  H   UNL     1       0.064  -2.083   3.382  0.00  0.00    +0.145 HD
ATOM     11  H   UNL     1       0.057  -0.811   4.480  0.00  0.00    +0.145 HD
ENDBRANCH   6   7
BRANCH   4  12
ATOM     12  N   UNL     1       0.033  -3.047  -2.112  0.00  0.00    -0.278 N 
ATOM     13  C   UNL     1       0.053  -4.365  -1.832  0.00  0.00    +0.231 C 
ATOM     14  O   UNL     1       0.065  -4.740  -0.679  0.00  0.00    -0.274 OA
ATOM     15  H   UNL     1       0.024  -2.747  -3.035  0.00  0.00    +0.155 HD
BRANCH  13  16
ATOM     16  C   UNL     1       0.061  -5.373  -2.952  0.00  0.00    +0.178 C 
BRANCH  16  17
ATOM     17  N   UNL     1       0.083  -6.730  -2.389  0.00  0.00    -0.302 NA
ATOM     18  H   UNL     1       0.870  -6.852  -1.769  0.00  0.00    +0.123 HD
BRANCH  17  19
ATOM     19  C   UNL     1       0.091  -7.742  -3.454  0.00  0.00    +0.081 C 
ATOM     20  C   UNL     1      -1.345  -8.022  -3.903  0.00  0.00    +0.029 C 
BRANCH  19  21
ATOM     21  C   UNL     1       0.712  -9.013  -2.935  0.00  0.00    -0.031 A 
ATOM     22  C   UNL     1       0.428  -9.448  -1.654  0.00  0.00    +0.005 A 
ATOM     23  C   UNL     1       0.998 -10.614  -1.177  0.00  0.00    +0.000 A 
ATOM     24  C   UNL     1       1.851 -11.345  -1.982  0.00  0.00    +0.000 A 
ATOM     25  C   UNL     1       2.135 -10.911  -3.263  0.00  0.00    +0.000 A 
ATOM     26  C   UNL     1       1.562  -9.747  -3.741  0.00  0.00    +0.005 A 
ENDBRANCH  19  21
ENDBRANCH  17  19
ENDBRANCH  16  17
ENDBRANCH  13  16
ENDBRANCH   4  12
BRANCH   3  27
ATOM     27  C   UNL     1      -0.010  -0.058  -2.486  0.00  0.00    +0.342 C 
ATOM     28  O   UNL     1       1.036   0.236  -3.032  0.00  0.00    -0.245 OA
BRANCH  27  29
ATOM     29  O   UNL     1      -1.185   0.234  -3.079  0.00  0.00    -0.459 OA
BRANCH  29  30
ATOM     30  C   UNL     1      -1.127   0.889  -4.347  0.00  0.00    +0.260 C 
BRANCH  30  31
ATOM     31  C   UNL     1      -2.547   1.137  -4.860  0.00  0.00    +0.200 C 
BRANCH  31  32
ATOM     32  O   UNL     1      -3.213   2.055  -3.991  0.00  0.00    -0.380 OA
ATOM     33  C   UNL     1      -4.554   2.356  -4.382  0.00  0.00    +0.194 C 
ENDBRANCH  31  32
ENDBRANCH  30  31
ENDBRANCH  29  30
ENDBRANCH  27  29
ENDBRANCH   3  27
TORSDOF 11
