REMARK  Name = ZINC63362285
REMARK  12 active torsions:
REMARK  status: ('A' for Active; 'I' for Inactive)
REMARK    1  A    between atoms: C_1  and  C_2
REMARK    2  A    between atoms: C_2  and  C_3
REMARK    3  A    between atoms: C_3  and  C_4
REMARK    4  A    between atoms: C_4  and  C_5
REMARK    5  A    between atoms: C_5  and  C_6
REMARK    6  A    between atoms: C_6  and  C_8
REMARK    7  A    between atoms: C_6  and  N_9
REMARK    8  A    between atoms: C_10  and  C_12
REMARK    9  A    between atoms: C_15  and  N_18
REMARK   10  A    between atoms: C_21  and  C_39
REMARK   11  A    between atoms: C_27  and  O_32
REMARK   12  A    between atoms: O_32  and  C_33
REMARK                            x       y       z     vdW  Elec       q    Type
REMARK                         _______ _______ _______ _____ _____    ______ ____
ROOT
ATOM      1  N   UNL     1       0.563  -7.635  -6.168  0.00  0.00    -0.192 N 
ATOM      2  C   UNL     1       1.241  -8.793  -6.302  0.00  0.00    +0.253 C 
ATOM      3  O   UNL     1       1.499  -9.595  -5.430  0.00  0.00    -0.272 OA
ATOM      4  C   UNL     1       1.610  -8.886  -7.766  0.00  0.00    +0.137 C 
ATOM      5  C   UNL     1       3.135  -8.903  -7.925  0.00  0.00    +0.139 C 
ATOM      6  C   UNL     1       3.424  -8.454  -9.353  0.00  0.00    -0.034 C 
ATOM      7  C   UNL     1       4.124  -9.432  -9.918  0.00  0.00    +0.003 A 
ATOM      8  C   UNL     1       4.737  -9.556 -11.249  0.00  0.00    +0.055 A 
ATOM      9  C   UNL     1       5.388 -10.722 -11.515  0.00  0.00    +0.121 A 
ATOM     10  C   UNL     1       5.499 -11.783 -10.605  0.00  0.00    +0.047 A 
ATOM     11  C   UNL     1       4.978 -11.772  -9.352  0.00  0.00    +0.029 A 
ATOM     12  C   UNL     1       4.253 -10.560  -8.945  0.00  0.00    +0.043 A 
ATOM     13  N   UNL     1       3.668 -10.263  -7.811  0.00  0.00    -0.375 N 
ATOM     14  C   UNL     1       2.907  -7.160  -9.934  0.00  0.00    +0.052 C 
ATOM     15  C   UNL     1       1.387  -7.122  -9.681  0.00  0.00    +0.115 C 
ATOM     16  N   UNL     1       1.135  -7.596  -8.317  0.00  0.00    -0.268 N 
ATOM     17  C   UNL     1       0.480  -6.973  -7.329  0.00  0.00    +0.316 C 
ATOM     18  O   UNL     1      -0.119  -5.925  -7.470  0.00  0.00    -0.252 OA
ATOM     19  C   UNL     1       0.942 -10.082  -8.449  0.00  0.00    +0.044 C 
ATOM     20  H   UNL     1       3.596 -10.836  -7.032  0.00  0.00    +0.160 HD
ENDROOT
BRANCH   1  24
ATOM     21  C   UNL     1      -1.083  -6.288  -2.583  0.00  0.00    +0.037 A 
ATOM     22  C   UNL     1      -1.108  -5.470  -3.716  0.00  0.00    +0.015 A 
ATOM     23  C   UNL     1      -0.563  -5.918  -4.898  0.00  0.00    +0.025 A 
ATOM     24  C   UNL     1       0.011  -7.183  -4.965  0.00  0.00    +0.045 A 
ATOM     25  C   UNL     1       0.037  -8.000  -3.840  0.00  0.00    +0.025 A 
ATOM     26  C   UNL     1      -0.501  -7.556  -2.653  0.00  0.00    +0.015 A 
BRANCH  21  28
ATOM     27  N   UNL     1      -2.228  -4.587  -1.247  0.00  0.00    -0.309 N 
ATOM     28  C   UNL     1      -1.666  -5.810  -1.313  0.00  0.00    +0.244 C 
ATOM     29  O   UNL     1      -1.639  -6.521  -0.327  0.00  0.00    -0.270 OA
ATOM     30  H   UNL     1      -2.249  -4.020  -2.034  0.00  0.00    +0.149 HD
BRANCH  27  31
ATOM     31  C   UNL     1      -2.806  -4.114   0.013  0.00  0.00    +0.070 C 
ATOM     32  C   UNL     1      -4.245  -4.620   0.136  0.00  0.00    +0.028 C 
BRANCH  31  33
ATOM     33  C   UNL     1      -2.800  -2.584   0.034  0.00  0.00    +0.022 C 
BRANCH  33  34
ATOM     34  C   UNL     1      -1.356  -2.079   0.036  0.00  0.00    +0.002 C 
BRANCH  34  35
ATOM     35  C   UNL     1      -1.350  -0.549   0.057  0.00  0.00    -0.000 C 
BRANCH  35  37
ATOM     36  C   UNL     1       0.100   1.485   0.080  0.00  0.00    +0.004 C 
ATOM     37  C   UNL     1       0.094  -0.045   0.060  0.00  0.00    -0.003 C 
ENDBRANCH  35  37
ENDBRANCH  34  35
ENDBRANCH  33  34
ENDBRANCH  31  33
ENDBRANCH  27  31
ENDBRANCH  21  28
ENDBRANCH   1  24
BRANCH   9  38
ATOM     38  O   UNL     1       5.964 -10.866 -12.738  0.00  0.00    -0.495 OA
ATOM     39  C   UNL     1       6.641 -12.098 -12.995  0.00  0.00    +0.277 C 
ENDBRANCH   9  38
TORSDOF 8
