REMARK  Name = ZINC20882147
REMARK  9 active torsions:
REMARK  status: ('A' for Active; 'I' for Inactive)
REMARK    1  A    between atoms: C_1  and  O_2
REMARK    2  A    between atoms: O_2  and  C_3
REMARK    3  A    between atoms: C_6  and  O_37
REMARK    4  A    between atoms: C_7  and  C_9
REMARK    5  A    between atoms: C_14  and  C_24
REMARK    6  A    between atoms: C_26  and  O_32
REMARK    7  A    between atoms: C_27  and  O_31
REMARK    8  A    between atoms: O_32  and  C_33
REMARK    9  A    between atoms: O_37  and  C_38
REMARK                            x       y       z     vdW  Elec       q    Type
REMARK                         _______ _______ _______ _____ _____    ______ ____
ROOT
ATOM      1  C   UNL     1       2.067   4.672   0.254  0.00  0.00    +0.036 C 
ATOM      2  C   UNL     1       1.319   3.522   0.927  0.00  0.00    +0.060 C 
ATOM      3  C   UNL     1       1.239   2.334  -0.018  0.00  0.00    +0.017 C 
ATOM      4  C   UNL     1       2.238   2.085  -0.881  0.00  0.00    +0.036 C 
ATOM      5  C   UNL     1       2.308   0.924  -1.845  0.00  0.00    +0.136 C 
ATOM      6  N   UNL     1       1.069   0.189  -1.986  0.00  0.00    -0.331 N 
ATOM      7  C   UNL     1       0.523  -0.517  -0.915  0.00  0.00    +0.049 A 
ATOM      8  C   UNL     1       0.464  -1.901  -0.916  0.00  0.00    +0.025 A 
ATOM      9  C   UNL     1       0.012  -2.563   0.213  0.00  0.00    +0.002 A 
ATOM     10  C   UNL     1      -0.379  -1.852   1.332  0.00  0.00    +0.002 A 
ATOM     11  C   UNL     1      -0.340  -0.468   1.329  0.00  0.00    +0.025 A 
ATOM     12  C   UNL     1       0.095   0.196   0.195  0.00  0.00    +0.052 A 
ATOM     13  N   UNL     1       0.115   1.583   0.108  0.00  0.00    -0.316 N 
ATOM     14  C   UNL     1       3.356   2.950  -0.947  0.00  0.00    +0.163 C 
ATOM     15  O   UNL     1       4.250   2.693  -1.729  0.00  0.00    -0.292 OA
ATOM     16  C   UNL     1       3.476   4.174  -0.089  0.00  0.00    +0.088 C 
ATOM     17  H   UNL     1       0.541   0.180  -2.951  0.00  0.00    +0.147 HD
ATOM     18  H   UNL     1      -0.870   2.071   0.148  0.00  0.00    +0.152 HD
ENDROOT
BRANCH   5  19
ATOM     19  C   UNL     1       3.377  -0.027  -1.372  0.00  0.00    -0.018 A 
ATOM     20  C   UNL     1       4.509  -0.229  -2.140  0.00  0.00    +0.055 A 
ATOM     21  C   UNL     1       5.496  -1.099  -1.705  0.00  0.00    +0.163 A 
ATOM     22  C   UNL     1       5.340  -1.776  -0.499  0.00  0.00    +0.177 A 
ATOM     23  C   UNL     1       4.201  -1.573   0.264  0.00  0.00    +0.086 A 
ATOM     24  C   UNL     1       3.222  -0.699  -0.174  0.00  0.00    +0.029 A 
ATOM     25 CL   UNL     1       4.002  -2.415   1.769  0.00  0.00    -0.080 Cl
BRANCH  22  26
ATOM     26  O   UNL     1       6.304  -2.634  -0.070  0.00  0.00    -0.502 OA
ATOM     27  H   UNL     1       6.180  -3.168   0.884  0.00  0.00    +0.292 HD
ENDBRANCH  22  26
BRANCH  21  28
ATOM     28  O   UNL     1       6.612  -1.295  -2.457  0.00  0.00    -0.491 OA
ATOM     29  C   UNL     1       6.704  -0.567  -3.683  0.00  0.00    +0.277 C 
ENDBRANCH  21  28
ENDBRANCH   5  19
BRANCH   1  34
ATOM     30  C   UNL     1       2.842   6.774   3.297  0.00  0.00    +0.121 A 
ATOM     31  C   UNL     1       2.315   8.003   2.927  0.00  0.00    +0.049 A 
ATOM     32  C   UNL     1       1.710   8.152   1.695  0.00  0.00    +0.049 A 
ATOM     33  C   UNL     1       1.629   7.073   0.827  0.00  0.00    +0.124 A 
ATOM     34  C   UNL     1       2.156   5.844   1.197  0.00  0.00    +0.002 A 
ATOM     35  C   UNL     1       2.756   5.694   2.432  0.00  0.00    +0.053 A 
BRANCH  30  37
ATOM     36  C   UNL     1       3.486   7.781   5.354  0.00  0.00    +0.277 C 
ATOM     37  O   UNL     1       3.438   6.628   4.511  0.00  0.00    -0.495 OA
ENDBRANCH  30  37
BRANCH  33  38
ATOM     38  O   UNL     1       1.033   7.219  -0.387  0.00  0.00    -0.495 OA
ATOM     39  C   UNL     1       0.513   8.512  -0.702  0.00  0.00    +0.277 C 
ENDBRANCH  33  38
ENDBRANCH   1  34
TORSDOF 6
