REMARK  Name = ZINC00000419
REMARK  7 active torsions:
REMARK  status: ('A' for Active; 'I' for Inactive)
REMARK    1  A    between atoms: C_3  and  O_25
REMARK    2  A    between atoms: C_4  and  O_24
REMARK    3  A    between atoms: C_6  and  C_7
REMARK    4  A    between atoms: C_9  and  O_23
REMARK    5  A    between atoms: C_11  and  O_22
REMARK    6  A    between atoms: C_14  and  O_21
REMARK    7  A    between atoms: C_16  and  O_20
REMARK                            x       y       z     vdW  Elec       q    Type
REMARK                         _______ _______ _______ _____ _____    ______ ____
ROOT
ATOM      1  C   UNL     1      -1.176  -2.048   0.366  0.00  0.00    +0.235 C 
ATOM      2  C   UNL     1      -0.079  -2.753  -0.442  0.00  0.00    +0.193 C 
ATOM      3  C   UNL     1       1.275  -2.181  -0.015  0.00  0.00    +0.184 C 
ATOM      4  C   UNL     1       1.212  -0.675  -0.012  0.00  0.00    +0.067 A 
ATOM      5  C   UNL     1       2.402   0.044  -0.022  0.00  0.00    +0.130 A 
ATOM      6  C   UNL     1       2.382   1.429  -0.014  0.00  0.00    +0.091 A 
ATOM      7  C   UNL     1       1.169   2.102   0.002  0.00  0.00    +0.124 A 
ATOM      8  C   UNL     1      -0.017   1.387   0.010  0.00  0.00    +0.091 A 
ATOM      9  C   UNL     1       0.002  -0.004   0.002  0.00  0.00    +0.134 A 
ATOM     10  O   UNL     1      -1.184  -0.667   0.005  0.00  0.00    -0.481 OA
ENDROOT
BRANCH   1  16
ATOM     11  C   UNL     1      -3.177  -2.315  -1.111  0.00  0.00    +0.011 A 
ATOM     12  C   UNL     1      -4.403  -2.881  -1.409  0.00  0.00    +0.049 A 
ATOM     13  C   UNL     1      -4.976  -3.791  -0.535  0.00  0.00    +0.158 A 
ATOM     14  C   UNL     1      -4.312  -4.138   0.638  0.00  0.00    +0.159 A 
ATOM     15  C   UNL     1      -3.081  -3.571   0.927  0.00  0.00    +0.056 A 
ATOM     16  C   UNL     1      -2.515  -2.664   0.051  0.00  0.00    -0.001 A 
BRANCH  14  17
ATOM     17  O   UNL     1      -4.870  -5.031   1.498  0.00  0.00    -0.503 OA
ATOM     18  H   UNL     1      -5.435  -4.628   2.172  0.00  0.00    +0.292 HD
ENDBRANCH  14  17
BRANCH  13  19
ATOM     19  O   UNL     1      -6.184  -4.345  -0.823  0.00  0.00    -0.503 OA
ATOM     20  H   UNL     1      -6.938  -3.843  -0.483  0.00  0.00    +0.292 HD
ENDBRANCH  13  19
ENDBRANCH   1  16
BRANCH   7  21
ATOM     21  O   UNL     1       1.145   3.460   0.010  0.00  0.00    -0.507 OA
ATOM     22  H   UNL     1       1.147   3.848   0.896  0.00  0.00    +0.292 HD
ENDBRANCH   7  21
BRANCH   5  23
ATOM     23  O   UNL     1       3.590  -0.616  -0.038  0.00  0.00    -0.506 OA
ATOM     24  H   UNL     1       3.924  -0.802  -0.926  0.00  0.00    +0.292 HD
ENDBRANCH   5  23
BRANCH   3  25
ATOM     25  O   UNL     1       1.594  -2.645   1.299  0.00  0.00    -0.384 OA
ATOM     26  H   UNL     1       2.441  -2.321   1.635  0.00  0.00    +0.210 HD
ENDBRANCH   3  25
BRANCH   2  27
ATOM     27  O   UNL     1      -0.113  -4.157  -0.178  0.00  0.00    -0.385 OA
ATOM     28  H   UNL     1       0.556  -4.664  -0.658  0.00  0.00    +0.210 HD
ENDBRANCH   2  27
TORSDOF 7
