REMARK  Name = ZINC28468737
REMARK  4 active torsions:
REMARK  status: ('A' for Active; 'I' for Inactive)
REMARK    1  A    between atoms: C_4  and  N_21
REMARK    2  A    between atoms: C_5  and  N_7
REMARK    3  A    between atoms: C_8  and  C_10
REMARK    4  A    between atoms: C_11  and  C_12
REMARK                            x       y       z     vdW  Elec       q    Type
REMARK                         _______ _______ _______ _____ _____    ______ ____
ROOT
ATOM      1  N   UNL     1       0.002  -0.004   0.002  0.00  0.00    -0.280 N 
ATOM      2  C   UNL     1       0.058   1.214  -0.573  0.00  0.00    +0.241 C 
ATOM      3  O   UNL     1      -0.935   1.686  -1.096  0.00  0.00    -0.270 OA
ATOM      4  H   UNL     1       0.919  -0.471   0.392  0.00  0.00    +0.155 HD
ENDROOT
BRANCH   1   9
ATOM      5  C   UNL     1      -3.618  -0.624   0.209  0.00  0.00    +0.002 A 
ATOM      6  C   UNL     1      -3.647  -2.003   0.301  0.00  0.00    +0.002 A 
ATOM      7  C   UNL     1      -2.469  -2.726   0.294  0.00  0.00    +0.025 A 
ATOM      8  C   UNL     1      -1.252  -2.067   0.190  0.00  0.00    +0.051 A 
ATOM      9  C   UNL     1      -1.223  -0.675   0.103  0.00  0.00    +0.055 A 
ATOM     10  C   UNL     1      -2.410   0.041   0.110  0.00  0.00    +0.025 A 
BRANCH   8  11
ATOM     11  N   UNL     1      -0.059  -2.797   0.178  0.00  0.00    -0.328 N 
ATOM     12  C   UNL     1       0.021  -3.655  -1.012  0.00  0.00    +0.105 C 
ATOM     13  C   UNL     1       1.396  -4.324  -1.067  0.00  0.00    +0.019 C 
ATOM     14  C   UNL     1       1.605  -5.157   0.201  0.00  0.00    +0.003 C 
ATOM     15  C   UNL     1       1.468  -4.249   1.426  0.00  0.00    +0.019 C 
ATOM     16  C   UNL     1       0.091  -3.582   1.410  0.00  0.00    +0.105 C 
ENDBRANCH   8  11
ENDBRANCH   1   9
BRANCH   2  17
ATOM     17  C   UNL     1       1.312   1.965  -0.574  0.00  0.00    +0.068 C 
ATOM     18  C   UNL     1       1.368   3.185  -1.149  0.00  0.00    +0.013 C 
BRANCH  18  19
ATOM     19  C   UNL     1       2.629   3.940  -1.150  0.00  0.00    -0.021 A 
ATOM     20  C   UNL     1       3.773   3.397  -0.554  0.00  0.00    +0.012 A 
ATOM     21  C   UNL     1       4.953   4.107  -0.557  0.00  0.00    +0.050 A 
ATOM     22  C   UNL     1       5.013   5.363  -1.148  0.00  0.00    +0.166 A 
ATOM     23  C   UNL     1       3.876   5.911  -1.744  0.00  0.00    +0.167 A 
ATOM     24  C   UNL     1       2.691   5.203  -1.751  0.00  0.00    +0.057 A 
ATOM     25  O   UNL     1       4.197   7.139  -2.247  0.00  0.00    -0.453 OA
ATOM     26  C   UNL     1       5.635   7.161  -2.316  0.00  0.00    +0.466 C 
ATOM     27  O   UNL     1       6.042   6.248  -1.280  0.00  0.00    -0.453 OA
ENDBRANCH  18  19
ENDBRANCH   2  17
TORSDOF 4
