REMARK  Name = ZINC36063488
REMARK  11 active torsions:
REMARK  status: ('A' for Active; 'I' for Inactive)
REMARK    1  A    between atoms: C_1  and  C_2
REMARK    2  A    between atoms: C_3  and  C_30
REMARK    3  A    between atoms: C_4  and  C_21
REMARK    4  A    between atoms: C_7  and  C_12
REMARK    5  A    between atoms: C_13  and  N_15
REMARK    6  A    between atoms: C_24  and  C_27
REMARK    7  A    between atoms: C_27  and  C_28
REMARK    8  A    between atoms: C_27  and  C_29
REMARK    9  A    between atoms: C_30  and  O_32
REMARK   10  A    between atoms: O_32  and  C_33
REMARK   11  A    between atoms: C_33  and  C_34
REMARK                            x       y       z     vdW  Elec       q    Type
REMARK                         _______ _______ _______ _____ _____    ______ ____
ROOT
ATOM      1  C   UNL     1       0.442   0.751   1.563  0.00  0.00    +0.066 C 
ATOM      2  C   UNL     1       0.448  -0.632   0.966  0.00  0.00    +0.053 C 
ATOM      3  C   UNL     1      -0.745  -1.302   0.774  0.00  0.00    +0.082 C 
ATOM      4  C   UNL     1      -0.686  -2.688   0.171  0.00  0.00    +0.150 C 
ATOM      5  N   UNL     1       0.660  -3.222  -0.169  0.00  0.00    -0.267 N 
ATOM      6  C   UNL     1       0.950  -4.452  -0.724  0.00  0.00    +0.048 C 
ATOM      7  C   UNL     1       2.249  -4.745  -0.956  0.00  0.00    +0.072 C 
ATOM      8  S   UNL     1       3.067  -3.268  -0.385  0.00  0.00    -0.060 S 
ATOM      9  C   UNL     1       1.717  -2.398   0.101  0.00  0.00    +0.166 C 
ATOM     10  N   UNL     1       1.596  -1.195   0.625  0.00  0.00    -0.230 NA
ENDROOT
BRANCH   4  11
ATOM     11  C   UNL     1      -1.332  -3.644   1.141  0.00  0.00    -0.022 A 
ATOM     12  C   UNL     1      -0.674  -3.999   2.303  0.00  0.00    +0.006 A 
ATOM     13  C   UNL     1      -1.266  -4.875   3.193  0.00  0.00    +0.004 A 
ATOM     14  C   UNL     1      -2.517  -5.396   2.920  0.00  0.00    -0.045 A 
ATOM     15  C   UNL     1      -3.176  -5.041   1.758  0.00  0.00    +0.004 A 
ATOM     16  C   UNL     1      -2.585  -4.161   0.870  0.00  0.00    +0.006 A 
BRANCH  14  17
ATOM     17  C   UNL     1      -3.163  -6.353   3.889  0.00  0.00    +0.013 C 
ATOM     18  C   UNL     1      -4.535  -5.814   4.300  0.00  0.00    +0.012 C 
ATOM     19  C   UNL     1      -3.330  -7.720   3.223  0.00  0.00    +0.012 C 
ENDBRANCH  14  17
ENDBRANCH   4  11
BRANCH   6  20
ATOM     20  C   UNL     1      -0.116  -5.410  -1.050  0.00  0.00    +0.091 C 
ATOM     21  C   UNL     1       0.199  -6.651  -1.471  0.00  0.00    +0.241 C 
ATOM     22  O   UNL     1       1.492  -7.058  -1.473  0.00  0.00    -0.271 OA
BRANCH  21  23
ATOM     23  N   UNL     1      -0.798  -7.510  -1.902  0.00  0.00    -0.294 N 
ATOM     24  C   UNL     1      -2.031  -6.992  -2.514  0.00  0.00    +0.136 C 
ATOM     25  C   UNL     1      -2.266  -7.737  -3.833  0.00  0.00    +0.179 C 
ATOM     26  O   UNL     1      -2.219  -9.145  -3.593  0.00  0.00    -0.377 OA
ATOM     27  C   UNL     1      -0.956  -9.616  -3.117  0.00  0.00    +0.179 C 
ATOM     28  C   UNL     1      -0.652  -8.968  -1.766  0.00  0.00    +0.136 C 
ENDBRANCH  21  23
ENDBRANCH   6  20
BRANCH   3  29
ATOM     29  C   UNL     1      -1.967  -0.718   1.126  0.00  0.00    +0.339 C 
ATOM     30  O   UNL     1      -1.991   0.400   1.611  0.00  0.00    -0.245 OA
BRANCH  29  31
ATOM     31  O   UNL     1      -3.121  -1.393   0.928  0.00  0.00    -0.457 OA
BRANCH  31  32
ATOM     32  C   UNL     1      -4.331  -0.737   1.310  0.00  0.00    +0.268 C 
BRANCH  32  33
ATOM     33  C   UNL     1      -5.505  -1.635   1.017  0.00  0.00    -0.010 A 
ATOM     34  C   UNL     1      -6.128  -1.578  -0.215  0.00  0.00    +0.007 A 
ATOM     35  C   UNL     1      -7.205  -2.403  -0.484  0.00  0.00    +0.000 A 
ATOM     36  C   UNL     1      -7.657  -3.285   0.480  0.00  0.00    +0.000 A 
ATOM     37  C   UNL     1      -7.033  -3.343   1.712  0.00  0.00    +0.000 A 
ATOM     38  C   UNL     1      -5.954  -2.521   1.979  0.00  0.00    +0.007 A 
ENDBRANCH  32  33
ENDBRANCH  31  32
ENDBRANCH  29  31
ENDBRANCH   3  29
TORSDOF 8
