REMARK  Name = ZINC09412270
REMARK  12 active torsions:
REMARK  status: ('A' for Active; 'I' for Inactive)
REMARK    1  A    between atoms: C_1  and  C_2
REMARK    2  A    between atoms: C_2  and  O_3
REMARK    3  A    between atoms: O_3  and  C_4
REMARK    4  A    between atoms: C_7  and  N_13
REMARK    5  A    between atoms: C_8  and  N_10
REMARK    6  A    between atoms: C_14  and  C_16
REMARK    7  A    between atoms: C_16  and  O_17
REMARK    8  A    between atoms: O_17  and  C_18
REMARK    9  A    between atoms: C_18  and  C_20
REMARK   10  A    between atoms: C_20  and  C_22
REMARK   11  A    between atoms: C_20  and  O_23
REMARK   12  A    between atoms: O_23  and  C_24
REMARK                            x       y       z     vdW  Elec       q    Type
REMARK                         _______ _______ _______ _____ _____    ______ ____
ROOT
ATOM      1  N   UNL     1       4.729   4.062  -0.021  0.00  0.00    -0.281 N 
ATOM      2  C   UNL     1       5.875   3.366  -0.153  0.00  0.00    +0.255 C 
ATOM      3  O   UNL     1       5.839   2.170  -0.351  0.00  0.00    -0.272 OA
ATOM      4  H   UNL     1       4.754   5.029   0.057  0.00  0.00    +0.155 HD
ENDROOT
BRANCH   1   8
ATOM      5  C   UNL     1       1.071   2.061   0.054  0.00  0.00    +0.123 A 
ATOM      6  C   UNL     1       2.192   1.480   0.630  0.00  0.00    +0.047 A 
ATOM      7  C   UNL     1       3.404   2.139   0.600  0.00  0.00    +0.029 A 
ATOM      8  C   UNL     1       3.500   3.390   0.004  0.00  0.00    +0.064 A 
ATOM      9  C   UNL     1       2.377   3.974  -0.567  0.00  0.00    +0.151 A 
ATOM     10  C   UNL     1       1.166   3.310  -0.541  0.00  0.00    +0.080 A 
BRANCH   9  11
ATOM     11  N   UNL     1       2.478   5.306  -1.202  0.00  0.00    +0.058 N 
ATOM     12  O   UNL     1       1.516   5.779  -1.782  0.00  0.00    -0.126 OA
ATOM     13  O   UNL     1       3.522   5.930  -1.146  0.00  0.00    -0.126 OA
ENDBRANCH   9  11
BRANCH   5  14
ATOM     14  O   UNL     1      -0.122   1.409   0.079  0.00  0.00    -0.492 OA
BRANCH  14  16
ATOM     15  C   UNL     1      -1.563  -0.448   0.640  0.00  0.00    +0.048 C 
ATOM     16  C   UNL     1      -0.147   0.127   0.709  0.00  0.00    +0.225 C 
ENDBRANCH  14  16
ENDBRANCH   5  14
ENDBRANCH   1   8
BRANCH   2  17
ATOM     17  C   UNL     1       7.202   4.074  -0.056  0.00  0.00    +0.328 C 
BRANCH  17  18
ATOM     18  O   UNL     1       8.277   3.113  -0.232  0.00  0.00    -0.453 OA
BRANCH  18  19
ATOM     19  C   UNL     1       9.532   3.586  -0.172  0.00  0.00    +0.348 C 
ATOM     20  O   UNL     1       9.726   4.763   0.020  0.00  0.00    -0.247 OA
BRANCH  19  21
ATOM     21  C   UNL     1      10.699   2.648  -0.345  0.00  0.00    +0.278 C 
ATOM     22  C   UNL     1      10.656   1.574   0.744  0.00  0.00    +0.064 C 
BRANCH  21  23
ATOM     23  O   UNL     1      11.920   3.383  -0.242  0.00  0.00    -0.478 OA
BRANCH  23  24
ATOM     24  C   UNL     1      13.012   2.853  -0.853  0.00  0.00    +0.122 A 
ATOM     25  C   UNL     1      14.249   3.466  -0.718  0.00  0.00    +0.047 A 
ATOM     26  C   UNL     1      15.360   2.923  -1.335  0.00  0.00    +0.019 A 
ATOM     27  C   UNL     1      15.236   1.776  -2.098  0.00  0.00    +0.018 A 
ATOM     28  C   UNL     1      14.002   1.167  -2.239  0.00  0.00    +0.019 A 
ATOM     29  C   UNL     1      12.890   1.703  -1.619  0.00  0.00    +0.047 A 
ATOM     30 BR   UNL     1      16.756   1.039  -2.947  0.00  0.00    -0.050 Br
ENDBRANCH  23  24
ENDBRANCH  21  23
ENDBRANCH  19  21
ENDBRANCH  18  19
ENDBRANCH  17  18
ENDBRANCH   2  17
TORSDOF 10
