REMARK  Name = ZINC43670037
REMARK  5 active torsions:
REMARK  status: ('A' for Active; 'I' for Inactive)
REMARK    1  A    between atoms: C_1  and  C_2
REMARK    2  A    between atoms: C_2  and  C_4
REMARK    3  A    between atoms: C_2  and  N_13
REMARK    4  A    between atoms: C_14  and  N_21
REMARK    5  A    between atoms: C_15  and  N_18
REMARK                            x       y       z     vdW  Elec       q    Type
REMARK                         _______ _______ _______ _____ _____    ______ ____
ROOT
ATOM      1  C   UNL     1      -0.019   1.526   0.010  0.00  0.00    +0.038 C 
ATOM      2  C   UNL     1       0.002  -0.004   0.002  0.00  0.00    +0.138 C 
ENDROOT
BRANCH   2   3
ATOM      3  C   UNL     1       0.707  -0.490  -1.238  0.00  0.00    -0.002 A 
ATOM      4  C   UNL     1       2.026  -0.141  -1.464  0.00  0.00    +0.047 A 
ATOM      5  C   UNL     1       2.674  -0.588  -2.603  0.00  0.00    +0.142 A 
ATOM      6  C   UNL     1       2.001  -1.384  -3.515  0.00  0.00    +0.077 A 
ATOM      7  C   UNL     1       0.682  -1.732  -3.287  0.00  0.00    +0.043 A 
ATOM      8  C   UNL     1       0.037  -1.290  -2.146  0.00  0.00    +0.048 A 
ATOM      9 CL   UNL     1      -1.617  -1.732  -1.857  0.00  0.00    -0.083 Cl
ATOM     10 CL   UNL     1       2.812  -1.944  -4.944  0.00  0.00    -0.081 Cl
ATOM     11  F   UNL     1       3.962  -0.246  -2.825  0.00  0.00    -0.204 F 
ENDBRANCH   2   3
BRANCH   2  12
ATOM     12  N   UNL     1       0.711  -0.489   1.189  0.00  0.00    -0.242 N 
ATOM     13  C   UNL     1       0.196  -1.287   2.152  0.00  0.00    +0.146 A 
ATOM     14  C   UNL     1       1.176  -1.504   3.073  0.00  0.00    +0.185 A 
ATOM     15  C   UNL     1       2.317  -0.816   2.652  0.00  0.00    +0.169 A 
ATOM     16  N   UNL     1       2.043  -0.214   1.523  0.00  0.00    -0.175 NA
BRANCH  14  17
ATOM     17  N   UNL     1       1.053  -2.322   4.300  0.00  0.00    +0.061 N 
ATOM     18  O   UNL     1       1.999  -2.441   5.045  0.00  0.00    -0.126 OA
ATOM     19  O   UNL     1       0.008  -2.872   4.559  0.00  0.00    -0.126 OA
ENDBRANCH  14  17
BRANCH  13  20
ATOM     20  N   UNL     1      -1.100  -1.794   2.195  0.00  0.00    -0.342 N 
ATOM     21  H   UNL     1      -1.728  -1.580   1.488  0.00  0.00    +0.144 HD
ATOM     22  H   UNL     1      -1.375  -2.360   2.933  0.00  0.00    +0.144 HD
ENDBRANCH  13  20
ENDBRANCH   2  12
TORSDOF 4
