REMARK  Name = ZINC40049752
REMARK  6 active torsions:
REMARK  status: ('A' for Active; 'I' for Inactive)
REMARK    1  A    between atoms: C_11  and  C_13
REMARK    2  A    between atoms: C_13  and  S_14
REMARK    3  A    between atoms: S_14  and  C_15
REMARK    4  A    between atoms: C_19  and  C_28
REMARK    5  A    between atoms: N_20  and  C_21
REMARK    6  A    between atoms: C_21  and  C_22
REMARK                            x       y       z     vdW  Elec       q    Type
REMARK                         _______ _______ _______ _____ _____    ______ ____
ROOT
ATOM      1  C   UNL     1       7.703  -2.419   3.404  0.00  0.00    +0.237 C 
ATOM      2  N   UNL     1       6.862  -1.443   4.117  0.00  0.00    -0.237 N 
ATOM      3  N   UNL     1       7.355  -0.176   3.786  0.00  0.00    -0.169 NA
ATOM      4  C   UNL     1       8.375  -0.261   2.973  0.00  0.00    +0.147 C 
ATOM      5  N   UNL     1       8.678  -1.595   2.671  0.00  0.00    -0.283 N 
ATOM      6  H   UNL     1       6.113  -1.640   4.701  0.00  0.00    +0.171 HD
ENDROOT
BRANCH   4   7
ATOM      7  C   UNL     1       9.078   0.843   2.467  0.00  0.00    +0.022 C 
ATOM      8  C   UNL     1       8.899   2.185   2.806  0.00  0.00    +0.006 A 
ATOM      9  C   UNL     1       8.022   2.832   3.702  0.00  0.00    +0.010 A 
ATOM     10  C   UNL     1       8.070   4.183   3.834  0.00  0.00    +0.001 A 
ATOM     11  C   UNL     1       8.972   4.957   3.101  0.00  0.00    +0.002 A 
ATOM     12  C   UNL     1       9.843   4.402   2.223  0.00  0.00    +0.026 A 
ATOM     13  C   UNL     1       9.851   2.996   2.031  0.00  0.00    +0.043 A 
ATOM     14  N   UNL     1      10.586   2.227   1.252  0.00  0.00    -0.380 N 
ATOM     15  C   UNL     1      10.192   0.827   1.444  0.00  0.00    +0.152 C 
ATOM     16  H   UNL     1      11.281   2.537   0.650  0.00  0.00    +0.160 HD
ENDBRANCH   4   7
BRANCH   1  17
ATOM     17  S   UNL     1       6.701  -3.394   2.248  0.00  0.00    -0.109 S 
BRANCH  17  18
ATOM     18  C   UNL     1       5.927  -2.150   1.179  0.00  0.00    +0.168 C 
BRANCH  18  29
ATOM     19  C   UNL     1       0.608   1.147  -1.255  0.00  0.00    +0.000 A 
ATOM     20  C   UNL     1       1.702   1.913  -0.894  0.00  0.00    +0.000 A 
ATOM     21  C   UNL     1       2.935   1.314  -0.738  0.00  0.00    +0.005 A 
ATOM     22  C   UNL     1       3.085  -0.052  -0.938  0.00  0.00    -0.027 A 
ATOM     23  C   UNL     1       1.996  -0.817  -1.289  0.00  0.00    -0.041 A 
ATOM     24  C   UNL     1       0.756  -0.210  -1.452  0.00  0.00    +0.004 A 
ATOM     25  C   UNL     1       2.075  -2.307  -1.492  0.00  0.00    +0.054 C 
ATOM     26  C   UNL     1       3.515  -2.744  -1.756  0.00  0.00    +0.113 C 
ATOM     27  N   UNL     1       4.375  -2.104  -0.747  0.00  0.00    -0.296 N 
ATOM     28  C   UNL     1       4.463  -0.640  -0.766  0.00  0.00    +0.143 C 
ATOM     29  C   UNL     1       5.055  -2.835   0.159  0.00  0.00    +0.226 C 
ATOM     30  O   UNL     1       4.965  -4.045   0.153  0.00  0.00    -0.275 OA
ENDBRANCH  18  29
ENDBRANCH  17  18
ENDBRANCH   1  17
BRANCH   5  31
ATOM     31  C   UNL     1       9.752  -2.076   1.799  0.00  0.00    +0.140 C 
BRANCH  31  32
ATOM     32  C   UNL     1      11.047  -2.199   2.604  0.00  0.00    +0.136 C 
ATOM     33  C   UNL     1      12.204  -2.620   1.674  0.00  0.00    +0.035 C 
ATOM     34  C   UNL     1      12.997  -3.616   2.564  0.00  0.00    +0.031 C 
ATOM     35  C   UNL     1      11.846  -4.273   3.367  0.00  0.00    +0.160 C 
ATOM     36  O   UNL     1      10.902  -3.214   3.605  0.00  0.00    -0.375 OA
ENDBRANCH  31  32
ENDBRANCH   5  31
TORSDOF 6
