REMARK  Name = ZINC33321289
REMARK  6 active torsions:
REMARK  status: ('A' for Active; 'I' for Inactive)
REMARK    1  A    between atoms: C_1  and  C_2
REMARK    2  A    between atoms: C_11  and  C_13
REMARK    3  A    between atoms: N_15  and  C_16
REMARK    4  A    between atoms: C_21  and  C_22
REMARK    5  A    between atoms: C_22  and  O_24
REMARK    6  A    between atoms: O_24  and  C_25
REMARK                            x       y       z     vdW  Elec       q    Type
REMARK                         _______ _______ _______ _____ _____    ______ ____
ROOT
ATOM      1  C   UNL     1       1.299   1.373   0.130  0.00  0.00    +0.248 C 
ATOM      2  O   UNL     1       1.342   2.584   0.086  0.00  0.00    -0.270 OA
ATOM      3  N   UNL     1       0.112   0.738   0.061  0.00  0.00    -0.281 N 
ATOM      4  H   UNL     1       0.077  -0.361   0.031  0.00  0.00    +0.155 HD
ENDROOT
BRANCH   1  15
ATOM      5  C   UNL     1       8.954  -0.988   0.793  0.00  0.00    +0.044 C 
ATOM      6  C   UNL     1       7.564  -0.417   0.681  0.00  0.00    -0.047 A 
ATOM      7  C   UNL     1       7.203   0.801   1.426  0.00  0.00    +0.004 A 
ATOM      8  C   UNL     1       5.994   1.303   1.316  0.00  0.00    +0.012 A 
ATOM      9  C   UNL     1       4.992   0.651   0.448  0.00  0.00    +0.018 A 
ATOM     10  C   UNL     1       5.307  -0.450  -0.195  0.00  0.00    +0.135 A 
ATOM     11  C   UNL     1       6.669  -1.006  -0.083  0.00  0.00    +0.050 A 
ATOM     12  O   UNL     1       4.382  -1.119  -0.933  0.00  0.00    -0.463 OA
ATOM     13  C   UNL     1       3.305  -1.633  -0.292  0.00  0.00    +0.196 C 
ATOM     14  C   UNL     1       2.432  -0.864   0.314  0.00  0.00    +0.051 C 
ATOM     15  C   UNL     1       2.543   0.596   0.259  0.00  0.00    +0.041 C 
ATOM     16  C   UNL     1       3.660   1.252   0.322  0.00  0.00    +0.024 C 
ENDBRANCH   1  15
BRANCH   3  17
ATOM     17  C   UNL     1      -1.070   1.474   0.027  0.00  0.00    +0.048 A 
ATOM     18  C   UNL     1      -1.115   2.693  -0.637  0.00  0.00    +0.024 A 
ATOM     19  C   UNL     1      -2.289   3.418  -0.673  0.00  0.00    +0.002 A 
ATOM     20  C   UNL     1      -3.427   2.943  -0.041  0.00  0.00    +0.001 A 
ATOM     21  C   UNL     1      -3.400   1.738   0.627  0.00  0.00    +0.017 A 
ATOM     22  C   UNL     1      -2.221   0.990   0.668  0.00  0.00    +0.080 A 
BRANCH  22  23
ATOM     23  C   UNL     1      -2.185  -0.299   1.381  0.00  0.00    +0.341 C 
ATOM     24  O   UNL     1      -1.135  -0.900   1.499  0.00  0.00    -0.245 OA
BRANCH  23  25
ATOM     25  O   UNL     1      -3.317  -0.812   1.903  0.00  0.00    -0.464 OA
ATOM     26  C   UNL     1      -3.207  -2.086   2.592  0.00  0.00    +0.280 C 
ENDBRANCH  23  25
ENDBRANCH  22  23
ENDBRANCH   3  17
TORSDOF 4
