REMARK  Name = ZINC39655706
REMARK  12 active torsions:
REMARK  status: ('A' for Active; 'I' for Inactive)
REMARK    1  A    between atoms: C_1  and  C_2
REMARK    2  A    between atoms: C_5  and  N_8
REMARK    3  A    between atoms: C_9  and  C_11
REMARK    4  A    between atoms: C_11  and  C_12
REMARK    5  A    between atoms: C_14  and  C_17
REMARK    6  A    between atoms: C_17  and  O_18
REMARK    7  A    between atoms: O_18  and  C_19
REMARK    8  A    between atoms: C_19  and  C_21
REMARK    9  A    between atoms: C_21  and  C_23
REMARK   10  A    between atoms: C_21  and  N_26
REMARK   11  A    between atoms: C_23  and  C_24
REMARK   12  A    between atoms: C_23  and  C_25
REMARK                            x       y       z     vdW  Elec       q    Type
REMARK                         _______ _______ _______ _____ _____    ______ ____
ROOT
ATOM      1  C   UNL     1      -1.377  -8.085   5.502  0.00  0.00    +0.288 C 
ENDROOT
BRANCH   1   4
ATOM      2  C   UNL     1       0.423  -6.859   2.535  0.00  0.00    +0.087 A 
ATOM      3  N   UNL     1      -0.536  -7.230   3.346  0.00  0.00    -0.245 NA
ATOM      4  C   UNL     1      -0.276  -7.658   4.565  0.00  0.00    +0.086 A 
ATOM      5  C   UNL     1       1.028  -7.694   4.940  0.00  0.00    +0.073 A 
ATOM      6  S   UNL     1       1.814  -7.096   3.452  0.00  0.00    -0.080 S 
BRANCH   2   7
ATOM      7  C   UNL     1       0.309  -6.349   1.121  0.00  0.00    +0.159 C 
BRANCH   7   9
ATOM      8  N   UNL     1       0.059  -4.170  -0.021  0.00  0.00    -0.285 N 
ATOM      9  C   UNL     1       0.175  -4.848   1.138  0.00  0.00    +0.224 C 
ATOM     10  O   UNL     1       0.173  -4.251   2.193  0.00  0.00    -0.275 OA
ATOM     11  H   UNL     1      -0.017  -4.651  -0.860  0.00  0.00    +0.155 HD
BRANCH   8  16
ATOM     12  C   UNL     1       0.008   1.503   0.007  0.00  0.00    +0.044 C 
ATOM     13  C   UNL     1       0.022  -0.004  -0.001  0.00  0.00    -0.050 A 
ATOM     14  C   UNL     1       0.777  -0.692   0.931  0.00  0.00    +0.005 A 
ATOM     15  C   UNL     1       0.791  -2.073   0.927  0.00  0.00    +0.023 A 
ATOM     16  C   UNL     1       0.046  -2.771  -0.014  0.00  0.00    +0.033 A 
ATOM     17  C   UNL     1      -0.712  -2.077  -0.948  0.00  0.00    +0.023 A 
ATOM     18  C   UNL     1      -0.726  -0.696  -0.936  0.00  0.00    +0.005 A 
ENDBRANCH   8  16
ENDBRANCH   7   9
ENDBRANCH   2   7
ENDBRANCH   1   4
BRANCH   1  19
ATOM     19  O   UNL     1      -0.810  -8.498   6.747  0.00  0.00    -0.457 OA
BRANCH  19  20
ATOM     20  C   UNL     1      -1.662  -8.912   7.697  0.00  0.00    +0.329 C 
ATOM     21  O   UNL     1      -2.851  -8.923   7.480  0.00  0.00    -0.249 OA
BRANCH  20  22
ATOM     22  C   UNL     1      -1.137  -9.361   9.037  0.00  0.00    +0.196 C 
BRANCH  22  23
ATOM     23  N   UNL     1      -2.257  -9.761   9.891  0.00  0.00    -0.220 N 
ATOM     24  C   UNL     1      -3.267  -8.948  10.252  0.00  0.00    +0.255 C 
ATOM     25  O   UNL     1      -3.392  -7.785   9.926  0.00  0.00    -0.270 OA
ATOM     26  C   UNL     1      -4.199  -9.708  11.112  0.00  0.00    +0.049 A 
ATOM     27  C   UNL     1      -5.384  -9.402  11.761  0.00  0.00    +0.014 A 
ATOM     28  C   UNL     1      -6.028 -10.375  12.511  0.00  0.00    +0.001 A 
ATOM     29  C   UNL     1      -5.496 -11.646  12.614  0.00  0.00    +0.001 A 
ATOM     30  C   UNL     1      -4.311 -11.966  11.970  0.00  0.00    +0.014 A 
ATOM     31  C   UNL     1      -3.656 -11.005  11.217  0.00  0.00    +0.049 A 
ATOM     32  C   UNL     1      -2.415 -10.990  10.414  0.00  0.00    +0.255 C 
ATOM     33  O   UNL     1      -1.663 -11.930  10.255  0.00  0.00    -0.270 OA
ENDBRANCH  22  23
BRANCH  22  34
ATOM     34  C   UNL     1      -0.375  -8.211   9.698  0.00  0.00    +0.015 C 
ATOM     35  C   UNL     1       0.158  -8.668  11.058  0.00  0.00    +0.009 C 
ATOM     36  C   UNL     1       0.795  -7.794   8.805  0.00  0.00    +0.009 C 
ENDBRANCH  22  34
ENDBRANCH  20  22
ENDBRANCH  19  20
ENDBRANCH   1  19
TORSDOF 9
