REMARK  Name = ZINC07936817
REMARK  12 active torsions:
REMARK  status: ('A' for Active; 'I' for Inactive)
REMARK    1  A    between atoms: C_1  and  C_2
REMARK    2  A    between atoms: C_2  and  N_3
REMARK    3  A    between atoms: C_7  and  C_15
REMARK    4  A    between atoms: C_11  and  C_14
REMARK    5  A    between atoms: C_15  and  O_17
REMARK    6  A    between atoms: O_17  and  C_18
REMARK    7  A    between atoms: C_18  and  C_20
REMARK    8  A    between atoms: C_18  and  C_21
REMARK    9  A    between atoms: N_23  and  C_24
REMARK   10  A    between atoms: C_26  and  C_32
REMARK   11  A    between atoms: C_29  and  O_30
REMARK   12  A    between atoms: O_30  and  C_31
REMARK                            x       y       z     vdW  Elec       q    Type
REMARK                         _______ _______ _______ _____ _____    ______ ____
ROOT
ATOM      1  C   UNL     1       2.246   5.608  -0.025  0.00  0.00    +0.340 C 
ATOM      2  O   UNL     1       1.177   6.185  -0.017  0.00  0.00    -0.245 OA
ENDROOT
BRANCH   1   7
ATOM      3  N   UNL     1       2.458  -0.021  -0.078  0.00  0.00    -0.305 N 
ATOM      4  C   UNL     1       2.400   1.356  -0.065  0.00  0.00    +0.070 A 
ATOM      5  C   UNL     1       3.575   2.106  -0.061  0.00  0.00    +0.029 A 
ATOM      6  C   UNL     1       3.522   3.468  -0.048  0.00  0.00    +0.017 A 
ATOM      7  C   UNL     1       2.287   4.133  -0.038  0.00  0.00    +0.061 A 
ATOM      8  C   UNL     1       1.103   3.406  -0.042  0.00  0.00    +0.044 A 
ATOM      9  C   UNL     1       1.150   2.006  -0.055  0.00  0.00    +0.089 A 
ATOM     10  N   UNL     1       0.006   1.294  -0.059  0.00  0.00    -0.245 NA
ATOM     11  C   UNL     1       0.026  -0.008  -0.072  0.00  0.00    +0.103 A 
ATOM     12  C   UNL     1       1.306  -0.726  -0.082  0.00  0.00    +0.273 A 
ATOM     13  O   UNL     1       1.329  -1.943  -0.093  0.00  0.00    -0.266 OA
ATOM     14  C   UNL     1      -1.268  -0.779  -0.075  0.00  0.00    +0.071 C 
BRANCH   3  16
ATOM     15  C   UNL     1       4.197  -0.936  -1.534  0.00  0.00    +0.027 C 
ATOM     16  C   UNL     1       3.751  -0.710  -0.088  0.00  0.00    +0.122 C 
ENDBRANCH   3  16
ENDBRANCH   1   7
BRANCH   1  17
ATOM     17  O   UNL     1       3.393   6.314  -0.022  0.00  0.00    -0.449 OA
BRANCH  17  18
ATOM     18  C   UNL     1       3.276   7.761  -0.009  0.00  0.00    +0.259 C 
ATOM     19  C   UNL     1       3.231   8.283  -1.446  0.00  0.00    +0.062 C 
BRANCH  18  20
ATOM     20  C   UNL     1       4.464   8.355   0.704  0.00  0.00    +0.258 C 
ATOM     21  O   UNL     1       5.369   7.637   1.076  0.00  0.00    -0.271 OA
ATOM     22  N   UNL     1       4.522   9.683   0.928  0.00  0.00    -0.280 N 
ATOM     23  H   UNL     1       3.831  10.264   0.574  0.00  0.00    +0.155 HD
BRANCH  22  24
ATOM     24  C   UNL     1       5.580  10.223   1.671  0.00  0.00    +0.076 A 
ATOM     25  C   UNL     1       6.848   9.668   1.580  0.00  0.00    +0.030 A 
ATOM     26  C   UNL     1       7.890  10.203   2.314  0.00  0.00    -0.048 A 
ATOM     27  C   UNL     1       7.672  11.290   3.139  0.00  0.00    +0.007 A 
ATOM     28  C   UNL     1       6.410  11.848   3.236  0.00  0.00    +0.048 A 
ATOM     29  C   UNL     1       5.362  11.322   2.499  0.00  0.00    +0.141 A 
ATOM     30  C   UNL     1       9.267   9.599   2.213  0.00  0.00    +0.044 C 
BRANCH  29  31
ATOM     31  O   UNL     1       4.122  11.873   2.588  0.00  0.00    -0.493 OA
ATOM     32  C   UNL     1       3.973  12.998   3.456  0.00  0.00    +0.277 C 
ENDBRANCH  29  31
ENDBRANCH  22  24
ENDBRANCH  18  20
ENDBRANCH  17  18
ENDBRANCH   1  17
TORSDOF 7
