REMARK  Name = ZINC00956050
REMARK  7 active torsions:
REMARK  status: ('A' for Active; 'I' for Inactive)
REMARK    1  A    between atoms: C_1  and  C_2
REMARK    2  A    between atoms: N_5  and  C_8
REMARK    3  A    between atoms: C_8  and  C_9
REMARK    4  A    between atoms: C_10  and  O_32
REMARK    5  A    between atoms: C_16  and  C_28
REMARK    6  A    between atoms: C_17  and  O_20
REMARK    7  A    between atoms: O_20  and  C_21
REMARK                            x       y       z     vdW  Elec       q    Type
REMARK                         _______ _______ _______ _____ _____    ______ ____
ROOT
ATOM      1  C   UNL     1      -0.517  -4.578   2.339  0.00  0.00    +0.020 A 
ATOM      2  C   UNL     1       0.827  -4.888   2.217  0.00  0.00    +0.122 A 
ATOM      3  C   UNL     1       1.564  -5.298   3.326  0.00  0.00    +0.046 A 
ATOM      4  C   UNL     1       0.968  -5.402   4.551  0.00  0.00    +0.019 A 
ATOM      5  C   UNL     1      -0.385  -5.093   4.690  0.00  0.00    +0.068 A 
ATOM      6  C   UNL     1      -1.135  -4.672   3.577  0.00  0.00    +0.144 A 
ATOM      7  O   UNL     1      -2.441  -4.372   3.725  0.00  0.00    -0.447 OA
ATOM      8  C   UNL     1      -3.068  -4.453   4.906  0.00  0.00    +0.254 A 
ATOM      9  C   UNL     1      -2.444  -4.839   6.037  0.00  0.00    +0.222 A 
ATOM     10  C   UNL     1      -1.065  -5.191   5.993  0.00  0.00    +0.235 A 
ATOM     11  O   UNL     1      -0.468  -5.547   6.996  0.00  0.00    -0.283 OA
ENDROOT
BRANCH   8  12
ATOM     12  C   UNL     1      -4.530  -4.096   4.974  0.00  0.00    +0.454 C 
ATOM     13  F   UNL     1      -5.019  -4.374   6.255  0.00  0.00    -0.163 F 
ATOM     14  F   UNL     1      -4.692  -2.734   4.699  0.00  0.00    -0.163 F 
ATOM     15  F   UNL     1      -5.238  -4.850   4.031  0.00  0.00    -0.163 F 
ENDBRANCH   8  12
BRANCH   2  16
ATOM     16  O   UNL     1       1.433  -4.790   1.006  0.00  0.00    -0.506 OA
ATOM     17  H   UNL     1       1.818  -3.921   0.827  0.00  0.00    +0.292 HD
ENDBRANCH   2  16
BRANCH   1  18
ATOM     18  C   UNL     1      -1.304  -4.135   1.132  0.00  0.00    -0.036 C 
BRANCH  18  23
ATOM     19  C   UNL     1      -0.607   1.304  -0.434  0.00  0.00    +0.007 C 
ATOM     20  C   UNL     1      -0.641  -0.226  -0.428  0.00  0.00    -0.018 C 
ATOM     21  C   UNL     1      -2.074  -0.705  -0.180  0.00  0.00    -0.016 C 
ATOM     22  C   UNL     1      -2.088  -2.232  -0.097  0.00  0.00    -0.078 C 
ATOM     23  N   UNL     1      -1.226  -2.674   1.006  0.00  0.00    +0.383 N 
ATOM     24  C   UNL     1       0.163  -2.280   0.741  0.00  0.00    -0.078 C 
ATOM     25  C   UNL     1       0.264  -0.754   0.689  0.00  0.00    -0.016 C 
ATOM     26  H   UNL     1      -1.537  -2.247   1.866  0.00  0.00    -0.081 HD
ENDBRANCH  18  23
ENDBRANCH   1  18
BRANCH   9  27
ATOM     27  O   UNL     1      -3.131  -4.903   7.210  0.00  0.00    -0.447 OA
BRANCH  27  28
ATOM     28  C   UNL     1      -2.795  -4.029   8.195  0.00  0.00    +0.147 A 
ATOM     29  C   UNL     1      -1.860  -3.033   7.950  0.00  0.00    +0.048 A 
ATOM     30  C   UNL     1      -1.520  -2.144   8.953  0.00  0.00    +0.004 A 
ATOM     31  C   UNL     1      -2.110  -2.248  10.199  0.00  0.00    +0.002 A 
ATOM     32  C   UNL     1      -3.042  -3.239  10.446  0.00  0.00    +0.024 A 
ATOM     33  C   UNL     1      -3.390  -4.127   9.445  0.00  0.00    +0.083 A 
ATOM     34 CL   UNL     1      -4.565  -5.367   9.754  0.00  0.00    -0.080 Cl
ENDBRANCH  27  28
ENDBRANCH   9  27
TORSDOF 6
