REMARK  Name = ZINC35520840
REMARK  9 active torsions:
REMARK  status: ('A' for Active; 'I' for Inactive)
REMARK    1  A    between atoms: C_1  and  C_2
REMARK    2  A    between atoms: C_3  and  C_13
REMARK    3  A    between atoms: C_4  and  C_7
REMARK    4  A    between atoms: C_13  and  N_14
REMARK    5  A    between atoms: N_14  and  C_15
REMARK    6  A    between atoms: C_15  and  C_16
REMARK    7  A    between atoms: C_20  and  C_22
REMARK    8  A    between atoms: C_28  and  C_30
REMARK    9  A    between atoms: N_38  and  C_39
REMARK                            x       y       z     vdW  Elec       q    Type
REMARK                         _______ _______ _______ _____ _____    ______ ____
ROOT
ATOM      1  N   UNL     1      -3.463  -1.406  -0.391  0.00  0.00    -0.286 N 
ATOM      2  C   UNL     1      -2.168  -1.055  -0.515  0.00  0.00    +0.264 C 
ATOM      3  O   UNL     1      -1.334  -1.537   0.228  0.00  0.00    -0.268 OA
ENDROOT
BRANCH   2   4
ATOM      4  C   UNL     1      -1.764  -0.090  -1.548  0.00  0.00    +0.105 A 
ATOM      5  C   UNL     1      -1.083   1.065  -1.324  0.00  0.00    +0.041 A 
ATOM      6  C   UNL     1      -0.892   1.702  -2.574  0.00  0.00    +0.001 A 
ATOM      7  C   UNL     1      -0.271   2.897  -2.960  0.00  0.00    +0.010 A 
ATOM      8  C   UNL     1      -0.247   3.256  -4.276  0.00  0.00    +0.001 A 
ATOM      9  C   UNL     1      -0.835   2.446  -5.240  0.00  0.00    +0.002 A 
ATOM     10  C   UNL     1      -1.452   1.267  -4.886  0.00  0.00    +0.026 A 
ATOM     11  C   UNL     1      -1.488   0.879  -3.550  0.00  0.00    +0.049 A 
ATOM     12  N   UNL     1      -2.010  -0.215  -2.901  0.00  0.00    -0.339 N 
ATOM     13  C   UNL     1      -2.716  -1.328  -3.541  0.00  0.00    +0.149 C 
ENDBRANCH   2   4
BRANCH   1  14
ATOM     14  C   UNL     1      -3.870  -2.349   0.653  0.00  0.00    +0.149 C 
BRANCH  14  17
ATOM     15  C   UNL     1      -1.624  -4.503   0.729  0.00  0.00    +0.089 C 
ATOM     16  C   UNL     1      -2.985  -4.668   0.104  0.00  0.00    +0.139 A 
ATOM     17  C   UNL     1      -3.955  -3.737   0.072  0.00  0.00    +0.039 A 
ATOM     18  C   UNL     1      -5.070  -4.288  -0.604  0.00  0.00    +0.118 A 
ATOM     19  N   UNL     1      -4.759  -5.512  -0.958  0.00  0.00    -0.078 NA
ATOM     20  O   UNL     1      -3.436  -5.767  -0.520  0.00  0.00    -0.359 OA
BRANCH  18  21
ATOM     21  C   UNL     1      -6.361  -3.604  -0.866  0.00  0.00    +0.004 A 
ATOM     22  C   UNL     1      -6.966  -2.848   0.136  0.00  0.00    +0.010 A 
ATOM     23  C   UNL     1      -8.167  -2.214  -0.112  0.00  0.00    +0.001 A 
ATOM     24  C   UNL     1      -8.768  -2.327  -1.353  0.00  0.00    +0.000 A 
ATOM     25  C   UNL     1      -8.171  -3.076  -2.350  0.00  0.00    +0.001 A 
ATOM     26  C   UNL     1      -6.968  -3.710  -2.115  0.00  0.00    +0.010 A 
ENDBRANCH  18  21
ENDBRANCH  14  17
ENDBRANCH   1  14
BRANCH   1  27
ATOM     27  C   UNL     1      -4.465  -0.844  -1.300  0.00  0.00    +0.165 C 
BRANCH  27  28
ATOM     28  C   UNL     1      -5.057   0.400  -0.689  0.00  0.00    +0.077 A 
ATOM     29  C   UNL     1      -5.758   1.345  -1.347  0.00  0.00    +0.109 A 
ATOM     30  N   UNL     1      -6.111   2.296  -0.427  0.00  0.00    -0.344 N 
ATOM     31  H   UNL     1      -6.622   3.102  -0.597  0.00  0.00    +0.167 HD
ATOM     32  C   UNL     1      -5.607   1.893   0.775  0.00  0.00    +0.139 A 
ATOM     33  N   UNL     1      -4.982   0.750   0.600  0.00  0.00    -0.231 NA
BRANCH  32  34
ATOM     34  C   UNL     1      -5.746   2.616   2.058  0.00  0.00    +0.017 A 
ATOM     35  C   UNL     1      -6.447   3.821   2.111  0.00  0.00    +0.011 A 
ATOM     36  C   UNL     1      -6.573   4.491   3.311  0.00  0.00    +0.001 A 
ATOM     37  C   UNL     1      -6.006   3.970   4.460  0.00  0.00    +0.000 A 
ATOM     38  C   UNL     1      -5.309   2.775   4.415  0.00  0.00    +0.001 A 
ATOM     39  C   UNL     1      -5.181   2.093   3.222  0.00  0.00    +0.011 A 
ENDBRANCH  32  34
ENDBRANCH  27  28
ENDBRANCH   1  27
TORSDOF 7
