REMARK  Name = ZINC45943598
REMARK  14 active torsions:
REMARK  status: ('A' for Active; 'I' for Inactive)
REMARK    1  A    between atoms: C_1  and  C_2
REMARK    2  A    between atoms: C_2  and  C_3
REMARK    3  A    between atoms: C_3  and  C_5
REMARK    4  A    between atoms: C_3  and  N_6
REMARK    5  A    between atoms: C_7  and  C_9
REMARK    6  A    between atoms: N_18  and  C_21
REMARK    7  A    between atoms: C_21  and  C_22
REMARK    8  A    between atoms: C_22  and  C_24
REMARK    9  A    between atoms: C_27  and  C_30
REMARK   10  A    between atoms: N_31  and  C_34
REMARK   11  A    between atoms: C_34  and  C_35
REMARK   12  A    between atoms: C_35  and  C_36
REMARK   13  A    between atoms: C_36  and  C_37
REMARK   14  A    between atoms: C_36  and  C_38
REMARK                            x       y       z     vdW  Elec       q    Type
REMARK                         _______ _______ _______ _____ _____    ______ ____
ROOT
ATOM      1  C   UNL     1      -4.079   0.322   2.607  0.00  0.00    +0.039 A 
ATOM      2  C   UNL     1      -3.303   0.570   3.743  0.00  0.00    +0.014 A 
ATOM      3  C   UNL     1      -3.905   0.920   4.931  0.00  0.00    +0.016 A 
ATOM      4  C   UNL     1      -5.293   1.027   5.000  0.00  0.00    +0.064 A 
ATOM      5  C   UNL     1      -6.076   0.780   3.863  0.00  0.00    +0.067 A 
ATOM      6  C   UNL     1      -5.466   0.434   2.668  0.00  0.00    +0.040 A 
ATOM      7  N   UNL     1      -7.464   0.892   3.950  0.00  0.00    -0.229 N 
ATOM      8  C   UNL     1      -8.063   1.242   5.140  0.00  0.00    +0.240 A 
ATOM      9  N   UNL     1      -9.355   1.276   4.955  0.00  0.00    -0.129 NA
ATOM     10  N   UNL     1      -9.615   0.944   3.620  0.00  0.00    -0.203 N 
ATOM     11  C   UNL     1      -8.429   0.711   3.024  0.00  0.00    +0.353 A 
ATOM     12  O   UNL     1      -8.258   0.396   1.859  0.00  0.00    -0.244 OA
ATOM     13  N   UNL     1      -7.311   1.492   6.279  0.00  0.00    -0.277 N 
ATOM     14  C   UNL     1      -5.967   1.400   6.260  0.00  0.00    +0.263 A 
ATOM     15  O   UNL     1      -5.319   1.621   7.265  0.00  0.00    -0.267 OA
ENDROOT
BRANCH   1  17
ATOM     16  N   UNL     1      -2.082  -0.162   1.273  0.00  0.00    -0.309 N 
ATOM     17  C   UNL     1      -3.424  -0.053   1.334  0.00  0.00    +0.244 C 
ATOM     18  O   UNL     1      -4.096  -0.264   0.344  0.00  0.00    -0.270 OA
ATOM     19  H   UNL     1      -1.545   0.006   2.063  0.00  0.00    +0.149 HD
BRANCH  16  20
ATOM     20  C   UNL     1      -1.433  -0.534   0.013  0.00  0.00    +0.070 C 
ATOM     21  C   UNL     1      -1.416  -2.058  -0.121  0.00  0.00    +0.028 C 
BRANCH  20  23
ATOM     22  C   UNL     1      -0.019   1.526   0.010  0.00  0.00    +0.005 C 
ATOM     23  C   UNL     1       0.002  -0.004   0.002  0.00  0.00    +0.018 C 
ENDBRANCH  20  23
ENDBRANCH  16  20
ENDBRANCH   1  17
BRANCH  10  24
ATOM     24  C   UNL     1     -10.934   0.863   2.988  0.00  0.00    +0.228 C 
BRANCH  24  25
ATOM     25  C   UNL     1     -11.475  -0.537   3.130  0.00  0.00    +0.184 C 
ATOM     26  O   UNL     1     -10.822  -1.383   3.704  0.00  0.00    -0.290 OA
BRANCH  25  27
ATOM     27  C   UNL     1     -12.794  -0.876   2.574  0.00  0.00    +0.019 A 
ATOM     28  C   UNL     1     -13.547   0.096   1.907  0.00  0.00    +0.012 A 
ATOM     29  C   UNL     1     -14.782  -0.231   1.387  0.00  0.00    +0.004 A 
ATOM     30  C   UNL     1     -15.277  -1.516   1.525  0.00  0.00    -0.050 A 
ATOM     31  C   UNL     1     -14.538  -2.483   2.184  0.00  0.00    +0.004 A 
ATOM     32  C   UNL     1     -13.299  -2.174   2.704  0.00  0.00    +0.012 A 
ATOM     33  C   UNL     1     -16.628  -1.863   0.955  0.00  0.00    +0.044 C 
ENDBRANCH  25  27
ENDBRANCH  24  25
ENDBRANCH  10  24
BRANCH  13  34
ATOM     34  C   UNL     1      -7.990   1.861   7.524  0.00  0.00    +0.128 C 
BRANCH  34  35
ATOM     35  C   UNL     1      -8.316   0.597   8.322  0.00  0.00    +0.025 C 
BRANCH  35  36
ATOM     36  C   UNL     1      -9.025   0.983   9.622  0.00  0.00    -0.016 C 
ATOM     37  C   UNL     1      -9.461  -0.284  10.360  0.00  0.00    +0.007 C 
ATOM     38  C   UNL     1      -8.068   1.785  10.506  0.00  0.00    +0.007 C 
ENDBRANCH  35  36
ENDBRANCH  34  35
ENDBRANCH  13  34
TORSDOF 9
