REMARK  Name = ZINC39711652
REMARK  8 active torsions:
REMARK  status: ('A' for Active; 'I' for Inactive)
REMARK    1  A    between atoms: C_4  and  C_7
REMARK    2  A    between atoms: C_7  and  N_8
REMARK    3  A    between atoms: N_8  and  C_9
REMARK    4  A    between atoms: N_8  and  C_15
REMARK    5  A    between atoms: C_9  and  C_10
REMARK    6  A    between atoms: C_15  and  C_17
REMARK    7  A    between atoms: C_15  and  C_32
REMARK    8  A    between atoms: N_37  and  C_38
REMARK                            x       y       z     vdW  Elec       q    Type
REMARK                         _______ _______ _______ _____ _____    ______ ____
ROOT
ATOM      1  C   UNL     1       5.484  -1.687   1.154  0.00  0.00    -0.009 C 
ENDROOT
BRANCH   1   2
ATOM      2  C   UNL     1       6.190  -1.878   2.498  0.00  0.00    +0.088 C 
ATOM      3  C   UNL     1       7.642  -2.209   2.218  0.00  0.00    -0.006 C 
ATOM      4  C   UNL     1       8.122  -3.383   2.710  0.00  0.00    -0.003 A 
ATOM      5  C   UNL     1       9.513  -3.776   2.483  0.00  0.00    +0.059 A 
ATOM      6  C   UNL     1       9.961  -4.956   2.987  0.00  0.00    +0.167 A 
ATOM      7  C   UNL     1       9.110  -5.805   3.726  0.00  0.00    +0.168 A 
ATOM      8  C   UNL     1       7.792  -5.479   3.968  0.00  0.00    +0.073 A 
ATOM      9  C   UNL     1       7.247  -4.283   3.485  0.00  0.00    +0.044 A 
ATOM     10  N   UNL     1       5.968  -3.987   3.730  0.00  0.00    -0.284 N 
ATOM     11  C   UNL     1       5.391  -2.878   3.303  0.00  0.00    +0.223 C 
ATOM     12  O   UNL     1       4.221  -2.663   3.558  0.00  0.00    -0.275 OA
ATOM     13  O   UNL     1       9.826  -6.904   4.101  0.00  0.00    -0.453 OA
ATOM     14  C   UNL     1      10.981  -6.925   3.244  0.00  0.00    +0.466 C 
ATOM     15  O   UNL     1      11.195  -5.541   2.913  0.00  0.00    -0.453 OA
ATOM     16  H   UNL     1       5.439  -4.615   4.245  0.00  0.00    +0.155 HD
ENDBRANCH   1   2
BRANCH   1  17
ATOM     17  C   UNL     1       5.441  -3.021   0.407  0.00  0.00    +0.205 C 
ATOM     18  N   UNL     1       4.775  -4.045   1.223  0.00  0.00    -0.152 NA
ATOM     19  N   UNL     1       5.573  -4.958   1.446  0.00  0.00    -0.070 NA
ATOM     20  N   UNL     1       6.823  -4.739   0.869  0.00  0.00    -0.179 N 
ATOM     21  N   UNL     1       6.809  -3.540   0.200  0.00  0.00    -0.185 NA
ATOM     22  H   UNL     1       7.583  -5.339   0.930  0.00  0.00    +0.191 HD
BRANCH  21  23
ATOM     23  C   UNL     1       7.090  -3.729  -1.230  0.00  0.00    +0.080 C 
ATOM     24  C   UNL     1       6.135  -4.788  -1.820  0.00  0.00    +0.021 C 
ATOM     25  C   UNL     1       7.011  -5.564  -2.836  0.00  0.00    +0.002 C 
ATOM     26  C   UNL     1       8.382  -5.638  -2.119  0.00  0.00    +0.002 C 
ATOM     27  C   UNL     1       8.518  -4.270  -1.420  0.00  0.00    +0.021 C 
ENDBRANCH  21  23
ENDBRANCH   1  17
BRANCH   1  28
ATOM     28  N   UNL     1       4.113  -1.210   1.384  0.00  0.00    +0.392 N 
ATOM     29  H   UNL     1       3.586  -1.922   1.867  0.00  0.00    -0.080 HD
BRANCH  28  30
ATOM     30  C   UNL     1       3.474  -0.917   0.095  0.00  0.00    -0.042 C 
BRANCH  30  34
ATOM     31  C   UNL     1       5.803   1.966  -2.029  0.00  0.00    +0.000 A 
ATOM     32  C   UNL     1       6.075   0.619  -2.170  0.00  0.00    +0.000 A 
ATOM     33  C   UNL     1       5.322  -0.314  -1.483  0.00  0.00    +0.002 A 
ATOM     34  C   UNL     1       4.296   0.101  -0.654  0.00  0.00    -0.064 A 
ATOM     35  C   UNL     1       4.025   1.448  -0.511  0.00  0.00    +0.002 A 
ATOM     36  C   UNL     1       4.778   2.381  -1.200  0.00  0.00    +0.000 A 
ENDBRANCH  30  34
ENDBRANCH  28  30
BRANCH  28  37
ATOM     37  C   UNL     1       4.150   0.010   2.201  0.00  0.00    -0.002 C 
BRANCH  37  38
ATOM     38  C   UNL     1       2.744   0.425   2.549  0.00  0.00    +0.089 A 
ATOM     39  C   UNL     1       2.085   0.105   3.677  0.00  0.00    +0.042 A 
ATOM     40  C   UNL     1       0.805   0.698   3.587  0.00  0.00    +0.041 A 
ATOM     41  C   UNL     1       0.758   1.346   2.408  0.00  0.00    +0.195 A 
ATOM     42  O   UNL     1       1.937   1.181   1.786  0.00  0.00    -0.470 OA
ENDBRANCH  37  38
ENDBRANCH  28  37
ENDBRANCH   1  28
TORSDOF 8
