REMARK  Name = ZINC49928823
REMARK  10 active torsions:
REMARK  status: ('A' for Active; 'I' for Inactive)
REMARK    1  A    between atoms: C_1  and  C_2
REMARK    2  A    between atoms: C_2  and  O_3
REMARK    3  A    between atoms: O_3  and  C_4
REMARK    4  A    between atoms: C_6  and  C_23
REMARK    5  A    between atoms: C_7  and  C_11
REMARK    6  A    between atoms: C_9  and  C_10
REMARK    7  A    between atoms: C_12  and  C_22
REMARK    8  A    between atoms: C_14  and  C_19
REMARK    9  A    between atoms: C_15  and  N_17
REMARK   10  A    between atoms: N_17  and  C_18
REMARK                            x       y       z     vdW  Elec       q    Type
REMARK                         _______ _______ _______ _____ _____    ______ ____
ROOT
ATOM      1  C   UNL     1       1.260  -6.020  -1.825  0.00  0.00    +0.051 A 
ATOM      2  C   UNL     1       0.039  -6.625  -2.129  0.00  0.00    -0.026 A 
ATOM      3  C   UNL     1      -0.019  -7.981  -2.300  0.00  0.00    +0.024 A 
ATOM      4  C   UNL     1       1.163  -8.726  -2.164  0.00  0.00    +0.101 A 
ATOM      5  C   UNL     1       2.361  -8.054  -1.857  0.00  0.00    +0.111 A 
ATOM      6  N   UNL     1       2.369  -6.739  -1.706  0.00  0.00    -0.342 N 
ATOM      7  C   UNL     1      -1.208  -5.789  -2.266  0.00  0.00    +0.046 C 
ATOM      8  H   UNL     1       3.205  -6.292  -1.498  0.00  0.00    +0.167 HD
ENDROOT
BRANCH   1  12
ATOM      9  C   UNL     1       1.434  -1.806  -1.292  0.00  0.00    +0.124 A 
ATOM     10  C   UNL     1       0.770  -2.595  -0.362  0.00  0.00    +0.050 A 
ATOM     11  C   UNL     1       0.712  -3.961  -0.532  0.00  0.00    -0.038 A 
ATOM     12  C   UNL     1       1.321  -4.552  -1.640  0.00  0.00    +0.002 A 
ATOM     13  C   UNL     1       1.986  -3.756  -2.573  0.00  0.00    +0.017 A 
ATOM     14  C   UNL     1       2.037  -2.390  -2.399  0.00  0.00    -0.008 A 
ATOM     15  C   UNL     1       2.751  -1.529  -3.409  0.00  0.00    +0.047 C 
ATOM     16  C   UNL     1      -0.008  -4.817   0.478  0.00  0.00    +0.044 C 
BRANCH   9  17
ATOM     17  O   UNL     1       1.490  -0.460  -1.122  0.00  0.00    -0.492 OA
BRANCH  17  19
ATOM     18  C   UNL     1       1.016   1.595   0.058  0.00  0.00    +0.048 C 
ATOM     19  C   UNL     1       0.849   0.075   0.038  0.00  0.00    +0.225 C 
ENDBRANCH  17  19
ENDBRANCH   9  17
ENDBRANCH   1  12
BRANCH   5  20
ATOM     20  N   UNL     1       3.535  -8.769  -1.719  0.00  0.00    -0.333 N 
ATOM     21  C   UNL     1       4.758  -8.092  -1.280  0.00  0.00    +0.127 C 
ATOM     22  H   UNL     1       3.550  -9.719  -1.913  0.00  0.00    +0.147 HD
ENDBRANCH   5  20
BRANCH   4  23
ATOM     23  C   UNL     1       1.150 -10.184  -2.339  0.00  0.00    +0.390 C 
ATOM     24  O   UNL     1       0.088 -10.772  -2.494  0.00  0.00    -0.240 OA
ATOM     25  O   UNL     1       2.201 -10.811  -2.329  0.00  0.00    -0.240 OA
ENDBRANCH   4  23
TORSDOF 5
