REMARK  Name = ZINC26710760
REMARK  4 active torsions:
REMARK  status: ('A' for Active; 'I' for Inactive)
REMARK    1  A    between atoms: C_1  and  C_2
REMARK    2  A    between atoms: C_6  and  N_9
REMARK    3  A    between atoms: C_7  and  C_8
REMARK    4  A    between atoms: C_15  and  C_21
REMARK                            x       y       z     vdW  Elec       q    Type
REMARK                         _______ _______ _______ _____ _____    ______ ____
ROOT
ATOM      1  N   UNL     1       4.802   1.373   0.290  0.00  0.00    -0.255 N 
ATOM      2  C   UNL     1       3.685   2.104   0.072  0.00  0.00    +0.267 A 
ATOM      3  O   UNL     1       3.743   3.308  -0.102  0.00  0.00    -0.267 OA
ATOM      4  C   UNL     1       2.397   1.393   0.052  0.00  0.00    +0.065 A 
ATOM      5  C   UNL     1       1.194   2.063  -0.166  0.00  0.00    +0.016 A 
ATOM      6  C   UNL     1       0.020   1.366  -0.178  0.00  0.00    +0.014 A 
ATOM      7  C   UNL     1       0.011  -0.019   0.027  0.00  0.00    +0.039 A 
ATOM      8  C   UNL     1       1.197  -0.707   0.246  0.00  0.00    +0.041 A 
ATOM      9  C   UNL     1       2.406  -0.005   0.261  0.00  0.00    +0.080 A 
ATOM     10  N   UNL     1       3.586  -0.634   0.470  0.00  0.00    -0.222 NA
ATOM     11  C   UNL     1       4.720   0.021   0.484  0.00  0.00    +0.188 A 
ATOM     12  S   UNL     1       6.208  -0.879   0.764  0.00  0.00    -0.011 S 
ENDROOT
BRANCH   7  13
ATOM     13  C   UNL     1      -1.273  -0.756   0.010  0.00  0.00    +0.247 C 
ATOM     14  O   UNL     1      -2.236  -0.313   0.604  0.00  0.00    -0.270 OA
ATOM     15  N   UNL     1      -1.374  -1.919  -0.665  0.00  0.00    -0.293 N 
ATOM     16  C   UNL     1      -2.659  -2.627  -0.762  0.00  0.00    +0.114 C 
ATOM     17  C   UNL     1      -3.104  -2.659  -2.228  0.00  0.00    +0.072 C 
ATOM     18  C   UNL     1      -1.929  -3.050  -3.092  0.00  0.00    +0.023 A 
ATOM     19  C   UNL     1      -0.640  -2.983  -2.692  0.00  0.00    -0.002 A 
ATOM     20  C   UNL     1       0.176  -3.435  -3.799  0.00  0.00    +0.005 A 
ATOM     21  C   UNL     1       1.558  -3.576  -3.963  0.00  0.00    +0.010 A 
ATOM     22  C   UNL     1       1.993  -4.045  -5.178  0.00  0.00    +0.001 A 
ATOM     23  C   UNL     1       1.115  -4.366  -6.200  0.00  0.00    +0.002 A 
ATOM     24  C   UNL     1      -0.256  -4.237  -6.065  0.00  0.00    +0.026 A 
ATOM     25  C   UNL     1      -0.727  -3.763  -4.842  0.00  0.00    +0.047 A 
ATOM     26  N   UNL     1      -1.988  -3.520  -4.379  0.00  0.00    -0.358 N 
ATOM     27  H   UNL     1      -2.962  -3.646  -4.874  0.00  0.00    +0.166 HD
ATOM     28  C   UNL     1      -0.201  -2.512  -1.332  0.00  0.00    +0.145 C 
ENDBRANCH   7  13
BRANCH   1  34
ATOM     29  C   UNL     1       8.338   3.650   2.839  0.00  0.00    +0.044 C 
ATOM     30  C   UNL     1       7.789   3.118   1.540  0.00  0.00    -0.046 A 
ATOM     31  C   UNL     1       8.520   3.253   0.374  0.00  0.00    +0.004 A 
ATOM     32  C   UNL     1       8.021   2.765  -0.819  0.00  0.00    +0.002 A 
ATOM     33  C   UNL     1       6.788   2.142  -0.850  0.00  0.00    +0.026 A 
ATOM     34  C   UNL     1       6.052   2.004   0.319  0.00  0.00    +0.055 A 
ATOM     35  C   UNL     1       6.554   2.500   1.515  0.00  0.00    -0.024 A 
ATOM     36  C   UNL     1       5.755   2.358   2.785  0.00  0.00    +0.046 C 
ENDBRANCH   1  34
TORSDOF 2
