REMARK  Name = ZINC16851945
REMARK  8 active torsions:
REMARK  status: ('A' for Active; 'I' for Inactive)
REMARK    1  A    between atoms: C_1  and  C_2
REMARK    2  A    between atoms: C_2  and  O_3
REMARK    3  A    between atoms: O_3  and  C_4
REMARK    4  A    between atoms: C_6  and  C_11
REMARK    5  A    between atoms: C_9  and  O_10
REMARK    6  A    between atoms: N_17  and  C_18
REMARK    7  A    between atoms: C_21  and  C_25
REMARK    8  A    between atoms: C_23  and  C_24
REMARK                            x       y       z     vdW  Elec       q    Type
REMARK                         _______ _______ _______ _____ _____    ______ ____
ROOT
ATOM      1  C   UNL     1      -1.177  -4.988  -0.263  0.00  0.00    +0.028 C 
ATOM      2  C   UNL     1      -0.903  -6.317  -0.293  0.00  0.00    +0.078 C 
ATOM      3  C   UNL     1      -1.292  -7.375   0.659  0.00  0.00    +0.256 C 
ATOM      4  O   UNL     1      -1.956  -7.127   1.649  0.00  0.00    -0.269 OA
ATOM      5  N   UNL     1      -0.887  -8.604   0.388  0.00  0.00    -0.260 N 
ATOM      6  C   UNL     1      -0.137  -8.864  -0.738  0.00  0.00    +0.166 C 
ATOM      7  N   UNL     1       0.342 -10.016  -1.153  0.00  0.00    -0.225 NA
ATOM      8  S   UNL     1       0.020  -7.258  -1.500  0.00  0.00    -0.049 S 
ATOM      9  H   UNL     1      -1.121  -9.330   0.988  0.00  0.00    +0.157 HD
ENDROOT
BRANCH   7  10
ATOM     10  C   UNL     1       1.146 -10.064  -2.259  0.00  0.00    +0.069 A 
ATOM     11  C   UNL     1       2.226  -9.186  -2.380  0.00  0.00    +0.028 A 
ATOM     12  C   UNL     1       3.033  -9.241  -3.497  0.00  0.00    +0.005 A 
ATOM     13  C   UNL     1       2.774 -10.162  -4.497  0.00  0.00    -0.050 A 
ATOM     14  C   UNL     1       1.706 -11.034  -4.384  0.00  0.00    +0.008 A 
ATOM     15  C   UNL     1       0.894 -10.995  -3.270  0.00  0.00    -0.025 A 
ATOM     16  C   UNL     1      -0.265 -11.949  -3.146  0.00  0.00    +0.046 C 
ATOM     17  C   UNL     1       3.660 -10.215  -5.715  0.00  0.00    +0.044 C 
ENDBRANCH   7  10
BRANCH   1  20
ATOM     18  C   UNL     1      -0.446  -1.959  -2.350  0.00  0.00    +0.162 A 
ATOM     19  C   UNL     1      -0.771  -2.750  -1.265  0.00  0.00    +0.057 A 
ATOM     20  C   UNL     1      -0.831  -4.141  -1.412  0.00  0.00    -0.020 A 
ATOM     21  C   UNL     1      -0.560  -4.722  -2.656  0.00  0.00    +0.012 A 
ATOM     22  C   UNL     1      -0.236  -3.925  -3.732  0.00  0.00    +0.050 A 
ATOM     23  C   UNL     1      -0.182  -2.545  -3.587  0.00  0.00    +0.158 A 
BRANCH  23  24
ATOM     24  O   UNL     1       0.133  -1.764  -4.653  0.00  0.00    -0.503 OA
ATOM     25  H   UNL     1       1.080  -1.596  -4.752  0.00  0.00    +0.292 HD
ENDBRANCH  23  24
BRANCH  18  26
ATOM     26  O   UNL     1      -0.387  -0.607  -2.212  0.00  0.00    -0.489 OA
BRANCH  26  28
ATOM     27  C   UNL     1      -0.554   1.451  -0.955  0.00  0.00    +0.048 C 
ATOM     28  C   UNL     1      -0.668  -0.074  -0.916  0.00  0.00    +0.226 C 
ENDBRANCH  26  28
ENDBRANCH  18  26
ENDBRANCH   1  20
TORSDOF 5
