REMARK  Name = ZINC30032073
REMARK  4 active torsions:
REMARK  status: ('A' for Active; 'I' for Inactive)
REMARK    1  A    between atoms: C_1  and  N_2
REMARK    2  A    between atoms: N_2  and  C_3
REMARK    3  A    between atoms: C_3  and  C_4
REMARK    4  A    between atoms: C_15  and  C_17
REMARK                            x       y       z     vdW  Elec       q    Type
REMARK                         _______ _______ _______ _____ _____    ______ ____
ROOT
ATOM      1  C   UNL     1      -0.053   1.461   0.012  0.00  0.00    +0.133 C 
ATOM      2  N   UNL     1      -0.008  -0.004   0.003  0.00  0.00    -0.292 N 
ATOM      3  C   UNL     1      -0.102  -0.673  -1.163  0.00  0.00    +0.267 C 
ATOM      4  O   UNL     1      -0.168  -1.887  -1.164  0.00  0.00    -0.268 OA
ENDROOT
BRANCH   3   5
ATOM      5  C   UNL     1      -0.124   0.070  -2.444  0.00  0.00    +0.145 A 
ATOM      6  C   UNL     1      -0.342  -0.616  -3.638  0.00  0.00    +0.072 A 
ATOM      7  C   UNL     1      -0.361   0.094  -4.830  0.00  0.00    +0.025 A 
ATOM      8  C   UNL     1      -0.161   1.464  -4.786  0.00  0.00    +0.041 A 
ATOM      9  C   UNL     1       0.050   2.082  -3.562  0.00  0.00    +0.130 A 
ATOM     10  N   UNL     1       0.058   1.385  -2.446  0.00  0.00    -0.229 NA
ATOM     11 CL   UNL     1       0.301   3.799  -3.502  0.00  0.00    -0.062 Cl
ATOM     12 CL   UNL     1      -0.586  -2.335  -3.633  0.00  0.00    -0.081 Cl
ENDBRANCH   3   5
BRANCH   2  13
ATOM     13  C   UNL     1       0.138  -0.740   1.260  0.00  0.00    +0.182 C 
BRANCH  13  14
ATOM     14  C   UNL     1      -1.225  -1.036   1.831  0.00  0.00    +0.128 A 
ATOM     15  N   UNL     1      -1.300  -1.713   3.007  0.00  0.00    -0.309 N 
ATOM     16  H   UNL     1      -0.491  -1.995   3.462  0.00  0.00    +0.170 HD
ATOM     17  C   UNL     1      -2.516  -1.990   3.537  0.00  0.00    +0.266 A 
ATOM     18  O   UNL     1      -2.617  -2.595   4.591  0.00  0.00    -0.267 OA
ATOM     19  C   UNL     1      -3.648  -1.563   2.843  0.00  0.00    +0.102 A 
ATOM     20  C   UNL     1      -3.543  -0.865   1.628  0.00  0.00    +0.085 A 
ATOM     21  N   UNL     1      -2.266  -0.630   1.179  0.00  0.00    -0.232 NA
ATOM     22  C   UNL     1      -4.758  -0.495   1.037  0.00  0.00    +0.036 A 
ATOM     23  C   UNL     1      -5.928  -0.811   1.634  0.00  0.00    +0.048 A 
ATOM     24  S   UNL     1      -5.399  -1.673   3.105  0.00  0.00    -0.090 S 
ENDBRANCH  13  14
ENDBRANCH   2  13
TORSDOF 3
