REMARK  Name = ZINC35506986
REMARK  4 active torsions:
REMARK  status: ('A' for Active; 'I' for Inactive)
REMARK    1  A    between atoms: C_1  and  C_2
REMARK    2  A    between atoms: C_9  and  C_15
REMARK    3  A    between atoms: N_17  and  C_18
REMARK    4  A    between atoms: C_22  and  C_24
REMARK                            x       y       z     vdW  Elec       q    Type
REMARK                         _______ _______ _______ _____ _____    ______ ____
ROOT
ATOM      1  C   UNL     1       0.024   1.010  -0.941  0.00  0.00    +0.044 C 
ATOM      2  C   UNL     1       0.041  -0.482  -0.728  0.00  0.00    -0.049 A 
ATOM      3  C   UNL     1       0.055  -1.333  -1.819  0.00  0.00    +0.005 A 
ATOM      4  C   UNL     1       0.062  -2.702  -1.623  0.00  0.00    +0.030 A 
ATOM      5  C   UNL     1       0.062  -3.217  -0.344  0.00  0.00    +0.126 A 
ATOM      6  C   UNL     1       0.062  -2.372   0.758  0.00  0.00    +0.056 A 
ATOM      7  C   UNL     1       0.049  -0.993   0.553  0.00  0.00    +0.028 A 
ATOM      8  N   UNL     1       0.103  -2.856   2.063  0.00  0.00    -0.319 N 
ATOM      9  C   UNL     1      -0.315  -4.207   2.431  0.00  0.00    +0.247 C 
ATOM     10  N   UNL     1       0.349  -5.170   1.530  0.00  0.00    -0.161 NA
ATOM     11  S   UNL     1       0.052  -4.967  -0.099  0.00  0.00    +0.062 S 
ATOM     12  O   UNL     1      -1.276  -5.413  -0.338  0.00  0.00    -0.153 OA
ATOM     13  O   UNL     1       1.176  -5.490  -0.794  0.00  0.00    -0.153 OA
ATOM     14  H   UNL     1       0.425  -2.267   2.762  0.00  0.00    +0.148 HD
ATOM     15  H   UNL     1       0.922  -5.877   1.865  0.00  0.00    +0.151 HD
ENDROOT
BRANCH   9  16
ATOM     16  C   UNL     1      -1.810  -4.329   2.294  0.00  0.00    +0.254 C 
ATOM     17  O   UNL     1      -2.433  -3.491   1.676  0.00  0.00    -0.272 OA
ATOM     18  N   UNL     1      -2.456  -5.369   2.858  0.00  0.00    -0.283 N 
ATOM     19  H   UNL     1      -1.952  -6.078   3.286  0.00  0.00    +0.155 HD
BRANCH  18  20
ATOM     20  C   UNL     1      -3.854  -5.425   2.826  0.00  0.00    +0.034 A 
ATOM     21  C   UNL     1      -4.499  -6.652   2.742  0.00  0.00    +0.024 A 
ATOM     22  C   UNL     1      -5.879  -6.704   2.711  0.00  0.00    +0.017 A 
ATOM     23  C   UNL     1      -6.619  -5.536   2.763  0.00  0.00    +0.021 A 
ATOM     24  C   UNL     1      -5.978  -4.312   2.846  0.00  0.00    -0.035 A 
ATOM     25  C   UNL     1      -4.599  -4.254   2.884  0.00  0.00    +0.027 A 
ATOM     26  C   UNL     1      -6.787  -3.042   2.902  0.00  0.00    +0.045 C 
ATOM     27 BR   UNL     1      -8.507  -5.612   2.719  0.00  0.00    -0.050 Br
ENDBRANCH  18  20
ENDBRANCH   9  16
TORSDOF 2
