REMARK  Name = ZINC16042159
REMARK  5 active torsions:
REMARK  status: ('A' for Active; 'I' for Inactive)
REMARK    1  A    between atoms: C_4  and  C_7
REMARK    2  A    between atoms: N_26  and  C_29
REMARK    3  A    between atoms: C_29  and  C_30
REMARK    4  A    between atoms: C_30  and  C_32
REMARK    5  A    between atoms: C_30  and  O_38
REMARK                            x       y       z     vdW  Elec       q    Type
REMARK                         _______ _______ _______ _____ _____    ______ ____
ROOT
ATOM      1  C   UNL     1       2.490   1.048  -0.016  0.00  0.00    +0.154 C 
ATOM      2  C   UNL     1       2.997   0.934  -1.436  0.00  0.00    +0.046 A 
ATOM      3  C   UNL     1       4.045   1.640  -1.912  0.00  0.00    -0.015 A 
ATOM      4  C   UNL     1       4.217   1.259  -3.300  0.00  0.00    +0.003 A 
ATOM      5  C   UNL     1       5.125   1.656  -4.286  0.00  0.00    +0.010 A 
ATOM      6  C   UNL     1       4.994   1.072  -5.521  0.00  0.00    +0.001 A 
ATOM      7  C   UNL     1       4.012   0.133  -5.791  0.00  0.00    +0.002 A 
ATOM      8  C   UNL     1       3.101  -0.278  -4.834  0.00  0.00    +0.026 A 
ATOM      9  C   UNL     1       3.209   0.298  -3.570  0.00  0.00    +0.047 A 
ATOM     10  N   UNL     1       2.492   0.127  -2.421  0.00  0.00    -0.356 N 
ATOM     11  H   UNL     1       1.739  -0.475  -2.318  0.00  0.00    +0.166 HD
ATOM     12  C   UNL     1       4.854   2.624  -1.106  0.00  0.00    +0.069 C 
ATOM     13  C   UNL     1       4.058   3.012   0.147  0.00  0.00    +0.167 C 
ATOM     14  N   UNL     1       3.499   1.804   0.756  0.00  0.00    -0.276 N 
ATOM     15  C   UNL     1       3.859   1.362   1.961  0.00  0.00    +0.234 C 
ATOM     16  O   UNL     1       3.386   0.312   2.342  0.00  0.00    -0.274 OA
ATOM     17  C   UNL     1       4.806   2.071   2.873  0.00  0.00    +0.203 C 
ATOM     18  N   UNL     1       5.272   3.326   2.308  0.00  0.00    -0.288 N 
ATOM     19  C   UNL     1       4.942   3.759   1.093  0.00  0.00    +0.237 C 
ATOM     20  O   UNL     1       5.389   4.826   0.730  0.00  0.00    -0.274 OA
ENDROOT
BRANCH   1  24
ATOM     21  C   UNL     1      -1.238   3.133   0.031  0.00  0.00    +0.000 A 
ATOM     22  C   UNL     1      -0.105   3.730   0.551  0.00  0.00    +0.000 A 
ATOM     23  C   UNL     1       1.103   3.058   0.530  0.00  0.00    +0.006 A 
ATOM     24  C   UNL     1       1.175   1.783   0.000  0.00  0.00    -0.021 A 
ATOM     25  C   UNL     1       0.041   1.183  -0.514  0.00  0.00    +0.006 A 
ATOM     26  C   UNL     1      -1.165   1.858  -0.498  0.00  0.00    +0.000 A 
ENDBRANCH   1  24
BRANCH  18  27
ATOM     27  C   UNL     1       6.155   4.164   3.123  0.00  0.00    +0.144 C 
BRANCH  27  28
ATOM     28  C   UNL     1       5.312   5.130   3.959  0.00  0.00    +0.162 C 
BRANCH  28  29
ATOM     29  C   UNL     1       6.221   6.074   4.704  0.00  0.00    -0.018 A 
ATOM     30  C   UNL     1       6.836   5.663   5.872  0.00  0.00    +0.006 A 
ATOM     31  C   UNL     1       7.673   6.527   6.553  0.00  0.00    +0.000 A 
ATOM     32  C   UNL     1       7.888   7.805   6.071  0.00  0.00    +0.000 A 
ATOM     33  C   UNL     1       7.269   8.217   4.906  0.00  0.00    +0.000 A 
ATOM     34  C   UNL     1       6.435   7.352   4.222  0.00  0.00    +0.006 A 
ENDBRANCH  28  29
BRANCH  28  35
ATOM     35  O   UNL     1       4.525   4.390   4.894  0.00  0.00    -0.386 OA
ATOM     36  H   UNL     1       5.045   3.857   5.511  0.00  0.00    +0.210 HD
ENDBRANCH  28  35
ENDBRANCH  27  28
ENDBRANCH  18  27
TORSDOF 5
