REMARK  Name = ZINC39678482
REMARK  9 active torsions:
REMARK  status: ('A' for Active; 'I' for Inactive)
REMARK    1  A    between atoms: C_1  and  C_2
REMARK    2  A    between atoms: C_2  and  C_4
REMARK    3  A    between atoms: C_2  and  O_31
REMARK    4  A    between atoms: C_8  and  C_17
REMARK    5  A    between atoms: N_19  and  C_20
REMARK    6  A    between atoms: C_20  and  C_21
REMARK    7  A    between atoms: C_25  and  O_27
REMARK    8  A    between atoms: O_27  and  C_28
REMARK    9  A    between atoms: O_31  and  C_32
REMARK                            x       y       z     vdW  Elec       q    Type
REMARK                         _______ _______ _______ _____ _____    ______ ____
ROOT
ATOM      1  C   UNL     1      -1.207  -0.486  -0.141  0.00  0.00    +0.256 C 
ATOM      2  O   UNL     1      -1.602  -0.913  -1.205  0.00  0.00    -0.272 OA
ATOM      3  N   UNL     1      -2.014  -0.513   0.938  0.00  0.00    -0.297 N 
ATOM      4  C   UNL     1      -1.687  -0.113   2.327  0.00  0.00    +0.121 C 
ATOM      5  C   UNL     1      -2.957   0.606   2.835  0.00  0.00    +0.100 C 
ATOM      6  C   UNL     1      -4.097   0.052   1.964  0.00  0.00    -0.004 C 
ATOM      7  C   UNL     1      -3.432  -0.943   1.001  0.00  0.00    +0.115 C 
ATOM      8  C   UNL     1      -5.128  -0.661   2.833  0.00  0.00    -0.010 C 
ATOM      9  C   UNL     1      -6.280  -1.152   1.951  0.00  0.00    -0.082 C 
ATOM     10  N   UNL     1      -6.895  -0.009   1.266  0.00  0.00    +0.379 N 
ATOM     11  C   UNL     1      -5.922   0.615   0.361  0.00  0.00    -0.082 C 
ATOM     12  C   UNL     1      -4.755   1.181   1.175  0.00  0.00    -0.010 C 
ATOM     13  H   UNL     1      -7.691  -0.327   0.733  0.00  0.00    -0.086 HD
ATOM     14  H   UNL     1      -7.199   0.668   1.949  0.00  0.00    -0.086 HD
ENDROOT
BRANCH   5  15
ATOM     15  C   UNL     1      -3.198   0.282   4.287  0.00  0.00    +0.218 C 
ATOM     16  O   UNL     1      -2.854  -0.792   4.734  0.00  0.00    -0.275 OA
ATOM     17  N   UNL     1      -3.796   1.185   5.088  0.00  0.00    -0.311 N 
ATOM     18  H   UNL     1      -4.072   2.044   4.731  0.00  0.00    +0.149 HD
BRANCH  17  19
ATOM     19  C   UNL     1      -4.031   0.870   6.500  0.00  0.00    +0.139 C 
BRANCH  19  20
ATOM     20  C   UNL     1      -4.708   2.038   7.170  0.00  0.00    -0.027 A 
ATOM     21  C   UNL     1      -3.949   3.035   7.752  0.00  0.00    +0.005 A 
ATOM     22  C   UNL     1      -4.567   4.108   8.367  0.00  0.00    +0.004 A 
ATOM     23  C   UNL     1      -5.946   4.185   8.402  0.00  0.00    +0.046 A 
ATOM     24  C   UNL     1      -6.710   3.186   7.818  0.00  0.00    +0.127 A 
ATOM     25  C   UNL     1      -6.087   2.113   7.196  0.00  0.00    +0.051 A 
BRANCH  24  26
ATOM     26  O   UNL     1      -8.067   3.259   7.851  0.00  0.00    -0.434 OA
BRANCH  26  27
ATOM     27  C   UNL     1      -8.639   4.394   8.503  0.00  0.00    +0.541 C 
ATOM     28  F   UNL     1      -8.229   4.420   9.840  0.00  0.00    -0.166 F 
ATOM     29  F   UNL     1      -8.215   5.563   7.863  0.00  0.00    -0.166 F 
ENDBRANCH  26  27
ENDBRANCH  24  26
ENDBRANCH  19  20
ENDBRANCH  17  19
ENDBRANCH   5  15
BRANCH   1  31
ATOM     30  C   UNL     1       0.113   1.583   0.217  0.00  0.00    +0.062 C 
ATOM     31  C   UNL     1       0.188   0.074  -0.025  0.00  0.00    +0.256 C 
BRANCH  31  32
ATOM     32  O   UNL     1       0.905  -0.179  -1.235  0.00  0.00    -0.480 OA
BRANCH  32  33
ATOM     33  C   UNL     1       2.260  -0.233  -1.149  0.00  0.00    +0.122 A 
ATOM     34  C   UNL     1       2.892   0.052   0.053  0.00  0.00    +0.045 A 
ATOM     35  C   UNL     1       4.270  -0.004   0.138  0.00  0.00    +0.004 A 
ATOM     36  C   UNL     1       5.019  -0.343  -0.974  0.00  0.00    +0.000 A 
ATOM     37  C   UNL     1       4.391  -0.628  -2.173  0.00  0.00    +0.004 A 
ATOM     38  C   UNL     1       3.014  -0.579  -2.261  0.00  0.00    +0.045 A 
ENDBRANCH  32  33
ENDBRANCH  31  32
ENDBRANCH   1  31
TORSDOF 8
