REMARK  Name = ZINC20186959
REMARK  3 active torsions:
REMARK  status: ('A' for Active; 'I' for Inactive)
REMARK    1  A    between atoms: C_9  and  N_11
REMARK    2  A    between atoms: N_11  and  C_12
REMARK    3  A    between atoms: C_15  and  C_18
REMARK                            x       y       z     vdW  Elec       q    Type
REMARK                         _______ _______ _______ _____ _____    ______ ____
ROOT
ATOM      1  N   UNL     1      -4.603   4.594   0.049  0.00  0.00    -0.337 N 
ATOM      2  H   UNL     1      -5.605   4.140   0.051  0.00  0.00    +0.147 HD
ENDROOT
BRANCH   1  11
ATOM      3  C   UNL     1      -4.365   7.838   3.928  0.00  0.00    +0.000 A 
ATOM      4  C   UNL     1      -3.579   6.714   3.751  0.00  0.00    +0.000 A 
ATOM      5  C   UNL     1      -3.554   6.077   2.526  0.00  0.00    +0.006 A 
ATOM      6  C   UNL     1      -4.314   6.560   1.473  0.00  0.00    -0.024 A 
ATOM      7  C   UNL     1      -5.101   7.683   1.651  0.00  0.00    -0.042 A 
ATOM      8  C   UNL     1      -5.124   8.320   2.880  0.00  0.00    +0.004 A 
ATOM      9  C   UNL     1      -5.828   8.007   0.364  0.00  0.00    +0.037 C 
ATOM     10  C   UNL     1      -5.744   6.719  -0.483  0.00  0.00    +0.031 C 
ATOM     11  C   UNL     1      -4.460   6.052   0.055  0.00  0.00    +0.101 C 
ENDBRANCH   1  11
BRANCH   1  12
ATOM     12  C   UNL     1      -3.470   3.783   0.039  0.00  0.00    +0.028 A 
ATOM     13  C   UNL     1      -3.607   2.398   0.033  0.00  0.00    +0.023 A 
ATOM     14  C   UNL     1      -2.489   1.594   0.024  0.00  0.00    +0.015 A 
ATOM     15  C   UNL     1      -1.217   2.169   0.020  0.00  0.00    +0.039 A 
ATOM     16  C   UNL     1      -1.082   3.559   0.032  0.00  0.00    +0.015 A 
ATOM     17  C   UNL     1      -2.204   4.358   0.035  0.00  0.00    +0.023 A 
BRANCH  15  18
ATOM     18  C   UNL     1      -0.016   1.309   0.009  0.00  0.00    +0.248 A 
ATOM     19  N   UNL     1       0.002  -0.004   0.002  0.00  0.00    -0.108 NA
ATOM     20  N   UNL     1       1.222  -0.412  -0.012  0.00  0.00    -0.116 NA
ATOM     21  C   UNL     1       2.025   0.615  -0.014  0.00  0.00    +0.332 A 
ATOM     22  O   UNL     1       1.266   1.725  -0.001  0.00  0.00    -0.423 OA
ENDBRANCH  15  18
ENDBRANCH   1  12
TORSDOF 3
