REMARK  Name = ZINC59170742
REMARK  9 active torsions:
REMARK  status: ('A' for Active; 'I' for Inactive)
REMARK    1  A    between atoms: C_1  and  C_2
REMARK    2  A    between atoms: C_5  and  S_8
REMARK    3  A    between atoms: S_8  and  N_11
REMARK    4  A    between atoms: N_11  and  N_12
REMARK    5  A    between atoms: C_14  and  C_24
REMARK    6  A    between atoms: C_19  and  O_23
REMARK    7  A    between atoms: N_26  and  C_27
REMARK    8  A    between atoms: C_32  and  O_33
REMARK    9  A    between atoms: O_33  and  C_34
REMARK                            x       y       z     vdW  Elec       q    Type
REMARK                         _______ _______ _______ _____ _____    ______ ____
ROOT
ATOM      1  N   UNL     1       2.916  -4.164   0.613  0.00  0.00    -0.260 N 
ATOM      2  C   UNL     1       4.058  -4.766   0.788  0.00  0.00    +0.225 A 
ATOM      3  C   UNL     1       4.735  -4.753   2.106  0.00  0.00    +0.099 A 
ATOM      4  C   UNL     1       5.578  -5.802   2.391  0.00  0.00    +0.030 A 
ATOM      5  C   UNL     1       5.736  -6.843   1.371  0.00  0.00    +0.018 A 
ATOM      6  C   UNL     1       6.353  -8.060   1.684  0.00  0.00    +0.015 A 
ATOM      7  C   UNL     1       6.490  -9.020   0.721  0.00  0.00    +0.046 A 
ATOM      8  C   UNL     1       6.018  -8.796  -0.569  0.00  0.00    +0.120 A 
ATOM      9  C   UNL     1       5.405  -7.595  -0.896  0.00  0.00    +0.092 A 
ATOM     10  C   UNL     1       5.261  -6.613   0.067  0.00  0.00    +0.141 A 
ATOM     11  O   UNL     1       4.667  -5.434  -0.235  0.00  0.00    -0.437 OA
ATOM     12  H   UNL     1       2.517  -3.660   1.339  0.00  0.00    +0.189 HD
ENDROOT
BRANCH   3  13
ATOM     13  C   UNL     1       4.515  -3.663   3.069  0.00  0.00    +0.253 C 
ATOM     14  O   UNL     1       3.721  -2.777   2.815  0.00  0.00    -0.270 OA
ATOM     15  N   UNL     1       5.193  -3.646   4.234  0.00  0.00    -0.278 N 
ATOM     16  H   UNL     1       5.874  -4.315   4.409  0.00  0.00    +0.155 HD
BRANCH  15  17
ATOM     17  C   UNL     1       4.914  -2.664   5.192  0.00  0.00    +0.076 A 
ATOM     18  C   UNL     1       3.710  -1.976   5.153  0.00  0.00    +0.027 A 
ATOM     19  C   UNL     1       3.437  -1.007   6.100  0.00  0.00    +0.002 A 
ATOM     20  C   UNL     1       4.362  -0.721   7.088  0.00  0.00    +0.004 A 
ATOM     21  C   UNL     1       5.564  -1.402   7.133  0.00  0.00    +0.047 A 
ATOM     22  C   UNL     1       5.843  -2.378   6.190  0.00  0.00    +0.141 A 
BRANCH  22  23
ATOM     23  O   UNL     1       7.023  -3.052   6.236  0.00  0.00    -0.493 OA
ATOM     24  C   UNL     1       7.880  -2.785   7.348  0.00  0.00    +0.277 C 
ENDBRANCH  22  23
ENDBRANCH  15  17
ENDBRANCH   3  13
BRANCH   1  25
ATOM     25  N   UNL     1       2.264  -4.245  -0.625  0.00  0.00    -0.157 N 
ATOM     26  H   UNL     1       2.697  -4.686  -1.373  0.00  0.00    +0.194 HD
BRANCH  25  27
ATOM     27  S   UNL     1       0.756  -3.586  -0.811  0.00  0.00    +0.085 S 
ATOM     28  O   UNL     1      -0.048  -4.111   0.237  0.00  0.00    -0.149 OA
ATOM     29  O   UNL     1       0.414  -3.736  -2.182  0.00  0.00    -0.149 OA
BRANCH  27  34
ATOM     30  C   UNL     1       1.256   2.341   0.203  0.00  0.00    +0.044 C 
ATOM     31  C   UNL     1       1.132   0.860  -0.051  0.00  0.00    -0.050 A 
ATOM     32  C   UNL     1       1.208   0.371  -1.341  0.00  0.00    +0.005 A 
ATOM     33  C   UNL     1       1.094  -0.987  -1.573  0.00  0.00    +0.029 A 
ATOM     34  C   UNL     1       0.903  -1.856  -0.515  0.00  0.00    +0.110 A 
ATOM     35  C   UNL     1       0.828  -1.366   0.776  0.00  0.00    +0.029 A 
ATOM     36  C   UNL     1       0.946  -0.009   1.008  0.00  0.00    +0.005 A 
ENDBRANCH  27  34
ENDBRANCH  25  27
ENDBRANCH   1  25
BRANCH   8  37
ATOM     37  O   UNL     1       6.160  -9.760  -1.515  0.00  0.00    -0.507 OA
ATOM     38  H   UNL     1       5.417 -10.378  -1.561  0.00  0.00    +0.292 HD
ENDBRANCH   8  37
TORSDOF 7
