REMARK  Name = ZINC02307840
REMARK  9 active torsions:
REMARK  status: ('A' for Active; 'I' for Inactive)
REMARK    1  A    between atoms: C_1  and  O_2
REMARK    2  A    between atoms: O_2  and  C_3
REMARK    3  A    between atoms: C_5  and  N_37
REMARK    4  A    between atoms: C_7  and  C_9
REMARK    5  A    between atoms: N_10  and  N_11
REMARK    6  A    between atoms: C_12  and  C_14
REMARK    7  A    between atoms: C_14  and  C_16
REMARK    8  A    between atoms: C_14  and  N_28
REMARK    9  A    between atoms: C_29  and  C_31
REMARK                            x       y       z     vdW  Elec       q    Type
REMARK                         _______ _______ _______ _____ _____    ______ ____
ROOT
ATOM      1  C   UNL     1       6.132  -0.704  -0.059  0.00  0.00    +0.212 C 
ENDROOT
BRANCH   1   2
ATOM      2  C   UNL     1       6.524  -1.063   1.351  0.00  0.00    +0.099 A 
ATOM      3  C   UNL     1       7.413  -2.199   1.596  0.00  0.00    +0.013 A 
ATOM      4  C   UNL     1       7.921  -2.975   0.552  0.00  0.00    +0.010 A 
ATOM      5  C   UNL     1       8.749  -4.027   0.832  0.00  0.00    +0.001 A 
ATOM      6  C   UNL     1       9.094  -4.334   2.142  0.00  0.00    +0.001 A 
ATOM      7  C   UNL     1       8.608  -3.585   3.192  0.00  0.00    +0.014 A 
ATOM      8  C   UNL     1       7.762  -2.509   2.930  0.00  0.00    +0.050 A 
ATOM      9  C   UNL     1       7.211  -1.673   4.004  0.00  0.00    +0.272 A 
ATOM     10  O   UNL     1       7.484  -1.900   5.169  0.00  0.00    -0.266 OA
ATOM     11  N   UNL     1       6.399  -0.647   3.676  0.00  0.00    -0.242 N 
ATOM     12  H   UNL     1       6.032  -0.090   4.381  0.00  0.00    +0.192 HD
ATOM     13  N   UNL     1       6.076  -0.361   2.349  0.00  0.00    -0.173 NA
ENDBRANCH   1   2
BRANCH   1  15
ATOM     14  N   UNL     1       8.457  -0.268  -0.783  0.00  0.00    -0.205 N 
ATOM     15  C   UNL     1       7.191   0.180  -0.665  0.00  0.00    +0.259 C 
ATOM     16  O   UNL     1       6.905   1.296  -1.046  0.00  0.00    -0.272 OA
ATOM     17  H   UNL     1       8.686  -1.160  -0.478  0.00  0.00    +0.177 HD
BRANCH  14  19
ATOM     18  C   UNL     1      10.660   0.123  -1.460  0.00  0.00    +0.142 C 
ATOM     19  N   UNL     1       9.441   0.554  -1.347  0.00  0.00    -0.188 NA
BRANCH  18  24
ATOM     20  C   UNL     1      12.353   3.083  -3.051  0.00  0.00    +0.169 A 
ATOM     21  C   UNL     1      13.652   2.611  -3.168  0.00  0.00    +0.082 A 
ATOM     22  C   UNL     1      13.975   1.338  -2.732  0.00  0.00    +0.130 A 
ATOM     23  C   UNL     1      13.009   0.526  -2.177  0.00  0.00    +0.046 A 
ATOM     24  C   UNL     1      11.696   0.988  -2.053  0.00  0.00    +0.047 A 
ATOM     25  C   UNL     1      11.368   2.273  -2.499  0.00  0.00    +0.229 A 
ATOM     26  O   UNL     1      10.092   2.730  -2.389  0.00  0.00    -0.283 OA
BRANCH  22  27
ATOM     27  N   UNL     1      15.366   0.847  -2.861  0.00  0.00    +0.057 N 
ATOM     28  O   UNL     1      15.653  -0.273  -2.478  0.00  0.00    -0.126 OA
ATOM     29  O   UNL     1      16.221   1.562  -3.351  0.00  0.00    -0.126 OA
ENDBRANCH  22  27
BRANCH  20  31
ATOM     30  C   UNL     1      13.104   5.109  -4.045  0.00  0.00    +0.277 C 
ATOM     31  O   UNL     1      12.043   4.335  -3.482  0.00  0.00    -0.491 OA
ENDBRANCH  20  31
ENDBRANCH  18  24
ENDBRANCH  14  19
ENDBRANCH   1  15
BRANCH   1  32
ATOM     32  N   UNL     1       4.852   0.008  -0.044  0.00  0.00    -0.295 N 
ATOM     33  C   UNL     1       3.696  -0.685  -0.036  0.00  0.00    +0.245 C 
ATOM     34  O   UNL     1       3.715  -1.900  -0.043  0.00  0.00    -0.270 OA
ATOM     35  H   UNL     1       4.836   0.978  -0.039  0.00  0.00    +0.150 HD
BRANCH  33  36
ATOM     36  C   UNL     1       2.403   0.034  -0.021  0.00  0.00    +0.037 A 
ATOM     37  C   UNL     1       1.204  -0.681  -0.013  0.00  0.00    +0.013 A 
ATOM     38  C   UNL     1       0.002  -0.004   0.002  0.00  0.00    +0.001 A 
ATOM     39  C   UNL     1      -0.017   1.379   0.010  0.00  0.00    +0.000 A 
ATOM     40  C   UNL     1       1.168   2.094   0.002  0.00  0.00    +0.001 A 
ATOM     41  C   UNL     1       2.377   1.429  -0.013  0.00  0.00    +0.013 A 
ENDBRANCH  33  36
ENDBRANCH   1  32
TORSDOF 8
