REMARK  Name = ZINC21365177
REMARK  6 active torsions:
REMARK  status: ('A' for Active; 'I' for Inactive)
REMARK    1  A    between atoms: C_8  and  C_10
REMARK    2  A    between atoms: C_13  and  C_16
REMARK    3  A    between atoms: C_21  and  C_23
REMARK    4  A    between atoms: C_23  and  N_24
REMARK    5  A    between atoms: N_27  and  C_30
REMARK    6  A    between atoms: C_33  and  N_36
REMARK                            x       y       z     vdW  Elec       q    Type
REMARK                         _______ _______ _______ _____ _____    ______ ____
ROOT
ATOM      1  C   UNL     1       1.579   3.268   0.004  0.00  0.00    +0.104 C 
ATOM      2  N   UNL     1       2.778   3.747   0.000  0.00  0.00    -0.178 NA
ATOM      3  N   UNL     1       2.833   5.140   0.003  0.00  0.00    -0.184 N 
ATOM      4  C   UNL     1       1.461   5.671   0.019  0.00  0.00    +0.173 C 
ATOM      5  C   UNL     1       0.582   4.405   0.020  0.00  0.00    +0.093 C 
ATOM      6  C   UNL     1       3.960   5.879  -0.003  0.00  0.00    +0.219 C 
ATOM      7  O   UNL     1       3.891   7.090   0.005  0.00  0.00    -0.276 OA
ENDROOT
BRANCH   1  15
ATOM      8  C   UNL     1       0.669  -2.703  -0.019  0.00  0.00    +0.001 A 
ATOM      9  C   UNL     1      -0.660  -2.306  -0.004  0.00  0.00    +0.004 A 
ATOM     10  C   UNL     1      -0.997  -0.969   0.006  0.00  0.00    +0.047 A 
ATOM     11  C   UNL     1       0.002  -0.004   0.002  0.00  0.00    +0.136 A 
ATOM     12  C   UNL     1       1.349  -0.411  -0.013  0.00  0.00    +0.021 A 
ATOM     13  C   UNL     1       1.669  -1.770  -0.023  0.00  0.00    +0.011 A 
ATOM     14  C   UNL     1       2.136   0.822  -0.014  0.00  0.00    +0.059 A 
ATOM     15  C   UNL     1       1.237   1.842   0.000  0.00  0.00    +0.152 A 
ATOM     16  O   UNL     1      -0.016   1.344   0.009  0.00  0.00    -0.454 OA
ENDBRANCH   1  15
BRANCH   4  17
ATOM     17  C   UNL     1       1.219   6.486   1.263  0.00  0.00    +0.128 A 
ATOM     18  C   UNL     1       0.441   7.579   1.348  0.00  0.00    +0.046 A 
ATOM     19  C   UNL     1       0.500   8.021   2.690  0.00  0.00    +0.041 A 
ATOM     20  C   UNL     1       1.311   7.171   3.344  0.00  0.00    +0.195 A 
ATOM     21  O   UNL     1       1.739   6.240   2.477  0.00  0.00    -0.466 OA
ENDBRANCH   4  17
BRANCH   6  22
ATOM     22  C   UNL     1       5.306   5.202  -0.020  0.00  0.00    +0.021 C 
BRANCH  22  23
ATOM     23  N   UNL     1       6.366   6.219  -0.023  0.00  0.00    +0.387 N 
ATOM     24  C   UNL     1       6.351   6.990  -1.274  0.00  0.00    -0.059 C 
ATOM     25  C   UNL     1       7.416   8.088  -1.206  0.00  0.00    +0.086 C 
ATOM     26  N   UNL     1       8.733   7.476  -0.983  0.00  0.00    -0.333 N 
ATOM     27  C   UNL     1       8.748   6.705   0.267  0.00  0.00    +0.086 C 
ATOM     28  C   UNL     1       7.684   5.607   0.199  0.00  0.00    -0.059 C 
ATOM     29  H   UNL     1       6.170   6.913   0.807  0.00  0.00    -0.081 HD
BRANCH  26  30
ATOM     30  C   UNL     1       9.741   8.443  -0.987  0.00  0.00    +0.030 A 
ATOM     31  C   UNL     1      10.586   8.572   0.108  0.00  0.00    +0.025 A 
ATOM     32  C   UNL     1      11.585   9.525   0.099  0.00  0.00    +0.034 A 
ATOM     33  C   UNL     1      11.738  10.358  -0.994  0.00  0.00    +0.126 A 
ATOM     34  C   UNL     1      10.895  10.236  -2.084  0.00  0.00    +0.034 A 
ATOM     35  C   UNL     1       9.898   9.281  -2.083  0.00  0.00    +0.025 A 
BRANCH  33  36
ATOM     36  N   UNL     1      12.806  11.383  -0.998  0.00  0.00    +0.056 N 
ATOM     37  O   UNL     1      12.941  12.118  -1.960  0.00  0.00    -0.126 OA
ATOM     38  O   UNL     1      13.549  11.492  -0.039  0.00  0.00    -0.126 OA
ENDBRANCH  33  36
ENDBRANCH  26  30
ENDBRANCH  22  23
ENDBRANCH   6  22
TORSDOF 6
