REMARK  Name = ZINC13951487
REMARK  8 active torsions:
REMARK  status: ('A' for Active; 'I' for Inactive)
REMARK    1  A    between atoms: C_1  and  C_2
REMARK    2  A    between atoms: C_5  and  C_36
REMARK    3  A    between atoms: N_8  and  S_10
REMARK    4  A    between atoms: S_10  and  C_13
REMARK    5  A    between atoms: C_16  and  C_19
REMARK    6  A    between atoms: N_21  and  C_22
REMARK    7  A    between atoms: C_23  and  C_32
REMARK    8  A    between atoms: N_34  and  C_35
REMARK                            x       y       z     vdW  Elec       q    Type
REMARK                         _______ _______ _______ _____ _____    ______ ____
ROOT
ATOM      1  C   UNL     1      -2.779   4.367   7.600  0.00  0.00    +0.249 C 
ATOM      2  O   UNL     1      -3.918   4.774   7.487  0.00  0.00    -0.270 OA
ATOM      3  N   UNL     1      -1.999   4.816   8.604  0.00  0.00    -0.275 N 
ATOM      4  H   UNL     1      -0.968   4.447   8.707  0.00  0.00    +0.156 HD
ENDROOT
BRANCH   3   5
ATOM      5  C   UNL     1      -2.497   5.742   9.506  0.00  0.00    +0.085 A 
ATOM      6  C   UNL     1      -1.858   6.312  10.596  0.00  0.00    +0.069 A 
ATOM      7  C   UNL     1      -2.606   7.275  11.393  0.00  0.00    -0.023 A 
ATOM      8  C   UNL     1      -3.872   7.495  10.978  0.00  0.00    -0.004 A 
ATOM      9  S   UNL     1      -4.071   6.463   9.551  0.00  0.00    -0.077 S 
ATOM     10  C   UNL     1      -4.893   8.400  11.594  0.00  0.00    +0.043 C 
ATOM     11  C   UNL     1      -4.262   9.776  11.850  0.00  0.00    +0.005 C 
ATOM     12  C   UNL     1      -3.641   9.769  13.243  0.00  0.00    +0.001 C 
ATOM     13  C   UNL     1      -3.110   8.377  13.575  0.00  0.00    +0.005 C 
ATOM     14  C   UNL     1      -2.005   7.981  12.601  0.00  0.00    +0.037 C 
BRANCH   6  15
ATOM     15  C   UNL     1      -0.475   5.961  10.934  0.00  0.00    +0.246 C 
ATOM     16  O   UNL     1       0.447   6.598  10.460  0.00  0.00    -0.270 OA
ATOM     17  N   UNL     1      -0.226   4.933  11.768  0.00  0.00    -0.314 N 
ATOM     18  C   UNL     1       1.156   4.582  12.106  0.00  0.00    +0.128 C 
ATOM     19  H   UNL     1      -1.060   4.357  12.196  0.00  0.00    +0.149 HD
ENDBRANCH   6  15
ENDBRANCH   3   5
BRANCH   1  23
ATOM     20  C   UNL     1      -1.253   1.526   4.835  0.00  0.00    +0.106 A 
ATOM     21  C   UNL     1      -0.452   1.981   5.867  0.00  0.00    +0.029 A 
ATOM     22  C   UNL     1      -0.940   2.908   6.766  0.00  0.00    +0.015 A 
ATOM     23  C   UNL     1      -2.248   3.379   6.638  0.00  0.00    +0.037 A 
ATOM     24  C   UNL     1      -3.052   2.912   5.597  0.00  0.00    +0.015 A 
ATOM     25  C   UNL     1      -2.551   1.989   4.702  0.00  0.00    +0.029 A 
BRANCH  20  26
ATOM     26  S   UNL     1      -0.621   0.347   3.688  0.00  0.00    +0.061 S 
ATOM     27  O   UNL     1      -1.744  -0.332   3.144  0.00  0.00    -0.153 OA
ATOM     28  O   UNL     1       0.435  -0.336   4.349  0.00  0.00    -0.153 OA
BRANCH  26  34
ATOM     29  C   UNL     1       3.619   1.586   1.189  0.00  0.00    +0.009 C 
ATOM     30  C   UNL     1       2.175   1.082   1.218  0.00  0.00    +0.002 C 
ATOM     31  C   UNL     1       1.423   1.616  -0.003  0.00  0.00    +0.009 C 
ATOM     32  C   UNL     1      -0.013   1.086   0.008  0.00  0.00    +0.002 C 
ATOM     33  C   UNL     1      -0.726   1.581   1.270  0.00  0.00    +0.112 C 
ATOM     34  N   UNL     1       0.069   1.195   2.444  0.00  0.00    -0.176 NA
ATOM     35  C   UNL     1       1.486   1.577   2.494  0.00  0.00    +0.112 C 
ATOM     36  C   UNL     1      -0.754   1.593  -1.230  0.00  0.00    +0.009 C 
ENDBRANCH  26  34
ENDBRANCH  20  26
ENDBRANCH   1  23
TORSDOF 5
