REMARK  Name = ZINC15067756
REMARK  10 active torsions:
REMARK  status: ('A' for Active; 'I' for Inactive)
REMARK    1  A    between atoms: C_1  and  C_2
REMARK    2  A    between atoms: C_2  and  C_35
REMARK    3  A    between atoms: C_3  and  C_4
REMARK    4  A    between atoms: C_4  and  N_69
REMARK    5  A    between atoms: C_7  and  C_10
REMARK    6  A    between atoms: C_7  and  O_34
REMARK    7  A    between atoms: C_17  and  C_19
REMARK    8  A    between atoms: N_21  and  C_22
REMARK    9  A    between atoms: N_21  and  C_23
REMARK   10  A    between atoms: C_23  and  C_24
REMARK                            x       y       z     vdW  Elec       q    Type
REMARK                         _______ _______ _______ _____ _____    ______ ____
ROOT
ATOM      1  C   UNL     1      -6.478   2.705   2.397  0.00  0.00    -0.015 A 
ATOM      2  C   UNL     1      -7.646   3.405   2.129  0.00  0.00    +0.010 A 
ATOM      3  C   UNL     1      -7.752   4.196   1.005  0.00  0.00    +0.047 A 
ATOM      4  C   UNL     1      -6.679   4.296   0.126  0.00  0.00    +0.136 A 
ATOM      5  C   UNL     1      -5.497   3.583   0.403  0.00  0.00    +0.021 A 
ATOM      6  C   UNL     1      -5.411   2.788   1.548  0.00  0.00    +0.018 A 
ATOM      7  C   UNL     1      -4.580   3.897  -0.693  0.00  0.00    +0.063 A 
ATOM      8  C   UNL     1      -5.252   4.742  -1.516  0.00  0.00    +0.191 A 
ATOM      9  O   UNL     1      -6.486   4.976  -1.021  0.00  0.00    -0.450 OA
ENDROOT
BRANCH   1  12
ATOM     10  C   UNL     1      -7.223   1.528   5.963  0.00  0.00    -0.075 C 
ATOM     11  C   UNL     1      -7.273   2.437   4.732  0.00  0.00    +0.021 C 
ATOM     12  C   UNL     1      -6.386   1.847   3.632  0.00  0.00    +0.088 C 
ATOM     13  C   UNL     1      -6.863   0.428   3.307  0.00  0.00    +0.021 C 
ATOM     14  C   UNL     1      -6.827  -0.421   4.579  0.00  0.00    -0.075 C 
ATOM     15  N   UNL     1      -7.719   0.187   5.589  0.00  0.00    +0.382 N 
ATOM     16  H   UNL     1      -8.661   0.279   5.189  0.00  0.00    -0.081 HD
BRANCH  12  17
ATOM     17  O   UNL     1      -5.031   1.803   4.084  0.00  0.00    -0.384 OA
ATOM     18  H   UNL     1      -4.412   1.437   3.436  0.00  0.00    +0.211 HD
ENDBRANCH  12  17
BRANCH  15  19
ATOM     19  C   UNL     1      -7.789  -0.677   6.786  0.00  0.00    -0.051 C 
BRANCH  19  22
ATOM     20  C   UNL     1     -10.062  -1.495   8.237  0.00  0.00    +0.038 C 
ATOM     21  C   UNL     1      -9.581  -2.312   7.066  0.00  0.00    -0.081 C 
ATOM     22  C   UNL     1      -8.498  -1.956   6.421  0.00  0.00    -0.047 C 
ATOM     23  C   UNL     1     -10.344  -3.539   6.638  0.00  0.00    +0.038 C 
ENDBRANCH  19  22
ENDBRANCH  15  19
ENDBRANCH   1  12
BRANCH   8  24
ATOM     24  C   UNL     1      -4.715   5.322  -2.755  0.00  0.00    +0.282 C 
ATOM     25  O   UNL     1      -3.619   4.982  -3.160  0.00  0.00    -0.267 OA
ATOM     26  N   UNL     1      -5.436   6.229  -3.443  0.00  0.00    -0.294 N 
ATOM     27  C   UNL     1      -6.708   6.716  -2.903  0.00  0.00    +0.133 C 
BRANCH  26  28
ATOM     28  C   UNL     1      -4.949   6.728  -4.731  0.00  0.00    +0.143 C 
BRANCH  28  29
ATOM     29  C   UNL     1      -4.096   7.950  -4.506  0.00  0.00    -0.029 A 
ATOM     30  C   UNL     1      -4.689   9.211  -4.496  0.00  0.00    +0.007 A 
ATOM     31  C   UNL     1      -3.948  10.335  -4.301  0.00  0.00    +0.028 A 
ATOM     32  C   UNL     1      -2.560  10.229  -4.100  0.00  0.00    +0.071 A 
ATOM     33  C   UNL     1      -1.960   8.945  -4.104  0.00  0.00    +0.001 A 
ATOM     34  C   UNL     1      -2.756   7.807  -4.309  0.00  0.00    +0.015 A 
ATOM     35  C   UNL     1      -0.571   8.841  -3.903  0.00  0.00    +0.011 A 
ATOM     36  C   UNL     1       0.141   9.991  -3.711  0.00  0.00    +0.020 A 
ATOM     37  C   UNL     1      -0.512  11.222  -3.718  0.00  0.00    +0.111 A 
ATOM     38  N   UNL     1      -1.806  11.315  -3.906  0.00  0.00    -0.255 NA
ENDBRANCH  28  29
ENDBRANCH  26  28
ENDBRANCH   8  24
TORSDOF 7
