REMARK  Name = ZINC38546307
REMARK  6 active torsions:
REMARK  status: ('A' for Active; 'I' for Inactive)
REMARK    1  A    between atoms: C_1  and  C_2
REMARK    2  A    between atoms: N_5  and  C_8
REMARK    3  A    between atoms: C_8  and  C_10
REMARK    4  A    between atoms: C_8  and  C_16
REMARK    5  A    between atoms: C_20  and  N_21
REMARK    6  A    between atoms: C_22  and  C_24
REMARK                            x       y       z     vdW  Elec       q    Type
REMARK                         _______ _______ _______ _____ _____    ______ ____
ROOT
ATOM      1  C   UNL     1      -2.013  -4.663   1.360  0.00  0.00    -0.025 A 
ATOM      2  C   UNL     1      -2.205  -5.715   0.463  0.00  0.00    -0.033 A 
ATOM      3  C   UNL     1      -3.403  -6.356   0.524  0.00  0.00    -0.005 A 
ATOM      4  S   UNL     1      -4.272  -5.514   1.819  0.00  0.00    -0.078 S 
ATOM      5  C   UNL     1      -2.998  -4.334   2.237  0.00  0.00    +0.074 A 
ATOM      6  C   UNL     1      -3.866  -7.503  -0.315  0.00  0.00    +0.043 C 
ATOM      7  C   UNL     1      -2.924  -7.631  -1.522  0.00  0.00    +0.005 C 
ATOM      8  C   UNL     1      -1.477  -7.568  -1.023  0.00  0.00    +0.005 C 
ATOM      9  C   UNL     1      -1.149  -6.152  -0.547  0.00  0.00    +0.036 C 
ENDROOT
BRANCH   5  10
ATOM     10  N   UNL     1      -3.011  -3.332   3.210  0.00  0.00    -0.273 N 
ATOM     11  C   UNL     1      -4.140  -3.078   3.901  0.00  0.00    +0.284 C 
ATOM     12  O   UNL     1      -5.149  -3.722   3.676  0.00  0.00    -0.266 OA
ATOM     13  H   UNL     1      -2.207  -2.819   3.389  0.00  0.00    +0.156 HD
BRANCH  11  14
ATOM     14  C   UNL     1      -4.154  -2.026   4.922  0.00  0.00    +0.189 A 
ATOM     15  C   UNL     1      -5.223  -1.672   5.695  0.00  0.00    +0.054 A 
ATOM     16  C   UNL     1      -4.789  -0.629   6.529  0.00  0.00    +0.042 A 
ATOM     17  C   UNL     1      -3.491  -0.397   6.233  0.00  0.00    +0.196 A 
ATOM     18  O   UNL     1      -3.111  -1.244   5.268  0.00  0.00    -0.458 OA
ENDBRANCH  11  14
ENDBRANCH   5  10
BRANCH   1  19
ATOM     19  C   UNL     1      -0.714  -3.899   1.360  0.00  0.00    -0.004 C 
BRANCH  19  24
ATOM     20  C   UNL     1      -1.312   1.717   0.571  0.00  0.00    +0.007 C 
ATOM     21  C   UNL     1      -0.968   0.239   0.376  0.00  0.00    -0.018 C 
ATOM     22  C   UNL     1      -2.248  -0.598   0.447  0.00  0.00    -0.015 C 
ATOM     23  C   UNL     1      -1.889  -2.081   0.331  0.00  0.00    -0.077 C 
ATOM     24  N   UNL     1      -0.994  -2.459   1.431  0.00  0.00    +0.387 N 
ATOM     25  C   UNL     1       0.265  -1.712   1.327  0.00  0.00    -0.077 C 
ATOM     26  C   UNL     1      -0.011  -0.215   1.482  0.00  0.00    -0.015 C 
ATOM     27  H   UNL     1      -1.438  -2.247   2.312  0.00  0.00    -0.080 HD
ENDBRANCH  19  24
BRANCH  19  28
ATOM     28  C   UNL     1       0.110  -4.310   2.553  0.00  0.00    -0.057 A 
ATOM     29  C   UNL     1      -0.009  -3.622   3.746  0.00  0.00    +0.002 A 
ATOM     30  C   UNL     1       0.747  -3.999   4.840  0.00  0.00    +0.000 A 
ATOM     31  C   UNL     1       1.622  -5.065   4.741  0.00  0.00    +0.000 A 
ATOM     32  C   UNL     1       1.741  -5.753   3.548  0.00  0.00    +0.000 A 
ATOM     33  C   UNL     1       0.982  -5.379   2.455  0.00  0.00    +0.002 A 
ENDBRANCH  19  28
ENDBRANCH   1  19
TORSDOF 5
