REMARK  Name = ZINC67240958
REMARK  4 active torsions:
REMARK  status: ('A' for Active; 'I' for Inactive)
REMARK    1  A    between atoms: C_4  and  S_7
REMARK    2  A    between atoms: S_7  and  C_10
REMARK    3  A    between atoms: N_23  and  C_24
REMARK    4  A    between atoms: C_29  and  C_30
REMARK                            x       y       z     vdW  Elec       q    Type
REMARK                         _______ _______ _______ _____ _____    ______ ____
ROOT
ATOM      1  C   UNL     1       4.391  -1.086   1.643  0.00  0.00    +0.249 A 
ATOM      2  C   UNL     1       5.161  -0.229   2.409  0.00  0.00    +0.204 A 
ATOM      3  N   UNL     1       5.720   0.965   2.142  0.00  0.00    -0.209 NA
ATOM      4  C   UNL     1       6.427   1.618   3.039  0.00  0.00    +0.135 A 
ATOM      5  C   UNL     1       6.613   1.026   4.372  0.00  0.00    +0.041 A 
ATOM      6  C   UNL     1       7.351   1.670   5.364  0.00  0.00    +0.013 A 
ATOM      7  C   UNL     1       7.496   1.074   6.598  0.00  0.00    +0.001 A 
ATOM      8  C   UNL     1       6.914  -0.158   6.856  0.00  0.00    +0.002 A 
ATOM      9  C   UNL     1       6.181  -0.807   5.885  0.00  0.00    +0.028 A 
ATOM     10  C   UNL     1       6.023  -0.223   4.636  0.00  0.00    +0.080 A 
ATOM     11  N   UNL     1       5.296  -0.836   3.631  0.00  0.00    -0.192 N 
ATOM     12  N   UNL     1       4.596  -2.046   3.554  0.00  0.00    -0.057 NA
ATOM     13  N   UNL     1       4.081  -2.147   2.379  0.00  0.00    -0.108 NA
ATOM     14  N   UNL     1       6.987   2.843   2.732  0.00  0.00    -0.298 N 
ATOM     15  H   UNL     1       7.435   3.358   3.422  0.00  0.00    +0.154 HD
ENDROOT
BRANCH  14  16
ATOM     16  C   UNL     1       6.910   3.340   1.428  0.00  0.00    +0.044 A 
ATOM     17  C   UNL     1       6.761   2.466   0.358  0.00  0.00    +0.024 A 
ATOM     18  C   UNL     1       6.684   2.961  -0.929  0.00  0.00    +0.002 A 
ATOM     19  C   UNL     1       6.756   4.324  -1.153  0.00  0.00    +0.001 A 
ATOM     20  C   UNL     1       6.904   5.196  -0.090  0.00  0.00    +0.014 A 
ATOM     21  C   UNL     1       6.976   4.708   1.200  0.00  0.00    +0.076 A 
BRANCH  21  22
ATOM     22  C   UNL     1       7.131   5.660   2.358  0.00  0.00    +0.419 C 
ATOM     23  F   UNL     1       7.173   6.974   1.880  0.00  0.00    -0.166 F 
ATOM     24  F   UNL     1       6.046   5.515   3.229  0.00  0.00    -0.166 F 
ATOM     25  F   UNL     1       8.318   5.374   3.041  0.00  0.00    -0.166 F 
ENDBRANCH  21  22
ENDBRANCH  14  16
BRANCH   1  26
ATOM     26  S   UNL     1       3.898  -0.813  -0.026  0.00  0.00    +0.047 S 
ATOM     27  O   UNL     1       3.632  -2.091  -0.586  0.00  0.00    -0.163 OA
ATOM     28  O   UNL     1       4.848   0.082  -0.589  0.00  0.00    -0.163 OA
BRANCH  26  32
ATOM     29  C   UNL     1      -0.050   1.398   0.087  0.00  0.00    +0.000 A 
ATOM     30  C   UNL     1       1.137   2.105   0.069  0.00  0.00    +0.002 A 
ATOM     31  C   UNL     1       2.343   1.430   0.035  0.00  0.00    +0.027 A 
ATOM     32  C   UNL     1       2.361   0.048   0.019  0.00  0.00    +0.095 A 
ATOM     33  C   UNL     1       1.174  -0.659   0.037  0.00  0.00    +0.027 A 
ATOM     34  C   UNL     1      -0.032   0.016   0.070  0.00  0.00    +0.002 A 
ENDBRANCH  26  32
ENDBRANCH   1  26
TORSDOF 4
