REMARK  Name = ZINC62704375
REMARK  12 active torsions:
REMARK  status: ('A' for Active; 'I' for Inactive)
REMARK    1  A    between atoms: C_1  and  C_2
REMARK    2  A    between atoms: C_2  and  C_3
REMARK    3  A    between atoms: C_3  and  C_5
REMARK    4  A    between atoms: C_3  and  N_6
REMARK    5  A    between atoms: C_7  and  C_9
REMARK    6  A    between atoms: C_9  and  C_11
REMARK    7  A    between atoms: C_9  and  O_12
REMARK    8  A    between atoms: O_12  and  C_13
REMARK    9  A    between atoms: C_16  and  C_20
REMARK   10  A    between atoms: C_20  and  C_21
REMARK   11  A    between atoms: C_21  and  C_23
REMARK   12  A    between atoms: C_21  and  N_24
REMARK                            x       y       z     vdW  Elec       q    Type
REMARK                         _______ _______ _______ _____ _____    ______ ____
ROOT
ATOM      1  C   UNL     1      -6.313   0.098  -3.472  0.00  0.00    +0.136 A 
ATOM      2  C   UNL     1      -5.704  -0.129  -4.698  0.00  0.00    +0.047 A 
ATOM      3  C   UNL     1      -6.476  -0.324  -5.826  0.00  0.00    +0.007 A 
ATOM      4  C   UNL     1      -7.856  -0.295  -5.736  0.00  0.00    -0.048 A 
ATOM      5  C   UNL     1      -8.466  -0.070  -4.516  0.00  0.00    +0.022 A 
ATOM      6  C   UNL     1      -7.698   0.121  -3.382  0.00  0.00    +0.060 A 
ATOM      7 BR   UNL     1      -8.533   0.420  -1.712  0.00  0.00    -0.047 Br
ENDROOT
BRANCH   1   8
ATOM      8  O   UNL     1      -5.555   0.290  -2.361  0.00  0.00    -0.479 OA
BRANCH   8   9
ATOM      9  C   UNL     1      -4.143   0.128  -2.502  0.00  0.00    +0.256 C 
ATOM     10  C   UNL     1      -3.526   1.435  -3.003  0.00  0.00    +0.062 C 
BRANCH   9  12
ATOM     11  N   UNL     1      -2.232  -0.533  -1.077  0.00  0.00    -0.310 N 
ATOM     12  C   UNL     1      -3.542  -0.232  -1.167  0.00  0.00    +0.254 C 
ATOM     13  O   UNL     1      -4.238  -0.249  -0.174  0.00  0.00    -0.272 OA
ATOM     14  H   UNL     1      -1.675  -0.519  -1.872  0.00  0.00    +0.149 HD
BRANCH  11  15
ATOM     15  C   UNL     1      -1.648  -0.883   0.220  0.00  0.00    +0.070 C 
ATOM     16  C   UNL     1      -1.860  -2.374   0.490  0.00  0.00    +0.028 C 
BRANCH  15  18
ATOM     17  C   UNL     1       0.060   0.934   0.059  0.00  0.00    +0.005 C 
ATOM     18  C   UNL     1      -0.149  -0.575   0.204  0.00  0.00    +0.018 C 
ENDBRANCH  15  18
ENDBRANCH  11  15
ENDBRANCH   9  12
ENDBRANCH   8   9
ENDBRANCH   1   8
BRANCH   4  19
ATOM     19  C   UNL     1      -8.695  -0.508  -6.969  0.00  0.00    +0.019 C 
BRANCH  19  20
ATOM     20  C   UNL     1      -8.993  -2.000  -7.131  0.00  0.00    -0.074 C 
ATOM     21  C   UNL     1      -9.947  -2.205  -8.310  0.00  0.00    -0.014 C 
BRANCH  20  22
ATOM     22  N   UNL     1      -7.740  -2.725  -7.384  0.00  0.00    +0.380 N 
ATOM     23  H   UNL     1      -7.937  -3.709  -7.491  0.00  0.00    -0.090 HD
ATOM     24  H   UNL     1      -7.313  -2.373  -8.227  0.00  0.00    -0.090 HD
ATOM     25  H   UNL     1      -7.111  -2.590  -6.607  0.00  0.00    -0.090 HD
ENDBRANCH  20  22
ENDBRANCH  19  20
ENDBRANCH   4  19
TORSDOF 8
