REMARK  Name = ZINC00933665
REMARK  8 active torsions:
REMARK  status: ('A' for Active; 'I' for Inactive)
REMARK    1  A    between atoms: C_6  and  C_7
REMARK    2  A    between atoms: C_7  and  N_8
REMARK    3  A    between atoms: N_8  and  C_9
REMARK    4  A    between atoms: N_8  and  S_17
REMARK    5  A    between atoms: C_9  and  C_10
REMARK    6  A    between atoms: S_17  and  C_20
REMARK    7  A    between atoms: C_23  and  S_26
REMARK    8  A    between atoms: S_26  and  N_29
REMARK                            x       y       z     vdW  Elec       q    Type
REMARK                         _______ _______ _______ _____ _____    ______ ____
ROOT
ATOM      1  S   UNL     1       1.065   3.755  -0.015  0.00  0.00    +0.061 S 
ATOM      2  O   UNL     1       2.189   4.386  -0.614  0.00  0.00    -0.153 OA
ATOM      3  O   UNL     1      -0.247   3.871  -0.547  0.00  0.00    -0.153 OA
ENDROOT
BRANCH   1   4
ATOM      4  C   UNL     1       1.432   2.033   0.052  0.00  0.00    +0.106 A 
ATOM      5  C   UNL     1       0.411   1.105  -0.041  0.00  0.00    +0.030 A 
ATOM      6  C   UNL     1       0.699  -0.246   0.011  0.00  0.00    +0.030 A 
ATOM      7  C   UNL     1       2.006  -0.669   0.156  0.00  0.00    +0.106 A 
ATOM      8  C   UNL     1       3.027   0.259   0.249  0.00  0.00    +0.030 A 
ATOM      9  C   UNL     1       2.740   1.610   0.196  0.00  0.00    +0.030 A 
BRANCH   7  10
ATOM     10  S   UNL     1       2.373  -2.391   0.223  0.00  0.00    +0.061 S 
ATOM     11  O   UNL     1       3.610  -2.517   0.910  0.00  0.00    -0.153 OA
ATOM     12  O   UNL     1       1.188  -3.042   0.663  0.00  0.00    -0.153 OA
BRANCH  10  13
ATOM     13  N   UNL     1       2.640  -2.896  -1.331  0.00  0.00    -0.177 NA
ATOM     14  C   UNL     1       1.533  -3.397  -2.157  0.00  0.00    +0.109 C 
ATOM     15  C   UNL     1       1.511  -2.607  -3.474  0.00  0.00    +0.017 C 
ATOM     16  C   UNL     1       2.884  -2.701  -4.142  0.00  0.00    +0.003 C 
ATOM     17  C   UNL     1       3.942  -2.080  -3.227  0.00  0.00    +0.017 C 
ATOM     18  C   UNL     1       3.991  -2.858  -1.908  0.00  0.00    +0.109 C 
ENDBRANCH  10  13
ENDBRANCH   7  10
ENDBRANCH   1   4
BRANCH   1  19
ATOM     19  N   UNL     1       0.993   4.301   1.547  0.00  0.00    -0.168 NA
BRANCH  19  20
ATOM     20  C   UNL     1       2.224   4.669   2.252  0.00  0.00    +0.145 C 
BRANCH  20  26
ATOM     21  C   UNL     1       3.190   6.650   1.065  0.00  0.00    +0.008 A 
ATOM     22  C   UNL     1       3.396   8.011   0.944  0.00  0.00    +0.038 A 
ATOM     23  C   UNL     1       2.871   8.877   1.888  0.00  0.00    +0.123 A 
ATOM     24  C   UNL     1       2.136   8.378   2.950  0.00  0.00    +0.038 A 
ATOM     25  C   UNL     1       1.927   7.017   3.067  0.00  0.00    +0.008 A 
ATOM     26  C   UNL     1       2.452   6.153   2.123  0.00  0.00    -0.031 A 
ATOM     27  F   UNL     1       3.075  10.207   1.773  0.00  0.00    -0.205 F 
ENDBRANCH  20  26
ENDBRANCH  19  20
BRANCH  19  28
ATOM     28  C   UNL     1      -0.301   4.417   2.223  0.00  0.00    +0.145 C 
BRANCH  28  29
ATOM     29  C   UNL     1      -0.540   3.189   3.064  0.00  0.00    -0.031 A 
ATOM     30  C   UNL     1      -1.236   2.117   2.538  0.00  0.00    +0.008 A 
ATOM     31  C   UNL     1      -1.451   0.988   3.306  0.00  0.00    +0.038 A 
ATOM     32  C   UNL     1      -0.979   0.936   4.607  0.00  0.00    +0.123 A 
ATOM     33  C   UNL     1      -0.286   2.013   5.134  0.00  0.00    +0.038 A 
ATOM     34  C   UNL     1      -0.067   3.138   4.362  0.00  0.00    +0.008 A 
ATOM     35  F   UNL     1      -1.192  -0.165   5.360  0.00  0.00    -0.205 F 
ENDBRANCH  28  29
ENDBRANCH  19  28
ENDBRANCH   1  19
TORSDOF 8
