REMARK  Name = ZINC36592326
REMARK  15 active torsions:
REMARK  status: ('A' for Active; 'I' for Inactive)
REMARK    1  A    between atoms: C_1  and  C_2
REMARK    2  A    between atoms: C_5  and  S_8
REMARK    3  A    between atoms: S_8  and  C_11
REMARK    4  A    between atoms: C_11  and  N_12
REMARK    5  A    between atoms: C_13  and  C_15
REMARK    6  A    between atoms: C_15  and  C_17
REMARK    7  A    between atoms: C_15  and  N_27
REMARK    8  A    between atoms: C_19  and  N_24
REMARK    9  A    between atoms: N_27  and  C_33
REMARK   10  A    between atoms: C_28  and  C_30
REMARK   11  A    between atoms: C_30  and  O_31
REMARK   12  A    between atoms: O_31  and  C_32
REMARK   13  A    between atoms: C_33  and  C_34
REMARK   14  A    between atoms: C_33  and  C_35
REMARK   15  A    between atoms: C_33  and  C_36
REMARK                            x       y       z     vdW  Elec       q    Type
REMARK                         _______ _______ _______ _____ _____    ______ ____
ROOT
ATOM      1  C   UNL     1       3.215  -4.353   3.593  0.00  0.00    +0.194 C 
ENDROOT
BRANCH   1   2
ATOM      2  C   UNL     1       3.038  -2.950   4.113  0.00  0.00    +0.002 A 
ATOM      3  C   UNL     1       2.656  -2.743   5.426  0.00  0.00    +0.040 A 
ATOM      4  C   UNL     1       2.493  -1.456   5.903  0.00  0.00    +0.127 A 
ATOM      5  C   UNL     1       2.711  -0.376   5.068  0.00  0.00    +0.034 A 
ATOM      6  C   UNL     1       3.093  -0.582   3.756  0.00  0.00    +0.022 A 
ATOM      7  C   UNL     1       3.262  -1.869   3.279  0.00  0.00    +0.047 A 
ATOM      8 CL   UNL     1       3.749  -2.129   1.633  0.00  0.00    -0.083 Cl
BRANCH   4   9
ATOM      9  N   UNL     1       2.084  -1.235   7.308  0.00  0.00    +0.056 N 
ATOM     10  O   UNL     1       1.893  -2.179   8.038  0.00  0.00    -0.126 OA
ATOM     11  O   UNL     1       1.941  -0.109   7.726  0.00  0.00    -0.126 OA
ENDBRANCH   4   9
ENDBRANCH   1   2
BRANCH   1  13
ATOM     12  N   UNL     1       1.497  -4.127   1.828  0.00  0.00    -0.294 N 
ATOM     13  C   UNL     1       1.950  -4.798   2.905  0.00  0.00    +0.239 C 
ATOM     14  O   UNL     1       1.340  -5.760   3.321  0.00  0.00    -0.273 OA
ATOM     15  H   UNL     1       1.943  -3.315   1.539  0.00  0.00    +0.150 HD
BRANCH  12  16
ATOM     16  C   UNL     1       0.330  -4.623   1.093  0.00  0.00    +0.278 C 
BRANCH  16  17
ATOM     17  S   UNL     1      -1.164  -3.792   1.700  0.00  0.00    +0.013 S 
ATOM     18  O   UNL     1      -1.187  -3.803   3.121  0.00  0.00    -0.168 OA
ATOM     19  O   UNL     1      -2.297  -4.216   0.954  0.00  0.00    -0.168 OA
BRANCH  17  24
ATOM     20  C   UNL     1      -0.429   2.010   0.215  0.00  0.00    +0.044 C 
ATOM     21  C   UNL     1      -0.612   0.560   0.586  0.00  0.00    -0.050 A 
ATOM     22  C   UNL     1      -1.233  -0.305  -0.295  0.00  0.00    +0.005 A 
ATOM     23  C   UNL     1      -1.402  -1.634   0.045  0.00  0.00    +0.027 A 
ATOM     24  C   UNL     1      -0.949  -2.098   1.266  0.00  0.00    +0.090 A 
ATOM     25  C   UNL     1      -0.327  -1.233   2.147  0.00  0.00    +0.027 A 
ATOM     26  C   UNL     1      -0.154   0.095   1.805  0.00  0.00    +0.005 A 
ENDBRANCH  17  24
ENDBRANCH  16  17
ENDBRANCH  12  16
ENDBRANCH   1  13
BRANCH   1  27
ATOM     27  N   UNL     1       3.507  -5.255   4.710  0.00  0.00    -0.279 N 
ATOM     28  C   UNL     1       2.564  -5.502   5.640  0.00  0.00    +0.243 C 
ATOM     29  O   UNL     1       1.446  -5.051   5.505  0.00  0.00    -0.273 OA
BRANCH  27  30
ATOM     30  C   UNL     1       4.824  -5.888   4.815  0.00  0.00    +0.030 C 
ATOM     31  C   UNL     1       5.772  -5.267   3.788  0.00  0.00    +0.031 C 
ATOM     32  C   UNL     1       5.383  -5.671   6.223  0.00  0.00    +0.031 C 
ATOM     33  C   UNL     1       4.691  -7.388   4.545  0.00  0.00    +0.031 C 
ENDBRANCH  27  30
BRANCH  28  34
ATOM     34  C   UNL     1       2.898  -6.339   6.848  0.00  0.00    +0.255 C 
BRANCH  34  35
ATOM     35  O   UNL     1       1.716  -6.553   7.621  0.00  0.00    -0.374 OA
ATOM     36  C   UNL     1       1.924  -7.340   8.796  0.00  0.00    +0.194 C 
ENDBRANCH  34  35
ENDBRANCH  28  34
ENDBRANCH   1  27
TORSDOF 10
