REMARK  Name = ZINC08797179
REMARK  14 active torsions:
REMARK  status: ('A' for Active; 'I' for Inactive)
REMARK    1  A    between atoms: C_1  and  C_2
REMARK    2  A    between atoms: C_2  and  C_3
REMARK    3  A    between atoms: C_3  and  C_4
REMARK    4  A    between atoms: C_4  and  N_5
REMARK    5  A    between atoms: N_5  and  C_6
REMARK    6  A    between atoms: N_5  and  S_8
REMARK    7  A    between atoms: C_6  and  C_7
REMARK    8  A    between atoms: S_8  and  C_11
REMARK    9  A    between atoms: C_14  and  C_17
REMARK   10  A    between atoms: C_17  and  N_19
REMARK   11  A    between atoms: N_21  and  C_33
REMARK   12  A    between atoms: C_25  and  N_29
REMARK   13  A    between atoms: C_30  and  C_32
REMARK   14  A    between atoms: C_33  and  C_34
REMARK                            x       y       z     vdW  Elec       q    Type
REMARK                         _______ _______ _______ _____ _____    ______ ____
ROOT
ATOM      1  C   UNL     1      -7.875   1.824   0.063  0.00  0.00    +0.269 C 
ATOM      2  O   UNL     1      -7.431   0.713  -0.167  0.00  0.00    -0.268 OA
ENDROOT
BRANCH   1   3
ATOM      3  N   UNL     1      -7.062   2.885   0.045  0.00  0.00    -0.152 NA
ATOM      4  C   UNL     1      -5.770   2.728  -0.224  0.00  0.00    +0.167 A 
ATOM      5  N   UNL     1      -4.800   3.678  -0.286  0.00  0.00    -0.321 N 
ATOM      6  C   UNL     1      -3.496   3.321  -0.584  0.00  0.00    +0.058 A 
ATOM      7  C   UNL     1      -2.370   4.152  -0.693  0.00  0.00    +0.029 A 
ATOM      8  C   UNL     1      -1.135   3.629  -0.993  0.00  0.00    +0.025 A 
ATOM      9  C   UNL     1      -0.964   2.265  -1.209  0.00  0.00    +0.035 A 
ATOM     10  C   UNL     1      -2.064   1.422  -1.107  0.00  0.00    +0.040 A 
ATOM     11  C   UNL     1      -3.296   1.950  -0.801  0.00  0.00    +0.041 A 
ATOM     12  S   UNL     1      -4.917   1.260  -0.578  0.00  0.00    -0.052 S 
BRANCH   9  13
ATOM     13  N   UNL     1       0.300   1.749  -1.519  0.00  0.00    -0.286 N 
ATOM     14  C   UNL     1       1.164   2.477  -2.253  0.00  0.00    +0.214 C 
ATOM     15  O   UNL     1       0.817   3.542  -2.719  0.00  0.00    -0.276 OA
ATOM     16  C   UNL     1       2.562   1.969  -2.495  0.00  0.00    +0.109 C 
ATOM     17  H   UNL     1       0.552   0.865  -1.209  0.00  0.00    +0.155 HD
ENDBRANCH   9  13
BRANCH   5  18
ATOM     18  C   UNL     1      -5.135   5.083  -0.039  0.00  0.00    +0.121 C 
ATOM     19  C   UNL     1      -6.520   5.386  -0.614  0.00  0.00    +0.027 C 
ENDBRANCH   5  18
ENDBRANCH   1   3
BRANCH   1  23
ATOM     20  C   UNL     1     -12.006   2.328   0.923  0.00  0.00    +0.106 A 
ATOM     21  C   UNL     1     -11.506   1.065   0.662  0.00  0.00    +0.029 A 
ATOM     22  C   UNL     1     -10.165   0.895   0.383  0.00  0.00    +0.015 A 
ATOM     23  C   UNL     1      -9.315   2.000   0.363  0.00  0.00    +0.039 A 
ATOM     24  C   UNL     1      -9.824   3.270   0.632  0.00  0.00    +0.015 A 
ATOM     25  C   UNL     1     -11.167   3.428   0.905  0.00  0.00    +0.029 A 
BRANCH  20  26
ATOM     26  S   UNL     1     -13.719   2.536   1.281  0.00  0.00    +0.061 S 
ATOM     27  O   UNL     1     -14.042   3.881   0.953  0.00  0.00    -0.153 OA
ATOM     28  O   UNL     1     -14.393   1.428   0.701  0.00  0.00    -0.153 OA
BRANCH  26  29
ATOM     29  N   UNL     1     -13.898   2.394   2.921  0.00  0.00    -0.177 NA
BRANCH  29  30
ATOM     30  C   UNL     1     -14.156   1.081   3.518  0.00  0.00    +0.106 C 
ATOM     31  C   UNL     1     -12.834   0.460   3.976  0.00  0.00    +0.022 C 
ENDBRANCH  29  30
BRANCH  29  32
ATOM     32  C   UNL     1     -13.798   3.580   3.775  0.00  0.00    +0.109 C 
BRANCH  32  33
ATOM     33  C   UNL     1     -15.198   4.138   4.038  0.00  0.00    +0.017 C 
BRANCH  33  35
ATOM     34  C   UNL     1     -16.494   5.935   5.193  0.00  0.00    +0.004 C 
ATOM     35  C   UNL     1     -15.094   5.377   4.930  0.00  0.00    -0.002 C 
ENDBRANCH  33  35
ENDBRANCH  32  33
ENDBRANCH  29  32
ENDBRANCH  26  29
ENDBRANCH  20  26
ENDBRANCH   1  23
TORSDOF 10
