REMARK  Name = ZINC13137872
REMARK  8 active torsions:
REMARK  status: ('A' for Active; 'I' for Inactive)
REMARK    1  A    between atoms: C_1  and  C_2
REMARK    2  A    between atoms: C_6  and  N_8
REMARK    3  A    between atoms: C_17  and  S_18
REMARK    4  A    between atoms: S_18  and  C_19
REMARK    5  A    between atoms: C_19  and  C_21
REMARK    6  A    between atoms: C_19  and  C_24
REMARK    7  A    between atoms: C_21  and  C_22
REMARK    8  A    between atoms: C_21  and  C_23
REMARK                            x       y       z     vdW  Elec       q    Type
REMARK                         _______ _______ _______ _____ _____    ______ ____
ROOT
ATOM      1  N   UNL     1      -6.343   1.089  -1.179  0.00  0.00    -0.255 N 
ATOM      2  C   UNL     1      -7.403   0.390  -0.732  0.00  0.00    +0.268 A 
ATOM      3  O   UNL     1      -8.516   0.889  -0.731  0.00  0.00    -0.267 OA
ATOM      4  C   UNL     1      -7.206  -0.944  -0.254  0.00  0.00    +0.076 A 
ATOM      5  C   UNL     1      -8.205  -1.874   0.277  0.00  0.00    -0.023 A 
ATOM      6  C   UNL     1      -7.765  -3.087   0.666  0.00  0.00    -0.004 A 
ATOM      7  S   UNL     1      -6.020  -3.067   0.354  0.00  0.00    -0.073 S 
ATOM      8  C   UNL     1      -5.886  -1.422  -0.300  0.00  0.00    +0.117 A 
ATOM      9  N   UNL     1      -4.882  -0.683  -0.757  0.00  0.00    -0.215 NA
ATOM     10  C   UNL     1      -5.090   0.543  -1.192  0.00  0.00    +0.178 A 
ATOM     11  C   UNL     1      -8.579  -4.207   1.240  0.00  0.00    +0.043 C 
ATOM     12  C   UNL     1      -9.941  -3.645   1.669  0.00  0.00    +0.005 C 
ATOM     13  C   UNL     1     -10.501  -2.789   0.529  0.00  0.00    +0.005 C 
ATOM     14  C   UNL     1      -9.681  -1.506   0.392  0.00  0.00    +0.037 C 
ENDROOT
BRANCH   1  20
ATOM     15  C   UNL     1      -7.311   4.168  -4.889  0.00  0.00    +0.044 C 
ATOM     16  C   UNL     1      -6.998   3.918  -3.436  0.00  0.00    -0.048 A 
ATOM     17  C   UNL     1      -6.895   4.982  -2.559  0.00  0.00    +0.003 A 
ATOM     18  C   UNL     1      -6.609   4.757  -1.225  0.00  0.00    +0.002 A 
ATOM     19  C   UNL     1      -6.430   3.468  -0.764  0.00  0.00    +0.026 A 
ATOM     20  C   UNL     1      -6.528   2.398  -1.643  0.00  0.00    +0.052 A 
ATOM     21  C   UNL     1      -6.816   2.627  -2.982  0.00  0.00    +0.029 A 
ENDBRANCH   1  20
BRANCH  10  22
ATOM     22  S   UNL     1      -3.734   1.495  -1.792  0.00  0.00    -0.074 S 
BRANCH  22  23
ATOM     23  C   UNL     1      -2.390   0.303  -1.567  0.00  0.00    +0.143 C 
BRANCH  23  24
ATOM     24  C   UNL     1      -1.116   0.870  -2.139  0.00  0.00    +0.234 C 
ATOM     25  O   UNL     1      -0.973   2.070  -2.229  0.00  0.00    -0.274 OA
ATOM     26  N   UNL     1      -0.135   0.041  -2.551  0.00  0.00    -0.239 N 
ATOM     27  C   UNL     1       1.002   0.547  -3.068  0.00  0.00    +0.303 C 
ATOM     28  O   UNL     1       1.145   1.751  -3.158  0.00  0.00    -0.253 OA
ATOM     29  N   UNL     1       1.980  -0.281  -3.484  0.00  0.00    -0.313 N 
ATOM     30  H   UNL     1      -0.250  -0.919  -2.479  0.00  0.00    +0.159 HD
ATOM     31  H   UNL     1       1.865  -1.242  -3.412  0.00  0.00    +0.146 HD
ATOM     32  H   UNL     1       2.798   0.083  -3.856  0.00  0.00    +0.146 HD
ENDBRANCH  23  24
BRANCH  23  33
ATOM     33  C   UNL     1      -2.199   0.025  -0.075  0.00  0.00    +0.005 C 
ATOM     34  C   UNL     1      -1.063  -0.982   0.115  0.00  0.00    +0.009 C 
ATOM     35  C   UNL     1      -1.851   1.329   0.647  0.00  0.00    +0.009 C 
ENDBRANCH  23  33
ENDBRANCH  22  23
ENDBRANCH  10  22
TORSDOF 5
