REMARK  Name = ZINC14328751
REMARK  7 active torsions:
REMARK  status: ('A' for Active; 'I' for Inactive)
REMARK    1  A    between atoms: C_1  and  C_2
REMARK    2  A    between atoms: C_2  and  C_4
REMARK    3  A    between atoms: C_2  and  N_11
REMARK    4  A    between atoms: C_12  and  C_14
REMARK    5  A    between atoms: C_14  and  N_58
REMARK    6  A    between atoms: C_17  and  C_20
REMARK    7  A    between atoms: C_20  and  C_22
REMARK                            x       y       z     vdW  Elec       q    Type
REMARK                         _______ _______ _______ _____ _____    ______ ____
ROOT
ATOM      1  C   UNL     1      -7.417  -0.184  -0.504  0.00  0.00    -0.077 C 
ATOM      2  C   UNL     1      -6.075  -0.917  -0.576  0.00  0.00    -0.007 C 
ATOM      3  C   UNL     1      -4.983  -0.033   0.032  0.00  0.00    +0.057 C 
ATOM      4  C   UNL     1      -5.360   0.315   1.474  0.00  0.00    -0.007 C 
ATOM      5  C   UNL     1      -6.723   1.011   1.487  0.00  0.00    -0.077 C 
ATOM      6  N   UNL     1      -7.734   0.098   0.912  0.00  0.00    +0.385 N 
ATOM      7  H   UNL     1      -7.724  -0.783   1.438  0.00  0.00    -0.081 HD
ENDROOT
BRANCH   3   8
ATOM      8  C   UNL     1      -3.670  -0.773   0.018  0.00  0.00    +0.166 C 
ATOM      9  O   UNL     1      -3.658  -1.986   0.009  0.00  0.00    -0.292 OA
BRANCH   8  10
ATOM     10  C   UNL     1      -2.406  -0.026   0.017  0.00  0.00    +0.021 A 
ATOM     11  C   UNL     1      -2.417   1.374   0.026  0.00  0.00    +0.015 A 
ATOM     12  C   UNL     1      -1.230   2.070   0.019  0.00  0.00    +0.050 A 
ATOM     13  C   UNL     1      -0.017   1.389   0.010  0.00  0.00    +0.162 A 
ATOM     14  C   UNL     1       0.002  -0.004   0.002  0.00  0.00    +0.163 A 
ATOM     15  C   UNL     1      -1.185  -0.711   0.004  0.00  0.00    +0.060 A 
ATOM     16  O   UNL     1       1.181  -0.684  -0.007  0.00  0.00    -0.485 OA
ATOM     17  C   UNL     1       2.347   0.055  -0.387  0.00  0.00    +0.270 C 
ATOM     18  C   UNL     1       2.333   1.393   0.366  0.00  0.00    +0.270 C 
ATOM     19  O   UNL     1       1.142   2.099   0.002  0.00  0.00    -0.485 OA
ENDBRANCH   8  10
ENDBRANCH   3   8
BRANCH   6  20
ATOM     20  C   UNL     1      -9.078   0.704   1.017  0.00  0.00    +0.019 C 
BRANCH  20  22
ATOM     21  N   UNL     1     -10.664   1.281   2.825  0.00  0.00    -0.310 N 
ATOM     22  C   UNL     1      -9.464   0.779   2.471  0.00  0.00    +0.197 C 
ATOM     23  O   UNL     1      -8.695   0.388   3.324  0.00  0.00    -0.278 OA
ATOM     24  H   UNL     1     -11.279   1.594   2.143  0.00  0.00    +0.149 HD
BRANCH  21  26
ATOM     25  C   UNL     1     -10.485   2.643   4.848  0.00  0.00    +0.033 C 
ATOM     26  C   UNL     1     -11.040   1.354   4.239  0.00  0.00    +0.100 C 
BRANCH  26  27
ATOM     27  C   UNL     1     -12.542   1.346   4.361  0.00  0.00    -0.027 A 
ATOM     28  C   UNL     1     -13.311   2.066   3.466  0.00  0.00    +0.006 A 
ATOM     29  C   UNL     1     -14.689   2.055   3.574  0.00  0.00    +0.015 A 
ATOM     30  C   UNL     1     -15.298   1.333   4.585  0.00  0.00    +0.018 A 
ATOM     31  C   UNL     1     -14.527   0.617   5.483  0.00  0.00    +0.015 A 
ATOM     32  C   UNL     1     -13.150   0.624   5.371  0.00  0.00    +0.006 A 
ATOM     33 BR   UNL     1     -17.182   1.325   4.738  0.00  0.00    -0.050 Br
ENDBRANCH  26  27
ENDBRANCH  21  26
ENDBRANCH  20  22
ENDBRANCH   6  20
TORSDOF 6
