REMARK  Name = ZINC39674589
REMARK  7 active torsions:
REMARK  status: ('A' for Active; 'I' for Inactive)
REMARK    1  A    between atoms: C_1  and  C_2
REMARK    2  A    between atoms: C_4  and  C_14
REMARK    3  A    between atoms: C_7  and  C_12
REMARK    4  A    between atoms: C_14  and  C_15
REMARK    5  A    between atoms: C_15  and  N_16
REMARK    6  A    between atoms: C_17  and  C_19
REMARK    7  A    between atoms: C_30  and  C_32
REMARK                            x       y       z     vdW  Elec       q    Type
REMARK                         _______ _______ _______ _____ _____    ______ ____
ROOT
ATOM      1  C   UNL     1       1.369  -1.005  -7.402  0.00  0.00    +0.100 C 
ATOM      2  C   UNL     1       0.058  -1.745  -7.746  0.00  0.00    +0.121 C 
ATOM      3  N   UNL     1       0.252  -2.225  -9.135  0.00  0.00    -0.296 N 
ATOM      4  C   UNL     1       1.667  -2.663  -9.179  0.00  0.00    +0.115 C 
ATOM      5  C   UNL     1       2.424  -1.610  -8.345  0.00  0.00    -0.004 C 
ATOM      6  C   UNL     1       3.534  -2.276  -7.537  0.00  0.00    -0.010 C 
ATOM      7  C   UNL     1       4.599  -2.819  -8.494  0.00  0.00    -0.082 C 
ATOM      8  N   UNL     1       5.144  -1.719  -9.298  0.00  0.00    +0.379 N 
ATOM      9  C   UNL     1       4.088  -1.144 -10.141  0.00  0.00    -0.082 C 
ATOM     10  C   UNL     1       3.002  -0.530  -9.254  0.00  0.00    -0.010 C 
ATOM     11  C   UNL     1      -0.654  -2.256 -10.132  0.00  0.00    +0.248 C 
ATOM     12  O   UNL     1      -1.756  -1.768  -9.968  0.00  0.00    -0.270 OA
ATOM     13  H   UNL     1       5.509  -1.005  -8.685  0.00  0.00    -0.086 HD
ATOM     14  H   UNL     1       5.887  -2.068  -9.884  0.00  0.00    -0.086 HD
ENDROOT
BRANCH  11  15
ATOM     15  C   UNL     1      -0.309  -2.883 -11.425  0.00  0.00    +0.055 A 
ATOM     16  C   UNL     1       0.519  -4.007 -11.460  0.00  0.00    +0.014 A 
ATOM     17  C   UNL     1       0.837  -4.588 -12.670  0.00  0.00    +0.001 A 
ATOM     18  C   UNL     1       0.338  -4.059 -13.848  0.00  0.00    +0.001 A 
ATOM     19  C   UNL     1      -0.482  -2.947 -13.822  0.00  0.00    +0.021 A 
ATOM     20  C   UNL     1      -0.814  -2.358 -12.617  0.00  0.00    +0.053 A 
ATOM     21 CL   UNL     1      -1.851  -0.966 -12.584  0.00  0.00    -0.083 Cl
ENDBRANCH  11  15
BRANCH   1  23
ATOM     22  N   UNL     1       2.589  -0.403  -5.336  0.00  0.00    -0.315 N 
ATOM     23  C   UNL     1       1.749  -1.249  -5.965  0.00  0.00    +0.218 C 
ATOM     24  O   UNL     1       1.298  -2.207  -5.373  0.00  0.00    -0.275 OA
ATOM     25  H   UNL     1       2.950   0.363  -5.809  0.00  0.00    +0.149 HD
BRANCH  22  26
ATOM     26  C   UNL     1       2.958  -0.641  -3.938  0.00  0.00    +0.108 C 
BRANCH  26  27
ATOM     27  C   UNL     1       3.915   0.457  -3.470  0.00  0.00    +0.052 C 
BRANCH  27  30
ATOM     28  C   UNL     1       6.617   1.090  -1.796  0.00  0.00    +0.035 C 
ATOM     29  C   UNL     1       5.217   1.054  -1.179  0.00  0.00    +0.103 C 
ATOM     30  C   UNL     1       4.294   0.213  -2.032  0.00  0.00    -0.037 C 
ATOM     31  C   UNL     1       3.876  -0.807  -1.240  0.00  0.00    +0.000 A 
ATOM     32  C   UNL     1       3.007  -1.902  -1.485  0.00  0.00    +0.028 A 
ATOM     33  C   UNL     1       2.745  -2.813  -0.487  0.00  0.00    +0.052 A 
ATOM     34  C   UNL     1       3.347  -2.682   0.835  0.00  0.00    +0.021 A 
ATOM     35  C   UNL     1       4.181  -1.662   1.125  0.00  0.00    +0.027 A 
ATOM     36  C   UNL     1       4.493  -0.662   0.098  0.00  0.00    +0.043 A 
ATOM     37  N   UNL     1       5.259   0.402   0.134  0.00  0.00    -0.378 N 
ATOM     38  H   UNL     1       5.769   0.708   0.900  0.00  0.00    +0.160 HD
BRANCH  33  39
ATOM     39  C   UNL     1       1.865  -3.911  -0.753  0.00  0.00    +0.099 C 
ATOM     40  N   UNL     1       1.167  -4.783  -0.963  0.00  0.00    -0.191 NA
ENDBRANCH  33  39
ENDBRANCH  27  30
ENDBRANCH  26  27
ENDBRANCH  22  26
ENDBRANCH   1  23
TORSDOF 6
