REMARK  Name = ZINC49729749
REMARK  8 active torsions:
REMARK  status: ('A' for Active; 'I' for Inactive)
REMARK    1  A    between atoms: C_1  and  C_2
REMARK    2  A    between atoms: N_7  and  C_10
REMARK    3  A    between atoms: C_12  and  C_13
REMARK    4  A    between atoms: N_15  and  C_16
REMARK    5  A    between atoms: C_19  and  C_28
REMARK    6  A    between atoms: C_23  and  C_25
REMARK    7  A    between atoms: C_25  and  C_26
REMARK    8  A    between atoms: C_25  and  C_27
REMARK                            x       y       z     vdW  Elec       q    Type
REMARK                         _______ _______ _______ _____ _____    ______ ____
ROOT
ATOM      1  C   UNL     1       0.030  -0.168   2.547  0.00  0.00    +0.251 C 
ATOM      2  O   UNL     1       0.015   1.034   2.738  0.00  0.00    -0.270 OA
ATOM      3  N   UNL     1       0.051  -1.016   3.595  0.00  0.00    -0.308 N 
ATOM      4  H   UNL     1       0.063  -1.974   3.443  0.00  0.00    +0.149 HD
ENDROOT
BRANCH   1  16
ATOM      5  C   UNL     1      -0.018   1.503   0.010  0.00  0.00    +0.046 C 
ATOM      6  C   UNL     1       0.002  -0.004   0.002  0.00  0.00    -0.017 A 
ATOM      7  C   UNL     1       0.005  -0.697  -1.210  0.00  0.00    +0.076 A 
ATOM      8  C   UNL     1       0.025  -2.107  -1.113  0.00  0.00    +0.116 A 
ATOM      9  N   UNL     1       0.029  -2.884  -2.189  0.00  0.00    -0.230 NA
ATOM     10  C   UNL     1       0.015  -2.382  -3.395  0.00  0.00    +0.203 A 
ATOM     11  N   UNL     1      -0.004  -1.044  -3.614  0.00  0.00    -0.302 N 
ATOM     12  C   UNL     1      -0.009  -0.166  -2.592  0.00  0.00    +0.262 A 
ATOM     13  O   UNL     1      -0.027   1.034  -2.800  0.00  0.00    -0.267 OA
ATOM     14  C   UNL     1      -0.018  -0.543  -4.991  0.00  0.00    +0.153 C 
ATOM     15  S   UNL     1       0.038  -2.395   0.638  0.00  0.00    -0.064 S 
ATOM     16  C   UNL     1       0.023  -0.694   1.179  0.00  0.00    +0.079 A 
ENDBRANCH   1  16
BRANCH   3  17
ATOM     17  C   UNL     1       0.058  -0.491   4.963  0.00  0.00    +0.077 C 
ATOM     18  C   UNL     1       1.495  -0.172   5.379  0.00  0.00    +0.026 C 
ATOM     19  C   UNL     1       2.339  -1.446   5.318  0.00  0.00    -0.012 C 
ATOM     20  C   UNL     1       1.753  -2.492   6.269  0.00  0.00    +0.004 C 
ATOM     21  C   UNL     1       0.316  -2.812   5.852  0.00  0.00    +0.006 C 
ATOM     22  C   UNL     1      -0.528  -1.537   5.913  0.00  0.00    +0.012 C 
ATOM     23  C   UNL     1       3.776  -1.127   5.735  0.00  0.00    +0.007 C 
BRANCH  22  24
ATOM     24  C   UNL     1      -1.965  -1.857   5.496  0.00  0.00    -0.012 C 
ATOM     25  C   UNL     1      -2.551  -2.903   6.447  0.00  0.00    +0.007 C 
ATOM     26  C   UNL     1      -2.809  -0.582   5.557  0.00  0.00    +0.007 C 
ENDBRANCH  22  24
ENDBRANCH   3  17
TORSDOF 3
