REMARK  Name = ZINC31037373
REMARK  11 active torsions:
REMARK  status: ('A' for Active; 'I' for Inactive)
REMARK    1  A    between atoms: C_1  and  N_2
REMARK    2  A    between atoms: N_2  and  C_3
REMARK    3  A    between atoms: N_2  and  C_15
REMARK    4  A    between atoms: C_3  and  C_4
REMARK    5  A    between atoms: N_6  and  C_7
REMARK    6  A    between atoms: C_12  and  S_13
REMARK    7  A    between atoms: S_13  and  C_14
REMARK    8  A    between atoms: C_15  and  C_16
REMARK    9  A    between atoms: N_18  and  C_19
REMARK   10  A    between atoms: N_18  and  C_25
REMARK   11  A    between atoms: C_19  and  C_20
REMARK                            x       y       z     vdW  Elec       q    Type
REMARK                         _______ _______ _______ _____ _____    ______ ____
ROOT
ATOM      1  C   UNL     1       4.777   0.021  -0.120  0.00  0.00    +0.204 C 
ATOM      2  O   UNL     1       4.769   1.234  -0.122  0.00  0.00    -0.277 OA
ATOM      3  N   UNL     1       3.621  -0.661   0.003  0.00  0.00    -0.268 N 
ENDROOT
BRANCH   3   4
ATOM      4  C   UNL     1       2.401   0.027   0.024  0.00  0.00    +0.040 A 
ATOM      5  C   UNL     1       1.522  -0.148   1.084  0.00  0.00    +0.027 A 
ATOM      6  C   UNL     1       0.319   0.530   1.105  0.00  0.00    +0.051 A 
ATOM      7  C   UNL     1      -0.015   1.387   0.067  0.00  0.00    +0.162 A 
ATOM      8  C   UNL     1       0.863   1.567  -0.995  0.00  0.00    +0.164 A 
ATOM      9  C   UNL     1       2.070   0.885  -1.016  0.00  0.00    +0.073 A 
ATOM     10  O   UNL     1       0.556   2.411  -2.018  0.00  0.00    -0.485 OA
ATOM     11  C   UNL     1      -0.818   2.789  -2.150  0.00  0.00    +0.270 C 
ATOM     12  C   UNL     1      -1.346   3.176  -0.762  0.00  0.00    +0.270 C 
ATOM     13  O   UNL     1      -1.210   2.041   0.101  0.00  0.00    -0.485 OA
ENDBRANCH   3   4
BRANCH   1  14
ATOM     14  C   UNL     1       6.080  -0.724  -0.255  0.00  0.00    +0.019 C 
BRANCH  14  16
ATOM     15  C   UNL     1       7.086   1.000  -1.625  0.00  0.00    -0.095 C 
ATOM     16  N   UNL     1       7.184   0.238  -0.373  0.00  0.00    +0.389 N 
ATOM     17  H   UNL     1       7.104   0.949   0.462  0.00  0.00    -0.081 HD
BRANCH  16  18
ATOM     18  C   UNL     1       8.485  -0.438  -0.269  0.00  0.00    +0.019 C 
BRANCH  18  19
ATOM     19  C   UNL     1       9.578   0.593  -0.147  0.00  0.00    +0.201 C 
ATOM     20  O   UNL     1       9.301   1.774  -0.148  0.00  0.00    -0.278 OA
ATOM     21  N   UNL     1      10.863   0.202  -0.038  0.00  0.00    -0.286 N 
ATOM     22  H   UNL     1      11.124  -0.862  -0.130  0.00  0.00    +0.155 HD
BRANCH  21  23
ATOM     23  C   UNL     1      11.867   1.152   0.192  0.00  0.00    +0.047 A 
ATOM     24  C   UNL     1      11.556   2.357   0.805  0.00  0.00    +0.024 A 
ATOM     25  C   UNL     1      12.549   3.291   1.036  0.00  0.00    +0.002 A 
ATOM     26  C   UNL     1      13.852   3.032   0.649  0.00  0.00    +0.001 A 
ATOM     27  C   UNL     1      14.170   1.837   0.033  0.00  0.00    +0.016 A 
ATOM     28  C   UNL     1      13.180   0.891  -0.198  0.00  0.00    +0.029 A 
BRANCH  28  29
ATOM     29  S   UNL     1      13.582  -0.634  -0.984  0.00  0.00    -0.127 S 
ATOM     30  C   UNL     1      15.365  -0.511  -1.295  0.00  0.00    +0.090 C 
ENDBRANCH  28  29
ENDBRANCH  21  23
ENDBRANCH  18  19
ENDBRANCH  16  18
ENDBRANCH  14  16
ENDBRANCH   1  14
BRANCH   3  31
ATOM     31  C   UNL     1       3.640  -2.122   0.115  0.00  0.00    +0.156 C 
BRANCH  31  32
ATOM     32  C   UNL     1       3.561  -2.732  -1.260  0.00  0.00    +0.007 A 
ATOM     33  C   UNL     1       4.567  -3.069  -2.104  0.00  0.00    +0.013 A 
ATOM     34  C   UNL     1       4.255  -3.623  -3.331  0.00  0.00    +0.008 A 
ATOM     35  C   UNL     1       2.953  -3.813  -3.655  0.00  0.00    +0.045 A 
ATOM     36  S   UNL     1       2.118  -3.206  -2.198  0.00  0.00    -0.100 S 
ENDBRANCH  31  32
ENDBRANCH   3  31
TORSDOF 9
