REMARK  Name = ZINC20322545
REMARK  6 active torsions:
REMARK  status: ('A' for Active; 'I' for Inactive)
REMARK    1  A    between atoms: C_1  and  C_2
REMARK    2  A    between atoms: C_3  and  C_30
REMARK    3  A    between atoms: C_4  and  C_20
REMARK    4  A    between atoms: C_10  and  C_15
REMARK    5  A    between atoms: C_30  and  O_32
REMARK    6  A    between atoms: O_32  and  C_33
REMARK                            x       y       z     vdW  Elec       q    Type
REMARK                         _______ _______ _______ _____ _____    ______ ____
ROOT
ATOM      1  C   UNL     1       6.021   4.629  -2.739  0.00  0.00    +0.061 C 
ATOM      2  C   UNL     1       5.359   4.373  -1.409  0.00  0.00    +0.016 C 
ATOM      3  C   UNL     1       4.359   3.480  -1.322  0.00  0.00    +0.065 C 
ATOM      4  C   UNL     1       3.671   3.205  -0.017  0.00  0.00    +0.093 C 
ATOM      5  C   UNL     1       4.503   3.689   1.144  0.00  0.00    +0.024 C 
ATOM      6  C   UNL     1       5.498   4.581   0.955  0.00  0.00    +0.016 C 
ATOM      7  N   UNL     1       5.781   5.051  -0.299  0.00  0.00    -0.321 N 
ATOM      8  C   UNL     1       6.325   5.080   2.114  0.00  0.00    +0.062 C 
ATOM      9  C   UNL     1       6.426   3.989   3.181  0.00  0.00    +0.068 C 
ATOM     10  C   UNL     1       5.009   3.614   3.628  0.00  0.00    +0.091 C 
ATOM     11  C   UNL     1       4.213   3.186   2.425  0.00  0.00    +0.162 C 
ATOM     12  O   UNL     1       3.304   2.392   2.562  0.00  0.00    -0.292 OA
ATOM     13  H   UNL     1       6.353   5.984  -0.409  0.00  0.00    +0.152 HD
ENDROOT
BRANCH   4  14
ATOM     14  C   UNL     1       2.340   3.910  -0.000  0.00  0.00    -0.027 A 
ATOM     15  C   UNL     1       2.281   5.265  -0.120  0.00  0.00    +0.005 A 
ATOM     16  C   UNL     1       1.060   5.934  -0.108  0.00  0.00    +0.001 A 
ATOM     17  C   UNL     1      -0.112   5.253   0.025  0.00  0.00    +0.008 A 
ATOM     18  C   UNL     1      -0.091   3.854   0.152  0.00  0.00    -0.018 A 
ATOM     19  C   UNL     1       1.152   3.173   0.139  0.00  0.00    -0.014 A 
ATOM     20  C   UNL     1       1.172   1.773   0.265  0.00  0.00    +0.009 A 
ATOM     21  C   UNL     1       0.001   1.092   0.397  0.00  0.00    +0.001 A 
ATOM     22  C   UNL     1      -1.222   1.762   0.405  0.00  0.00    +0.001 A 
ATOM     23  C   UNL     1      -1.280   3.116   0.290  0.00  0.00    +0.008 A 
ENDBRANCH   4  14
BRANCH   9  24
ATOM     24  C   UNL     1       7.209   4.504   4.361  0.00  0.00    +0.109 A 
ATOM     25  C   UNL     1       8.354   3.982   4.835  0.00  0.00    +0.045 A 
ATOM     26  C   UNL     1       8.739   4.773   5.941  0.00  0.00    +0.041 A 
ATOM     27  C   UNL     1       7.805   5.731   6.078  0.00  0.00    +0.195 A 
ATOM     28  O   UNL     1       6.884   5.568   5.115  0.00  0.00    -0.468 OA
ENDBRANCH   9  24
BRANCH   3  29
ATOM     29  C   UNL     1       3.945   2.786  -2.483  0.00  0.00    +0.338 C 
ATOM     30  O   UNL     1       4.495   3.000  -3.548  0.00  0.00    -0.245 OA
BRANCH  29  31
ATOM     31  O   UNL     1       2.942   1.886  -2.411  0.00  0.00    -0.458 OA
BRANCH  31  32
ATOM     32  C   UNL     1       2.577   1.222  -3.622  0.00  0.00    +0.177 C 
ATOM     33  C   UNL     1       1.432   1.987  -4.319  0.00  0.00    +0.044 C 
ATOM     34  C   UNL     1       0.541   0.871  -4.920  0.00  0.00    +0.004 C 
ATOM     35  C   UNL     1       0.587  -0.227  -3.829  0.00  0.00    +0.004 C 
ATOM     36  C   UNL     1       2.039  -0.185  -3.311  0.00  0.00    +0.044 C 
ENDBRANCH  31  32
ENDBRANCH  29  31
ENDBRANCH   3  29
TORSDOF 5
