REMARK  Name = ZINC39528268
REMARK  6 active torsions:
REMARK  status: ('A' for Active; 'I' for Inactive)
REMARK    1  A    between atoms: C_4  and  C_7
REMARK    2  A    between atoms: C_7  and  C_8
REMARK    3  A    between atoms: C_13  and  N_14
REMARK    4  A    between atoms: C_18  and  S_21
REMARK    5  A    between atoms: S_21  and  O_24
REMARK    6  A    between atoms: O_24  and  C_25
REMARK                            x       y       z     vdW  Elec       q    Type
REMARK                         _______ _______ _______ _____ _____    ______ ____
ROOT
ATOM      1  N   UNL     1       2.992  -3.293   0.668  0.00  0.00    -0.331 N 
ATOM      2  C   UNL     1       3.331  -4.390  -0.252  0.00  0.00    +0.086 C 
ATOM      3  C   UNL     1       2.438  -4.276  -1.492  0.00  0.00    -0.061 C 
ATOM      4  N   UNL     1       1.029  -4.245  -1.079  0.00  0.00    +0.398 N 
ATOM      5  C   UNL     1       0.766  -3.034  -0.290  0.00  0.00    +0.133 C 
ATOM      6  C   UNL     1       1.577  -3.090   1.014  0.00  0.00    +0.115 C 
ATOM      7  H   UNL     1       0.440  -4.246  -1.898  0.00  0.00    -0.083 HD
ATOM      8  H   UNL     1       0.826  -5.060  -0.520  0.00  0.00    -0.083 HD
ENDROOT
BRANCH   1  14
ATOM      9  C   UNL     1       4.447  -1.376   0.484  0.00  0.00    -0.021 A 
ATOM     10  C   UNL     1       5.427  -0.562   1.019  0.00  0.00    +0.021 A 
ATOM     11  C   UNL     1       5.955  -0.841   2.267  0.00  0.00    +0.018 A 
ATOM     12  C   UNL     1       5.503  -1.935   2.983  0.00  0.00    +0.017 A 
ATOM     13  C   UNL     1       4.524  -2.753   2.454  0.00  0.00    +0.024 A 
ATOM     14  C   UNL     1       3.988  -2.472   1.204  0.00  0.00    +0.033 A 
ATOM     15 BR   UNL     1       7.297   0.275   2.994  0.00  0.00    -0.050 Br
BRANCH   9  16
ATOM     16  C   UNL     1       3.873  -1.072  -0.875  0.00  0.00    +0.072 C 
BRANCH  16  20
ATOM     17  C   UNL     1       6.007   2.187  -2.628  0.00  0.00    +0.000 A 
ATOM     18  C   UNL     1       6.452   0.891  -2.810  0.00  0.00    +0.000 A 
ATOM     19  C   UNL     1       5.762  -0.163  -2.243  0.00  0.00    +0.004 A 
ATOM     20  C   UNL     1       4.626   0.078  -1.493  0.00  0.00    -0.043 A 
ATOM     21  C   UNL     1       4.181   1.374  -1.310  0.00  0.00    +0.004 A 
ATOM     22  C   UNL     1       4.871   2.429  -1.879  0.00  0.00    +0.000 A 
ENDBRANCH  16  20
ENDBRANCH   9  16
ENDBRANCH   1  14
BRANCH   5  23
ATOM     23  S   UNL     1      -1.002  -2.941   0.102  0.00  0.00    +0.109 S 
ATOM     24  O   UNL     1      -1.754  -2.700  -1.079  0.00  0.00    -0.138 OA
ATOM     25  O   UNL     1      -1.363  -3.991   0.989  0.00  0.00    -0.138 OA
BRANCH  23  26
ATOM     26  O   UNL     1      -1.153  -1.669   0.925  0.00  0.00    -0.347 OA
BRANCH  26  27
ATOM     27  C   UNL     1      -1.094  -0.526   0.192  0.00  0.00    +0.156 A 
ATOM     28  C   UNL     1       0.122   0.113  -0.001  0.00  0.00    +0.048 A 
ATOM     29  C   UNL     1       0.180   1.275  -0.747  0.00  0.00    +0.004 A 
ATOM     30  C   UNL     1      -0.973   1.800  -1.301  0.00  0.00    +0.000 A 
ATOM     31  C   UNL     1      -2.186   1.165  -1.109  0.00  0.00    +0.004 A 
ATOM     32  C   UNL     1      -2.248   0.000  -0.369  0.00  0.00    +0.048 A 
ENDBRANCH  26  27
ENDBRANCH  23  26
ENDBRANCH   5  23
TORSDOF 6
