REMARK  Name = ZINC40340419
REMARK  12 active torsions:
REMARK  status: ('A' for Active; 'I' for Inactive)
REMARK    1  A    between atoms: C_1  and  C_2
REMARK    2  A    between atoms: C_2  and  C_3
REMARK    3  A    between atoms: C_3  and  C_4
REMARK    4  A    between atoms: C_4  and  N_5
REMARK    5  A    between atoms: C_6  and  C_23
REMARK    6  A    between atoms: C_9  and  C_16
REMARK    7  A    between atoms: C_19  and  C_22
REMARK    8  A    between atoms: C_25  and  O_32
REMARK    9  A    between atoms: C_26  and  O_31
REMARK   10  A    between atoms: C_27  and  O_29
REMARK   11  A    between atoms: O_29  and  C_30
REMARK   12  A    between atoms: O_32  and  C_33
REMARK                            x       y       z     vdW  Elec       q    Type
REMARK                         _______ _______ _______ _____ _____    ______ ____
ROOT
ATOM      1  N   UNL     1       1.425  -2.500  -2.470  0.00  0.00    -0.285 N 
ATOM      2  C   UNL     1       0.792  -2.783  -3.765  0.00  0.00    +0.141 C 
ATOM      3  C   UNL     1       1.897  -3.236  -4.679  0.00  0.00    +0.035 A 
ATOM      4  C   UNL     1       2.267  -3.678  -5.954  0.00  0.00    +0.099 A 
ATOM      5  N   UNL     1       3.569  -3.886  -5.937  0.00  0.00    -0.173 NA
ATOM      6  N   UNL     1       4.058  -3.620  -4.778  0.00  0.00    -0.272 N 
ATOM      7  H   UNL     1       4.994  -3.701  -4.536  0.00  0.00    +0.189 HD
ATOM      8  C   UNL     1       3.063  -3.206  -3.938  0.00  0.00    +0.126 A 
ATOM      9  C   UNL     1       2.743  -2.744  -2.583  0.00  0.00    +0.265 C 
ATOM     10  O   UNL     1       3.554  -2.603  -1.687  0.00  0.00    -0.268 OA
ENDROOT
BRANCH   4  11
ATOM     11  C   UNL     1       1.361  -3.875  -7.113  0.00  0.00    +0.002 A 
ATOM     12  C   UNL     1       0.058  -4.327  -6.912  0.00  0.00    +0.010 A 
ATOM     13  C   UNL     1      -0.780  -4.509  -7.993  0.00  0.00    +0.004 A 
ATOM     14  C   UNL     1      -0.330  -4.243  -9.274  0.00  0.00    -0.050 A 
ATOM     15  C   UNL     1       0.963  -3.795  -9.478  0.00  0.00    +0.004 A 
ATOM     16  C   UNL     1       1.808  -3.604  -8.404  0.00  0.00    +0.010 A 
ATOM     17  C   UNL     1      -1.250  -4.444 -10.450  0.00  0.00    +0.044 C 
ENDBRANCH   4  11
BRANCH   2  18
ATOM     18  C   UNL     1      -0.237  -3.873  -3.613  0.00  0.00    -0.015 A 
ATOM     19  C   UNL     1       0.021  -4.954  -2.791  0.00  0.00    +0.055 A 
ATOM     20  C   UNL     1      -0.923  -5.959  -2.648  0.00  0.00    +0.165 A 
ATOM     21  C   UNL     1      -2.130  -5.879  -3.333  0.00  0.00    +0.201 A 
ATOM     22  C   UNL     1      -2.385  -4.791  -4.158  0.00  0.00    +0.165 A 
ATOM     23  C   UNL     1      -1.438  -3.787  -4.291  0.00  0.00    +0.055 A 
BRANCH  22  24
ATOM     24  O   UNL     1      -3.565  -4.708  -4.830  0.00  0.00    -0.491 OA
ATOM     25  C   UNL     1      -3.759  -3.561  -5.660  0.00  0.00    +0.277 C 
ENDBRANCH  22  24
BRANCH  21  26
ATOM     26  O   UNL     1      -3.059  -6.864  -3.195  0.00  0.00    -0.501 OA
ATOM     27  H   UNL     1      -3.686  -6.716  -2.474  0.00  0.00    +0.292 HD
ENDBRANCH  21  26
BRANCH  20  28
ATOM     28  O   UNL     1      -0.668  -7.023  -1.839  0.00  0.00    -0.491 OA
ATOM     29  C   UNL     1       0.593  -7.039  -1.167  0.00  0.00    +0.277 C 
ENDBRANCH  20  28
ENDBRANCH   2  18
BRANCH   1  30
ATOM     30  C   UNL     1       0.739  -2.027  -1.265  0.00  0.00    +0.109 C 
BRANCH  30  31
ATOM     31  C   UNL     1       0.718  -0.497  -1.257  0.00  0.00    +0.019 C 
BRANCH  31  33
ATOM     32  C   UNL     1      -0.019   1.526   0.010  0.00  0.00    +0.004 C 
ATOM     33  C   UNL     1       0.002  -0.004   0.002  0.00  0.00    -0.002 C 
ENDBRANCH  31  33
ENDBRANCH  30  31
ENDBRANCH   1  30
TORSDOF 8
