REMARK  Name = ZINC11819237
REMARK  7 active torsions:
REMARK  status: ('A' for Active; 'I' for Inactive)
REMARK    1  A    between atoms: C_1  and  C_2
REMARK    2  A    between atoms: C_9  and  C_24
REMARK    3  A    between atoms: C_10  and  C_11
REMARK    4  A    between atoms: C_11  and  N_63
REMARK    5  A    between atoms: C_12  and  C_13
REMARK    6  A    between atoms: C_12  and  N_63
REMARK    7  A    between atoms: C_13  and  C_14
REMARK                            x       y       z     vdW  Elec       q    Type
REMARK                         _______ _______ _______ _____ _____    ______ ____
ROOT
ATOM      1  C   UNL     1       0.032   9.361   0.530  0.00  0.00    +0.044 C 
ATOM      2  C   UNL     1      -0.676   8.032   0.462  0.00  0.00    -0.046 A 
ATOM      3  C   UNL     1      -2.079   7.976   0.530  0.00  0.00    +0.021 A 
ATOM      4  C   UNL     1      -2.716   6.789   0.469  0.00  0.00    +0.093 A 
ATOM      5  N   UNL     1      -2.012   5.625   0.341  0.00  0.00    -0.305 N 
ATOM      6  C   UNL     1      -0.641   5.648   0.271  0.00  0.00    +0.139 A 
ATOM      7  C   UNL     1       0.040   6.884   0.334  0.00  0.00    +0.050 A 
ATOM      8  N   UNL     1      -0.209   4.404   0.150  0.00  0.00    -0.223 NA
ATOM      9  C   UNL     1      -1.266   3.572   0.139  0.00  0.00    +0.146 A 
ATOM     10  C   UNL     1      -2.401   4.323   0.251  0.00  0.00    +0.039 A 
ENDROOT
BRANCH   9  11
ATOM     11  C   UNL     1      -1.209   2.102   0.019  0.00  0.00    +0.267 C 
ATOM     12  O   UNL     1      -2.236   1.461  -0.096  0.00  0.00    -0.268 OA
ATOM     13  N   UNL     1      -0.019   1.470   0.038  0.00  0.00    -0.296 N 
ATOM     14  C   UNL     1       1.187   2.264   0.102  0.00  0.00    +0.108 C 
ATOM     15  C   UNL     1       1.653   2.617  -1.333  0.00  0.00    +0.019 C 
ATOM     16  C   UNL     1       2.182   1.421  -2.006  0.00  0.00    +0.002 C 
ATOM     17  C   UNL     1       1.158   0.307  -2.205  0.00  0.00    +0.002 C 
ATOM     18  C   UNL     1       1.092  -0.539  -0.958  0.00  0.00    +0.019 C 
ATOM     19  C   UNL     1      -0.001  -0.005  -0.014  0.00  0.00    +0.108 C 
ENDBRANCH   9  11
BRANCH  10  20
ATOM     20  C   UNL     1      -3.817   3.808   0.276  0.00  0.00    -0.025 C 
BRANCH  20  21
ATOM     21  N   UNL     1      -4.335   3.753  -1.104  0.00  0.00    +0.383 N 
ATOM     22  H   UNL     1      -3.746   3.125  -1.662  0.00  0.00    -0.085 HD
ATOM     23  H   UNL     1      -4.314   4.695  -1.512  0.00  0.00    -0.085 HD
BRANCH  21  24
ATOM     24  C   UNL     1      -5.723   3.252  -1.110  0.00  0.00    -0.082 C 
BRANCH  24  25
ATOM     25  C   UNL     1      -6.233   3.205  -2.552  0.00  0.00    -0.015 C 
BRANCH  25  26
ATOM     26  C   UNL     1      -7.672   2.686  -2.568  0.00  0.00    -0.005 C 
ATOM     27  C   UNL     1      -7.710   1.178  -2.220  0.00  0.00    +0.011 C 
ATOM     28  C   UNL     1      -8.318   0.519  -3.499  0.00  0.00    +0.012 C 
ATOM     29  C   UNL     1      -9.357   1.622  -3.920  0.00  0.00    +0.015 C 
ATOM     30  C   UNL     1      -8.262   2.747  -4.013  0.00  0.00    +0.015 C 
ATOM     31  C   UNL     1      -7.218   2.025  -4.873  0.00  0.00    -0.027 C 
ATOM     32  C   UNL     1      -7.250   0.741  -4.577  0.00  0.00    -0.027 C 
ENDBRANCH  25  26
ENDBRANCH  24  25
ENDBRANCH  21  24
ENDBRANCH  20  21
ENDBRANCH  10  20
TORSDOF 6
