REMARK  Name = ZINC33785008
REMARK  6 active torsions:
REMARK  status: ('A' for Active; 'I' for Inactive)
REMARK    1  A    between atoms: C_2  and  C_3
REMARK    2  A    between atoms: C_3  and  N_4
REMARK    3  A    between atoms: N_4  and  C_5
REMARK    4  A    between atoms: C_5  and  C_6
REMARK    5  A    between atoms: C_16  and  C_18
REMARK    6  A    between atoms: N_26  and  C_27
REMARK                            x       y       z     vdW  Elec       q    Type
REMARK                         _______ _______ _______ _____ _____    ______ ____
ROOT
ATOM      1  N   UNL     1      -2.815  -1.902   0.613  0.00  0.00    -0.273 N 
ATOM      2  C   UNL     1      -1.534  -1.484   0.625  0.00  0.00    +0.303 C 
ATOM      3  O   UNL     1      -0.632  -2.283   0.455  0.00  0.00    -0.253 OA
ATOM      4  N   UNL     1      -1.251  -0.182   0.827  0.00  0.00    -0.294 N 
ATOM      5  H   UNL     1      -2.067   0.540   0.981  0.00  0.00    +0.151 HD
ENDROOT
BRANCH   4   6
ATOM      6  C   UNL     1       0.141   0.272   0.841  0.00  0.00    +0.037 C 
ATOM      7  C   UNL     1       0.183   1.782   1.086  0.00  0.00    +0.029 C 
ATOM      8  C   UNL     1       1.638   2.256   1.101  0.00  0.00    -0.008 C 
ATOM      9  C   UNL     1       2.291   1.940  -0.246  0.00  0.00    +0.007 C 
ATOM     10  C   UNL     1       2.249   0.431  -0.492  0.00  0.00    -0.008 C 
ATOM     11  C   UNL     1       0.794  -0.044  -0.507  0.00  0.00    +0.029 C 
ATOM     12  C   UNL     1       3.009  -0.289   0.624  0.00  0.00    +0.007 C 
ATOM     13  C   UNL     1       2.356   0.027   1.971  0.00  0.00    -0.008 C 
ATOM     14  C   UNL     1       2.398   1.536   2.217  0.00  0.00    +0.007 C 
ATOM     15  C   UNL     1       0.901  -0.448   1.957  0.00  0.00    +0.029 C 
ENDBRANCH   4   6
BRANCH   1  16
ATOM     16  C   UNL     1      -3.901  -0.941   0.817  0.00  0.00    +0.136 C 
BRANCH  16  18
ATOM     17  C   UNL     1      -5.590  -0.455  -0.877  0.00  0.00    +0.005 C 
ATOM     18  C   UNL     1      -4.334  -0.381  -0.513  0.00  0.00    -0.016 C 
ENDBRANCH  16  18
ENDBRANCH   1  16
BRANCH   1  19
ATOM     19  C   UNL     1      -3.122  -3.318   0.394  0.00  0.00    +0.205 C 
BRANCH  19  20
ATOM     20  C   UNL     1      -3.166  -4.033   1.719  0.00  0.00    +0.234 C 
ATOM     21  O   UNL     1      -2.961  -3.421   2.746  0.00  0.00    -0.274 OA
ATOM     22  N   UNL     1      -3.433  -5.353   1.764  0.00  0.00    -0.289 N 
ATOM     23  C   UNL     1      -3.688  -6.105   0.526  0.00  0.00    +0.114 C 
ATOM     24  C   UNL     1      -2.556  -7.136   0.352  0.00  0.00    +0.062 C 
ATOM     25  C   UNL     1      -2.285  -7.778   1.673  0.00  0.00    -0.003 A 
ATOM     26  C   UNL     1      -2.666  -7.346   2.906  0.00  0.00    -0.012 A 
ATOM     27  C   UNL     1      -2.277  -8.131   3.991  0.00  0.00    +0.013 A 
ATOM     28  C   UNL     1      -1.562  -9.260   3.788  0.00  0.00    +0.046 A 
ATOM     29  S   UNL     1      -1.393  -9.273   2.010  0.00  0.00    -0.101 S 
ATOM     30  C   UNL     1      -3.478  -6.061   3.051  0.00  0.00    +0.137 C 
BRANCH  30  31
ATOM     31  C   UNL     1      -4.906  -6.396   3.399  0.00  0.00    -0.023 A 
ATOM     32  C   UNL     1      -5.625  -7.267   2.601  0.00  0.00    +0.006 A 
ATOM     33  C   UNL     1      -6.933  -7.578   2.923  0.00  0.00    +0.000 A 
ATOM     34  C   UNL     1      -7.525  -7.011   4.036  0.00  0.00    +0.000 A 
ATOM     35  C   UNL     1      -6.807  -6.137   4.830  0.00  0.00    +0.000 A 
ATOM     36  C   UNL     1      -5.498  -5.829   4.512  0.00  0.00    +0.006 A 
ENDBRANCH  30  31
ENDBRANCH  19  20
ENDBRANCH   1  19
TORSDOF 6
