REMARK  Name = ZINC17354571
REMARK  5 active torsions:
REMARK  status: ('A' for Active; 'I' for Inactive)
REMARK    1  A    between atoms: C_1  and  C_2
REMARK    2  A    between atoms: C_4  and  C_24
REMARK    3  A    between atoms: C_9  and  C_12
REMARK    4  A    between atoms: C_17  and  C_23
REMARK    5  A    between atoms: C_19  and  C_22
REMARK                            x       y       z     vdW  Elec       q    Type
REMARK                         _______ _______ _______ _____ _____    ______ ____
ROOT
ATOM      1  C   UNL     1     -10.150   4.076  -1.167  0.00  0.00    +0.044 C 
ATOM      2  C   UNL     1      -8.856   3.303  -1.168  0.00  0.00    -0.048 A 
ATOM      3  C   UNL     1      -8.877   1.920  -1.148  0.00  0.00    +0.010 A 
ATOM      4  C   UNL     1      -7.694   1.207  -1.149  0.00  0.00    -0.007 A 
ATOM      5  C   UNL     1      -6.476   1.874  -1.171  0.00  0.00    +0.147 A 
ATOM      6  C   UNL     1      -6.457   3.264  -1.192  0.00  0.00    +0.073 A 
ATOM      7  C   UNL     1      -7.649   3.975  -1.191  0.00  0.00    +0.030 A 
ATOM      8  N   UNL     1      -5.125   3.701  -1.211  0.00  0.00    -0.302 N 
ATOM      9  C   UNL     1      -4.295   2.489  -1.201  0.00  0.00    +0.320 C 
ATOM     10  O   UNL     1      -5.206   1.387  -1.176  0.00  0.00    -0.463 OA
ATOM     11  C   UNL     1      -7.726  -0.300  -1.127  0.00  0.00    +0.047 C 
ATOM     12  H   UNL     1      -4.649   4.693  -1.230  0.00  0.00    +0.150 HD
ENDROOT
BRANCH   9  13
ATOM     13  C   UNL     1      -3.408   2.467   0.045  0.00  0.00    +0.320 C 
ATOM     14  N   UNL     1      -2.544   1.279   0.032  0.00  0.00    -0.302 N 
ATOM     15  C   UNL     1      -1.225   1.753   0.017  0.00  0.00    +0.073 A 
ATOM     16  C   UNL     1      -0.013   1.076   0.008  0.00  0.00    +0.030 A 
ATOM     17  C   UNL     1       1.175   1.782   0.000  0.00  0.00    -0.048 A 
ATOM     18  C   UNL     1       1.157   3.165   0.007  0.00  0.00    +0.010 A 
ATOM     19  C   UNL     1      -0.045   3.845   0.022  0.00  0.00    -0.007 A 
ATOM     20  C   UNL     1      -1.244   3.144   0.029  0.00  0.00    +0.147 A 
ATOM     21  O   UNL     1      -2.528   3.594   0.043  0.00  0.00    -0.463 OA
ATOM     22  C   UNL     1      -0.056   5.352   0.030  0.00  0.00    +0.047 C 
ATOM     23  C   UNL     1       2.490   1.046  -0.015  0.00  0.00    +0.044 C 
ATOM     24  H   UNL     1      -2.992   0.274   0.034  0.00  0.00    +0.150 HD
ENDBRANCH   9  13
TORSDOF 1
