REMARK  Name = ZINC16293647
REMARK  6 active torsions:
REMARK  status: ('A' for Active; 'I' for Inactive)
REMARK    1  A    between atoms: C_1  and  C_2
REMARK    2  A    between atoms: C_8  and  C_33
REMARK    3  A    between atoms: C_9  and  C_11
REMARK    4  A    between atoms: N_13  and  C_14
REMARK    5  A    between atoms: C_15  and  C_22
REMARK    6  A    between atoms: N_24  and  C_25
REMARK                            x       y       z     vdW  Elec       q    Type
REMARK                         _______ _______ _______ _____ _____    ______ ____
ROOT
ATOM      1  C   UNL     1       1.897  -1.063  -1.206  0.00  0.00    +0.085 A 
ATOM      2  C   UNL     1       1.281  -0.720  -0.014  0.00  0.00    +0.069 A 
ATOM      3  C   UNL     1       1.958  -1.091   1.228  0.00  0.00    -0.023 A 
ATOM      4  C   UNL     1       3.120  -1.750   1.071  0.00  0.00    -0.004 A 
ATOM      5  S   UNL     1       3.337  -1.870  -0.688  0.00  0.00    -0.077 S 
ATOM      6  C   UNL     1       3.749  -2.106   2.391  0.00  0.00    +0.043 C 
ATOM      7  C   UNL     1       2.605  -1.965   3.419  0.00  0.00    +0.010 C 
ATOM      8  C   UNL     1       1.685  -0.940   2.726  0.00  0.00    +0.037 C 
ENDROOT
BRANCH   1  11
ATOM      9  C   UNL     1       2.205  -1.234  -3.547  0.00  0.00    +0.284 C 
ATOM     10  O   UNL     1       3.253  -1.821  -3.356  0.00  0.00    -0.266 OA
ATOM     11  N   UNL     1       1.464  -0.820  -2.499  0.00  0.00    -0.273 N 
ATOM     12  H   UNL     1       0.628  -0.352  -2.651  0.00  0.00    +0.156 HD
BRANCH   9  21
ATOM     13  C   UNL     1       0.868  -0.485 -10.848  0.00  0.00    +0.044 C 
ATOM     14  C   UNL     1       0.738  -0.412  -9.348  0.00  0.00    -0.050 A 
ATOM     15  C   UNL     1      -0.368   0.207  -8.782  0.00  0.00    +0.007 A 
ATOM     16  C   UNL     1      -0.508   0.286  -7.413  0.00  0.00    +0.047 A 
ATOM     17  C   UNL     1       0.467  -0.260  -6.586  0.00  0.00    +0.136 A 
ATOM     18  C   UNL     1       1.586  -0.886  -7.165  0.00  0.00    +0.024 A 
ATOM     19  C   UNL     1       1.708  -0.955  -8.556  0.00  0.00    +0.015 A 
ATOM     20  C   UNL     1       2.410  -1.341  -6.046  0.00  0.00    +0.008 A 
ATOM     21  C   UNL     1       1.746  -0.977  -4.918  0.00  0.00    +0.194 A 
ATOM     22  O   UNL     1       0.604  -0.337  -5.248  0.00  0.00    -0.450 OA
ATOM     23  C   UNL     1       3.726  -2.070  -6.127  0.00  0.00    +0.048 C 
ENDBRANCH   9  21
ENDBRANCH   1  11
BRANCH   2  24
ATOM     24  C   UNL     1       0.002  -0.004   0.002  0.00  0.00    +0.247 C 
ATOM     25  O   UNL     1      -1.044  -0.627   0.009  0.00  0.00    -0.270 OA
ATOM     26  N   UNL     1      -0.016   1.344   0.009  0.00  0.00    -0.307 N 
ATOM     27  H   UNL     1       0.817   1.840   0.004  0.00  0.00    +0.149 HD
BRANCH  26  28
ATOM     28  C   UNL     1      -1.295   2.059   0.019  0.00  0.00    +0.096 C 
ATOM     29  C   UNL     1      -1.800   2.239  -1.422  0.00  0.00    +0.046 C 
ATOM     30  C   UNL     1      -2.966   3.257  -1.449  0.00  0.00    +0.168 C 
ATOM     31  S   UNL     1      -2.596   4.332  -0.003  0.00  0.00    -0.029 S 
ATOM     32  O   UNL     1      -3.648   4.210   0.945  0.00  0.00    -0.174 OA
ATOM     33  O   UNL     1      -2.220   5.621  -0.469  0.00  0.00    -0.174 OA
ATOM     34  C   UNL     1      -1.103   3.470   0.645  0.00  0.00    +0.188 C 
ENDBRANCH  26  28
ENDBRANCH   2  24
TORSDOF 4
