REMARK  Name = ZINC62825444
REMARK  3 active torsions:
REMARK  status: ('A' for Active; 'I' for Inactive)
REMARK    1  A    between atoms: C_5  and  N_10
REMARK    2  A    between atoms: C_6  and  C_7
REMARK    3  A    between atoms: C_11  and  C_15
REMARK                            x       y       z     vdW  Elec       q    Type
REMARK                         _______ _______ _______ _____ _____    ______ ____
ROOT
ATOM      1  C   UNL     1       1.039   1.553  -0.343  0.00  0.00    +0.032 A 
ATOM      2  C   UNL     1       1.256   1.993   0.946  0.00  0.00    +0.020 A 
ATOM      3  C   UNL     1       1.492   1.084   1.965  0.00  0.00    +0.032 A 
ATOM      4  C   UNL     1       1.510  -0.273   1.701  0.00  0.00    +0.045 A 
ATOM      5  C   UNL     1       1.293  -0.733   0.410  0.00  0.00    +0.097 A 
ATOM      6  C   UNL     1       1.055   0.184  -0.624  0.00  0.00    +0.091 A 
ATOM      7 BR   UNL     1       1.833  -1.503   3.101  0.00  0.00    -0.048 Br
ATOM      8 BR   UNL     1       1.235   3.846   1.324  0.00  0.00    -0.050 Br
ENDROOT
BRANCH   5   9
ATOM      9  N   UNL     1       1.313  -2.105   0.142  0.00  0.00    -0.195 N 
ATOM     10  C   UNL     1       2.386  -2.866  -0.167  0.00  0.00    +0.160 A 
ATOM     11  N   UNL     1       1.958  -4.089  -0.339  0.00  0.00    -0.113 NA
ATOM     12  N   UNL     1       0.688  -4.154  -0.161  0.00  0.00    -0.023 NA
ATOM     13  N   UNL     1       0.220  -2.991   0.141  0.00  0.00    -0.039 NA
BRANCH  10  14
ATOM     14  C   UNL     1       3.812  -2.393  -0.289  0.00  0.00    +0.059 C 
ATOM     15  C   UNL     1       4.862  -3.418  -0.721  0.00  0.00    +0.012 C 
ATOM     16  C   UNL     1       4.823  -2.926   0.727  0.00  0.00    +0.012 C 
ENDBRANCH  10  14
ENDBRANCH   5   9
BRANCH   6  17
ATOM     17  C   UNL     1       0.823  -0.293  -1.998  0.00  0.00    +0.389 C 
ATOM     18  O   UNL     1       0.715   0.511  -2.915  0.00  0.00    -0.241 OA
ATOM     19  O   UNL     1       0.737  -1.492  -2.223  0.00  0.00    -0.241 OA
ENDBRANCH   6  17
TORSDOF 3
