REMARK  Name = ZINC39639268
REMARK  10 active torsions:
REMARK  status: ('A' for Active; 'I' for Inactive)
REMARK    1  A    between atoms: C_1  and  C_2
REMARK    2  A    between atoms: C_5  and  C_8
REMARK    3  A    between atoms: C_8  and  C_10
REMARK    4  A    between atoms: C_8  and  N_11
REMARK    5  A    between atoms: C_12  and  C_14
REMARK    6  A    between atoms: C_25  and  C_27
REMARK    7  A    between atoms: C_30  and  O_35
REMARK    8  A    between atoms: C_32  and  O_33
REMARK    9  A    between atoms: O_33  and  C_34
REMARK   10  A    between atoms: O_35  and  C_36
REMARK                            x       y       z     vdW  Elec       q    Type
REMARK                         _______ _______ _______ _____ _____    ______ ____
ROOT
ATOM      1  C   UNL     1       2.460  -6.463   2.005  0.00  0.00    +0.100 C 
ATOM      2  C   UNL     1       1.733  -6.498   3.368  0.00  0.00    +0.121 C 
ATOM      3  N   UNL     1       1.236  -7.888   3.491  0.00  0.00    -0.296 N 
ATOM      4  C   UNL     1       2.332  -8.722   2.941  0.00  0.00    +0.115 C 
ATOM      5  C   UNL     1       2.854  -7.924   1.730  0.00  0.00    -0.004 C 
ATOM      6  C   UNL     1       4.371  -8.052   1.627  0.00  0.00    -0.010 C 
ATOM      7  C   UNL     1       4.735  -9.501   1.296  0.00  0.00    -0.082 C 
ATOM      8  N   UNL     1       4.105  -9.889   0.028  0.00  0.00    +0.379 N 
ATOM      9  C   UNL     1       2.644  -9.852   0.164  0.00  0.00    -0.082 C 
ATOM     10  C   UNL     1       2.191  -8.418   0.447  0.00  0.00    -0.010 C 
ATOM     11  C   UNL     1       0.055  -8.302   3.992  0.00  0.00    +0.250 C 
ATOM     12  O   UNL     1      -0.785  -7.486   4.320  0.00  0.00    -0.270 OA
ATOM     13  H   UNL     1       4.390  -9.248  -0.698  0.00  0.00    -0.086 HD
ATOM     14  H   UNL     1       4.396 -10.823  -0.219  0.00  0.00    -0.086 HD
ENDROOT
BRANCH  11  15
ATOM     15  C   UNL     1      -0.217  -9.741   4.143  0.00  0.00    +0.079 A 
ATOM     16  C   UNL     1       0.815 -10.619   4.489  0.00  0.00    +0.020 A 
ATOM     17  C   UNL     1       0.557 -11.963   4.629  0.00  0.00    +0.046 A 
ATOM     18  C   UNL     1      -0.730 -12.454   4.427  0.00  0.00    +0.124 A 
ATOM     19  C   UNL     1      -1.761 -11.592   4.083  0.00  0.00    +0.092 A 
ATOM     20  C   UNL     1      -1.515 -10.237   3.946  0.00  0.00    +0.136 A 
BRANCH  20  21
ATOM     21  O   UNL     1      -2.523  -9.392   3.615  0.00  0.00    -0.494 OA
ATOM     22  C   UNL     1      -3.818  -9.968   3.430  0.00  0.00    +0.277 C 
ENDBRANCH  20  21
BRANCH  18  23
ATOM     23  O   UNL     1      -0.977 -13.781   4.567  0.00  0.00    -0.495 OA
ATOM     24  C   UNL     1       0.130 -14.612   4.922  0.00  0.00    +0.277 C 
ENDBRANCH  18  23
ENDBRANCH  11  15
BRANCH   1  26
ATOM     25  N   UNL     1       2.030  -5.280  -0.125  0.00  0.00    -0.308 N 
ATOM     26  C   UNL     1       1.533  -5.958   0.929  0.00  0.00    +0.219 C 
ATOM     27  O   UNL     1       0.340  -6.162   1.011  0.00  0.00    -0.275 OA
ATOM     28  H   UNL     1       2.983  -5.117  -0.191  0.00  0.00    +0.149 HD
BRANCH  25  29
ATOM     29  C   UNL     1       1.128  -4.789  -1.171  0.00  0.00    +0.100 C 
ATOM     30  C   UNL     1       0.555  -3.433  -0.755  0.00  0.00    +0.033 C 
BRANCH  29  35
ATOM     31  C   UNL     1       4.055  -4.204  -6.119  0.00  0.00    +0.044 C 
ATOM     32  C   UNL     1       3.292  -4.357  -4.829  0.00  0.00    -0.050 A 
ATOM     33  C   UNL     1       2.004  -4.860  -4.842  0.00  0.00    +0.004 A 
ATOM     34  C   UNL     1       1.304  -5.000  -3.659  0.00  0.00    +0.006 A 
ATOM     35  C   UNL     1       1.892  -4.637  -2.461  0.00  0.00    -0.027 A 
ATOM     36  C   UNL     1       3.180  -4.136  -2.447  0.00  0.00    +0.006 A 
ATOM     37  C   UNL     1       3.881  -3.999  -3.630  0.00  0.00    +0.004 A 
ENDBRANCH  29  35
ENDBRANCH  25  29
ENDBRANCH   1  26
TORSDOF 6
