REMARK  Name = ZINC02353526
REMARK  8 active torsions:
REMARK  status: ('A' for Active; 'I' for Inactive)
REMARK    1  A    between atoms: C_1  and  C_2
REMARK    2  A    between atoms: C_2  and  C_3
REMARK    3  A    between atoms: C_6  and  N_9
REMARK    4  A    between atoms: C_18  and  C_20
REMARK    5  A    between atoms: N_22  and  C_23
REMARK    6  A    between atoms: C_26  and  C_29
REMARK    7  A    between atoms: C_30  and  C_31
REMARK    8  A    between atoms: C_30  and  N_67
REMARK                            x       y       z     vdW  Elec       q    Type
REMARK                         _______ _______ _______ _____ _____    ______ ____
ROOT
ATOM      1  N   UNL     1       5.779   6.294  -0.757  0.00  0.00    -0.292 N 
ATOM      2  C   UNL     1       6.406   6.723   0.495  0.00  0.00    +0.041 C 
ATOM      3  C   UNL     1       4.226   6.678   1.539  0.00  0.00    +0.035 C 
ATOM      4  N   UNL     1       3.663   6.199   0.275  0.00  0.00    -0.309 N 
ATOM      5  C   UNL     1       4.419   6.232  -0.861  0.00  0.00    +0.179 C 
ATOM      6  N   UNL     1       3.846   6.183  -2.051  0.00  0.00    -0.151 NA
ATOM      7  C   UNL     1       2.529   6.192  -2.202  0.00  0.00    +0.241 C 
ATOM      8  O   UNL     1       2.055   6.095  -3.318  0.00  0.00    -0.274 OA
ATOM      9  C   UNL     1       1.608   6.321  -1.016  0.00  0.00    +0.129 C 
ATOM     10  C   UNL     1       2.287   5.698   0.211  0.00  0.00    +0.169 C 
ATOM     11  N   UNL     1       5.622   6.199   1.631  0.00  0.00    +0.403 N 
ATOM     12  H   UNL     1       5.627   5.173   1.597  0.00  0.00    -0.077 HD
ENDROOT
BRANCH   1  16
ATOM     13  C   UNL     1       8.155   5.256  -4.017  0.00  0.00    -0.048 A 
ATOM     14  C   UNL     1       7.225   4.357  -3.528  0.00  0.00    +0.005 A 
ATOM     15  C   UNL     1       6.436   4.698  -2.447  0.00  0.00    +0.024 A 
ATOM     16  C   UNL     1       6.577   5.945  -1.851  0.00  0.00    +0.034 A 
ATOM     17  C   UNL     1       7.508   6.847  -2.349  0.00  0.00    +0.024 A 
ATOM     18  C   UNL     1       8.299   6.498  -3.427  0.00  0.00    +0.005 A 
BRANCH  13  20
ATOM     19  C   UNL     1       8.313   5.294  -6.492  0.00  0.00    +0.009 C 
ATOM     20  C   UNL     1       9.015   4.881  -5.197  0.00  0.00    +0.032 C 
ENDBRANCH  13  20
ENDBRANCH   1  16
BRANCH  10  21
ATOM     21  C   UNL     1       2.296   4.197   0.080  0.00  0.00    +0.238 C 
ATOM     22  O   UNL     1       3.350   3.596   0.066  0.00  0.00    -0.273 OA
ATOM     23  N   UNL     1       1.135   3.522  -0.022  0.00  0.00    -0.284 N 
ATOM     24  H   UNL     1       0.295   4.006  -0.074  0.00  0.00    +0.155 HD
BRANCH  23  25
ATOM     25  C   UNL     1       1.139   2.123  -0.053  0.00  0.00    +0.033 A 
ATOM     26  C   UNL     1       0.109   1.411   0.548  0.00  0.00    +0.023 A 
ATOM     27  C   UNL     1       0.116   0.030   0.515  0.00  0.00    +0.005 A 
ATOM     28  C   UNL     1       1.146  -0.643  -0.115  0.00  0.00    -0.050 A 
ATOM     29  C   UNL     1       2.173   0.063  -0.714  0.00  0.00    +0.005 A 
ATOM     30  C   UNL     1       2.173   1.444  -0.684  0.00  0.00    +0.023 A 
ATOM     31  C   UNL     1       1.150  -2.150  -0.149  0.00  0.00    +0.044 C 
ENDBRANCH  23  25
ENDBRANCH  10  21
BRANCH  11  32
ATOM     32  C   UNL     1       6.226   6.640   2.909  0.00  0.00    -0.039 C 
BRANCH  32  33
ATOM     33  C   UNL     1       7.559   5.959   3.081  0.00  0.00    -0.064 A 
ATOM     34  C   UNL     1       7.632   4.734   3.719  0.00  0.00    +0.002 A 
ATOM     35  C   UNL     1       8.854   4.107   3.872  0.00  0.00    +0.000 A 
ATOM     36  C   UNL     1      10.005   4.708   3.397  0.00  0.00    +0.000 A 
ATOM     37  C   UNL     1       9.932   5.935   2.764  0.00  0.00    +0.000 A 
ATOM     38  C   UNL     1       8.710   6.560   2.606  0.00  0.00    +0.002 A 
ENDBRANCH  32  33
ENDBRANCH  11  32
TORSDOF 6
