REMARK  Name = ZINC35992301
REMARK  11 active torsions:
REMARK  status: ('A' for Active; 'I' for Inactive)
REMARK    1  A    between atoms: C_1  and  C_2
REMARK    2  A    between atoms: C_2  and  O_3
REMARK    3  A    between atoms: O_3  and  C_4
REMARK    4  A    between atoms: C_4  and  C_6
REMARK    5  A    between atoms: C_7  and  C_20
REMARK    6  A    between atoms: N_8  and  C_19
REMARK    7  A    between atoms: C_12  and  C_14
REMARK    8  A    between atoms: C_20  and  N_21
REMARK    9  A    between atoms: N_24  and  S_27
REMARK   10  A    between atoms: S_27  and  C_30
REMARK   11  A    between atoms: C_33  and  C_36
REMARK                            x       y       z     vdW  Elec       q    Type
REMARK                         _______ _______ _______ _____ _____    ______ ____
ROOT
ATOM      1  C   UNL     1       0.632  -2.783  -3.130  0.00  0.00    +0.080 C 
ATOM      2  C   UNL     1       1.495  -3.758  -2.769  0.00  0.00    +0.041 C 
ATOM      3  N   UNL     1       2.775  -3.778  -3.245  0.00  0.00    -0.260 N 
ATOM      4  C   UNL     1       3.269  -2.860  -4.085  0.00  0.00    +0.307 C 
ATOM      5  O   UNL     1       4.423  -2.961  -4.455  0.00  0.00    -0.252 OA
ATOM      6  N   UNL     1       2.529  -1.827  -4.535  0.00  0.00    -0.288 N 
ATOM      7  C   UNL     1       1.131  -1.718  -4.085  0.00  0.00    +0.144 C 
ATOM      8  C   UNL     1       3.656  -4.864  -2.812  0.00  0.00    +0.139 C 
ATOM      9  H   UNL     1       2.908  -1.172  -5.143  0.00  0.00    +0.151 HD
ENDROOT
BRANCH   7  10
ATOM     10  C   UNL     1       0.967  -0.379  -3.413  0.00  0.00    -0.015 A 
ATOM     11  C   UNL     1      -0.110   0.432  -3.718  0.00  0.00    +0.013 A 
ATOM     12  C   UNL     1      -0.227   1.631  -3.096  0.00  0.00    +0.045 A 
ATOM     13  S   UNL     1       1.213   1.642  -2.041  0.00  0.00    -0.105 S 
ATOM     14  C   UNL     1       1.871   0.046  -2.496  0.00  0.00    +0.051 A 
ENDBRANCH   7  10
BRANCH   1  15
ATOM     15  C   UNL     1      -0.694  -2.762  -2.639  0.00  0.00    +0.339 C 
ATOM     16  O   UNL     1      -1.099  -3.673  -1.941  0.00  0.00    -0.245 OA
BRANCH  15  17
ATOM     17  O   UNL     1      -1.510  -1.731  -2.943  0.00  0.00    -0.462 OA
BRANCH  17  19
ATOM     18  C   UNL     1      -3.606  -0.531  -2.861  0.00  0.00    +0.048 C 
ATOM     19  C   UNL     1      -2.836  -1.774  -2.412  0.00  0.00    +0.229 C 
ENDBRANCH  17  19
ENDBRANCH  15  17
ENDBRANCH   1  15
BRANCH   2  20
ATOM     20  C   UNL     1       1.038  -4.840  -1.826  0.00  0.00    +0.136 C 
BRANCH  20  21
ATOM     21  N   UNL     1       0.270  -5.847  -2.571  0.00  0.00    -0.294 NA
ATOM     22  C   UNL     1       1.111  -6.518  -3.570  0.00  0.00    +0.102 C 
ATOM     23  C   UNL     1       0.237  -7.425  -4.443  0.00  0.00    +0.125 C 
ATOM     24  N   UNL     1      -0.524  -8.326  -3.565  0.00  0.00    -0.174 NA
ATOM     25  C   UNL     1      -1.284  -7.736  -2.453  0.00  0.00    +0.125 C 
ATOM     26  C   UNL     1      -0.350  -6.817  -1.658  0.00  0.00    +0.102 C 
BRANCH  24  27
ATOM     27  S   UNL     1      -0.525  -9.962  -3.822  0.00  0.00    +0.061 S 
ATOM     28  O   UNL     1      -1.715 -10.465  -3.231  0.00  0.00    -0.153 OA
ATOM     29  O   UNL     1      -0.214 -10.158  -5.195  0.00  0.00    -0.153 OA
BRANCH  27  30
ATOM     30  C   UNL     1       0.818 -10.635  -2.901  0.00  0.00    +0.105 A 
ATOM     31  C   UNL     1       2.068 -10.746  -3.482  0.00  0.00    +0.029 A 
ATOM     32  C   UNL     1       3.121 -11.274  -2.760  0.00  0.00    +0.005 A 
ATOM     33  C   UNL     1       2.925 -11.691  -1.456  0.00  0.00    -0.050 A 
ATOM     34  C   UNL     1       1.676 -11.579  -0.875  0.00  0.00    +0.005 A 
ATOM     35  C   UNL     1       0.624 -11.047  -1.596  0.00  0.00    +0.029 A 
ATOM     36  C   UNL     1       4.074 -12.267  -0.669  0.00  0.00    +0.044 C 
ENDBRANCH  27  30
ENDBRANCH  24  27
ENDBRANCH  20  21
ENDBRANCH   2  20
TORSDOF 8
