REMARK  Name = ZINC19970342
REMARK  4 active torsions:
REMARK  status: ('A' for Active; 'I' for Inactive)
REMARK    1  A    between atoms: C_6  and  C_7
REMARK    2  A    between atoms: C_7  and  C_9
REMARK    3  A    between atoms: C_7  and  N_19
REMARK    4  A    between atoms: C_11  and  N_16
REMARK                            x       y       z     vdW  Elec       q    Type
REMARK                         _______ _______ _______ _____ _____    ______ ____
ROOT
ATOM      1  C   UNL     1       2.490   1.045  -0.017  0.00  0.00    -0.013 C 
ENDROOT
BRANCH   1   7
ATOM      2  C   UNL     1      -0.013   1.076   0.008  0.00  0.00    +0.005 A 
ATOM      3  C   UNL     1      -1.220   1.750   0.017  0.00  0.00    +0.041 A 
ATOM      4  C   UNL     1      -1.239   3.134   0.031  0.00  0.00    +0.158 A 
ATOM      5  C   UNL     1      -0.047   3.842   0.023  0.00  0.00    +0.159 A 
ATOM      6  C   UNL     1       1.159   3.165   0.008  0.00  0.00    +0.043 A 
ATOM      7  C   UNL     1       1.175   1.782   0.000  0.00  0.00    -0.055 A 
ATOM      8  F   UNL     1      -0.064   5.193   0.030  0.00  0.00    -0.202 F 
ATOM      9  F   UNL     1      -2.418   3.793   0.045  0.00  0.00    -0.202 F 
ENDBRANCH   1   7
BRANCH   1  10
ATOM     10  C   UNL     1       3.062   1.006   1.377  0.00  0.00    -0.054 A 
ATOM     11  C   UNL     1       2.923  -0.131   2.150  0.00  0.00    +0.035 A 
ATOM     12  C   UNL     1       3.447  -0.167   3.428  0.00  0.00    +0.128 A 
ATOM     13  C   UNL     1       4.112   0.934   3.934  0.00  0.00    +0.052 A 
ATOM     14  C   UNL     1       4.252   2.072   3.161  0.00  0.00    +0.043 A 
ATOM     15  C   UNL     1       3.731   2.106   1.880  0.00  0.00    +0.022 A 
ATOM     16 CL   UNL     1       5.087   3.456   3.796  0.00  0.00    -0.083 Cl
BRANCH  12  17
ATOM     17  N   UNL     1       3.297  -1.385   4.256  0.00  0.00    +0.056 N 
ATOM     18  O   UNL     1       2.711  -2.356   3.810  0.00  0.00    -0.126 OA
ATOM     19  O   UNL     1       3.759  -1.417   5.382  0.00  0.00    -0.126 OA
ENDBRANCH  12  17
ENDBRANCH   1  10
BRANCH   1  20
ATOM     20  N   UNL     1       3.427   1.736  -0.912  0.00  0.00    +0.385 N 
ATOM     21  H   UNL     1       4.386   1.198  -0.924  0.00  0.00    -0.089 HD
ATOM     22  H   UNL     1       3.587   2.763  -0.553  0.00  0.00    -0.089 HD
ATOM     23  H   UNL     1       3.009   1.764  -1.929  0.00  0.00    -0.089 HD
ENDBRANCH   1  20
TORSDOF 4
