REMARK  Name = ZINC33528291
REMARK  12 active torsions:
REMARK  status: ('A' for Active; 'I' for Inactive)
REMARK    1  A    between atoms: C_1  and  C_2
REMARK    2  A    between atoms: C_2  and  C_3
REMARK    3  A    between atoms: C_3  and  O_4
REMARK    4  A    between atoms: O_4  and  C_5
REMARK    5  A    between atoms: C_8  and  C_14
REMARK    6  A    between atoms: C_10  and  O_11
REMARK    7  A    between atoms: O_11  and  C_12
REMARK    8  A    between atoms: C_12  and  C_13
REMARK    9  A    between atoms: C_16  and  C_29
REMARK   10  A    between atoms: N_20  and  C_21
REMARK   11  A    between atoms: C_21  and  C_22
REMARK   12  A    between atoms: C_29  and  C_31
REMARK                            x       y       z     vdW  Elec       q    Type
REMARK                         _______ _______ _______ _____ _____    ______ ____
ROOT
ATOM      1  C   UNL     1       1.629   2.876   0.163  0.00  0.00    +0.145 C 
ATOM      2  C   UNL     1       1.934   3.594   1.457  0.00  0.00    +0.079 C 
ATOM      3  C   UNL     1       3.097   4.259   1.270  0.00  0.00    +0.249 C 
ATOM      4  C   UNL     1       3.582   4.013  -0.103  0.00  0.00    +0.288 C 
ATOM      5  O   UNL     1       4.603   4.473  -0.574  0.00  0.00    -0.266 OA
ATOM      6  N   UNL     1       2.727   3.204  -0.754  0.00  0.00    -0.279 N 
ATOM      7  O   UNL     1       3.717   5.029   2.195  0.00  0.00    -0.282 OA
ENDROOT
BRANCH   1  11
ATOM      8  C   UNL     1       1.471  -1.346   0.821  0.00  0.00    +0.162 A 
ATOM      9  C   UNL     1       0.338  -0.664   0.409  0.00  0.00    +0.050 A 
ATOM     10  C   UNL     1       0.392   0.701   0.197  0.00  0.00    +0.009 A 
ATOM     11  C   UNL     1       1.575   1.388   0.395  0.00  0.00    -0.019 A 
ATOM     12  C   UNL     1       2.710   0.713   0.806  0.00  0.00    +0.055 A 
ATOM     13  C   UNL     1       2.662  -0.655   1.021  0.00  0.00    +0.162 A 
BRANCH   8  14
ATOM     14  O   UNL     1       1.419  -2.689   1.030  0.00  0.00    -0.488 OA
BRANCH  14  15
ATOM     15  C   UNL     1       0.163  -3.333   0.806  0.00  0.00    +0.229 C 
BRANCH  15  17
ATOM     16  C   UNL     1      -1.046  -5.519   0.850  0.00  0.00    +0.007 C 
ATOM     17  C   UNL     1       0.299  -4.830   1.091  0.00  0.00    +0.038 C 
ENDBRANCH  15  17
ENDBRANCH  14  15
ENDBRANCH   8  14
BRANCH  13  18
ATOM     18  O   UNL     1       3.777  -1.321   1.426  0.00  0.00    -0.489 OA
BRANCH  18  19
ATOM     19  C   UNL     1       4.993  -0.573   1.486  0.00  0.00    +0.226 C 
ATOM     20  C   UNL     1       6.149  -1.507   1.847  0.00  0.00    +0.048 C 
ENDBRANCH  18  19
ENDBRANCH  13  18
ENDBRANCH   1  11
BRANCH   2  21
ATOM     21  C   UNL     1       1.124   3.573   2.681  0.00  0.00    +0.230 C 
ATOM     22  O   UNL     1       1.548   4.089   3.700  0.00  0.00    -0.283 OA
BRANCH  21  23
ATOM     23  C   UNL     1      -0.194   2.932   2.677  0.00  0.00    +0.175 A 
ATOM     24  C   UNL     1      -1.001   2.728   3.776  0.00  0.00    +0.053 A 
ATOM     25  C   UNL     1      -2.158   2.089   3.308  0.00  0.00    +0.042 A 
ATOM     26  C   UNL     1      -2.012   1.924   1.973  0.00  0.00    +0.196 A 
ATOM     27  O   UNL     1      -0.831   2.432   1.598  0.00  0.00    -0.460 OA
ENDBRANCH  21  23
ENDBRANCH   2  21
BRANCH   6  28
ATOM     28  C   UNL     1       2.867   2.735  -2.135  0.00  0.00    +0.144 C 
BRANCH  28  29
ATOM     29  C   UNL     1       2.192   3.708  -3.067  0.00  0.00    -0.027 A 
ATOM     30  C   UNL     1       0.857   3.556  -3.408  0.00  0.00    +0.025 A 
ATOM     31  C   UNL     1       0.271   4.471  -4.262  0.00  0.00    +0.111 A 
ATOM     32  N   UNL     1       0.969   5.473  -4.759  0.00  0.00    -0.263 NA
ATOM     33  C   UNL     1       2.242   5.646  -4.461  0.00  0.00    +0.111 A 
ATOM     34  C   UNL     1       2.894   4.774  -3.610  0.00  0.00    +0.025 A 
ENDBRANCH  28  29
ENDBRANCH   6  28
TORSDOF 10
