REMARK  Name = ZINC34892060
REMARK  8 active torsions:
REMARK  status: ('A' for Active; 'I' for Inactive)
REMARK    1  A    between atoms: C_1  and  C_2
REMARK    2  A    between atoms: C_5  and  S_23
REMARK    3  A    between atoms: C_7  and  C_8
REMARK    4  A    between atoms: N_10  and  C_11
REMARK    5  A    between atoms: C_11  and  C_13
REMARK    6  A    between atoms: C_11  and  C_14
REMARK    7  A    between atoms: S_23  and  N_26
REMARK    8  A    between atoms: C_31  and  C_33
REMARK                            x       y       z     vdW  Elec       q    Type
REMARK                         _______ _______ _______ _____ _____    ______ ____
ROOT
ATOM      1  C   UNL     1       1.721   1.451   2.296  0.00  0.00    +0.044 C 
ATOM      2  C   UNL     1       1.397   0.092   1.730  0.00  0.00    -0.038 A 
ATOM      3  C   UNL     1       1.176  -0.058   0.376  0.00  0.00    +0.006 A 
ATOM      4  C   UNL     1       0.879  -1.304  -0.145  0.00  0.00    +0.029 A 
ATOM      5  C   UNL     1       0.801  -2.408   0.686  0.00  0.00    +0.106 A 
ATOM      6  C   UNL     1       1.020  -2.272   2.041  0.00  0.00    +0.041 A 
ATOM      7  C   UNL     1       1.326  -1.018   2.573  0.00  0.00    +0.041 A 
ENDROOT
BRANCH   7   8
ATOM      8  C   UNL     1       1.567  -0.865   4.023  0.00  0.00    +0.245 C 
ATOM      9  O   UNL     1       1.780   0.236   4.492  0.00  0.00    -0.270 OA
ATOM     10  N   UNL     1       1.552  -1.948   4.826  0.00  0.00    -0.305 N 
ATOM     11  H   UNL     1       1.383  -2.827   4.452  0.00  0.00    +0.150 HD
BRANCH  10  12
ATOM     12  C   UNL     1       1.792  -1.797   6.264  0.00  0.00    +0.101 C 
ATOM     13  C   UNL     1       3.298  -1.800   6.533  0.00  0.00    +0.033 C 
BRANCH  12  14
ATOM     14  C   UNL     1       1.147  -2.940   7.003  0.00  0.00    -0.024 A 
ATOM     15  C   UNL     1       1.208  -4.220   6.483  0.00  0.00    +0.009 A 
ATOM     16  C   UNL     1       0.618  -5.272   7.158  0.00  0.00    +0.050 A 
ATOM     17  C   UNL     1      -0.037  -5.047   8.358  0.00  0.00    +0.166 A 
ATOM     18  C   UNL     1      -0.099  -3.758   8.882  0.00  0.00    +0.167 A 
ATOM     19  C   UNL     1       0.500  -2.709   8.203  0.00  0.00    +0.055 A 
ATOM     20  O   UNL     1      -0.790  -3.797  10.058  0.00  0.00    -0.453 OA
ATOM     21  C   UNL     1      -1.500  -5.050  10.044  0.00  0.00    +0.466 C 
ATOM     22  O   UNL     1      -0.689  -5.894   9.207  0.00  0.00    -0.453 OA
ENDBRANCH  12  14
ENDBRANCH  10  12
ENDBRANCH   7   8
BRANCH   5  23
ATOM     23  S   UNL     1       0.421  -3.991   0.011  0.00  0.00    +0.061 S 
ATOM     24  O   UNL     1      -0.130  -4.762   1.071  0.00  0.00    -0.153 OA
ATOM     25  O   UNL     1      -0.278  -3.757  -1.204  0.00  0.00    -0.153 OA
BRANCH  23  26
ATOM     26  N   UNL     1       1.857  -4.707  -0.398  0.00  0.00    -0.174 NA
ATOM     27  C   UNL     1       2.364  -4.634  -1.775  0.00  0.00    +0.110 C 
ATOM     28  C   UNL     1       2.660  -6.054  -2.267  0.00  0.00    +0.017 C 
ATOM     29  C   UNL     1       3.609  -6.743  -1.284  0.00  0.00    +0.003 C 
ATOM     30  C   UNL     1       2.942  -6.837   0.090  0.00  0.00    +0.020 C 
ATOM     31  C   UNL     1       2.652  -5.421   0.610  0.00  0.00    +0.077 C 
ATOM     32  C   UNL     1       1.864  -5.505   1.919  0.00  0.00    +0.026 C 
ENDBRANCH  23  26
ENDBRANCH   5  23
TORSDOF 5
