REMARK  Name = ZINC39605778
REMARK  7 active torsions:
REMARK  status: ('A' for Active; 'I' for Inactive)
REMARK    1  A    between atoms: C_1  and  C_2
REMARK    2  A    between atoms: C_2  and  C_3
REMARK    3  A    between atoms: C_3  and  C_5
REMARK    4  A    between atoms: C_3  and  C_6
REMARK    5  A    between atoms: C_6  and  N_7
REMARK    6  A    between atoms: C_8  and  C_10
REMARK    7  A    between atoms: C_21  and  C_23
REMARK                            x       y       z     vdW  Elec       q    Type
REMARK                         _______ _______ _______ _____ _____    ______ ____
ROOT
ATOM      1  C   UNL     1       2.928  -4.255   3.812  0.00  0.00    +0.100 C 
ATOM      2  C   UNL     1       2.204  -3.865   5.121  0.00  0.00    +0.121 C 
ATOM      3  N   UNL     1       1.355  -5.036   5.441  0.00  0.00    -0.296 N 
ATOM      4  C   UNL     1       2.194  -6.207   5.094  0.00  0.00    +0.115 C 
ATOM      5  C   UNL     1       2.922  -5.792   3.800  0.00  0.00    -0.004 C 
ATOM      6  C   UNL     1       2.163  -6.308   2.581  0.00  0.00    -0.010 C 
ATOM      7  C   UNL     1       2.220  -7.838   2.560  0.00  0.00    -0.082 C 
ATOM      8  N   UNL     1       3.620  -8.277   2.512  0.00  0.00    +0.379 N 
ATOM      9  C   UNL     1       4.319  -7.856   3.732  0.00  0.00    -0.082 C 
ATOM     10  C   UNL     1       4.351  -6.327   3.803  0.00  0.00    -0.010 C 
ATOM     11  C   UNL     1       0.101  -5.036   5.937  0.00  0.00    +0.247 C 
ATOM     12  O   UNL     1      -0.436  -6.086   6.231  0.00  0.00    -0.270 OA
ATOM     13  H   UNL     1       3.653  -9.283   2.438  0.00  0.00    -0.086 HD
ATOM     14  H   UNL     1       4.072  -7.868   1.709  0.00  0.00    -0.086 HD
ENDROOT
BRANCH  11  15
ATOM     15  C   UNL     1      -0.620  -3.760   6.122  0.00  0.00    +0.045 A 
ATOM     16  C   UNL     1      -0.010  -2.701   6.804  0.00  0.00    +0.014 A 
ATOM     17  C   UNL     1      -0.680  -1.510   6.978  0.00  0.00    +0.001 A 
ATOM     18  C   UNL     1      -1.964  -1.347   6.481  0.00  0.00    +0.012 A 
ATOM     19  C   UNL     1      -2.587  -2.386   5.801  0.00  0.00    +0.031 A 
ATOM     20  C   UNL     1      -1.915  -3.603   5.611  0.00  0.00    +0.006 A 
ATOM     21  C   UNL     1      -2.800  -4.525   4.856  0.00  0.00    -0.006 A 
ATOM     22  C   UNL     1      -2.622  -5.831   4.419  0.00  0.00    +0.009 A 
ATOM     23  C   UNL     1      -3.633  -6.471   3.719  0.00  0.00    +0.001 A 
ATOM     24  C   UNL     1      -4.820  -5.819   3.451  0.00  0.00    +0.001 A 
ATOM     25  C   UNL     1      -5.013  -4.516   3.880  0.00  0.00    +0.012 A 
ATOM     26  C   UNL     1      -4.009  -3.862   4.583  0.00  0.00    +0.030 A 
ATOM     27  C   UNL     1      -3.925  -2.504   5.172  0.00  0.00    +0.194 C 
ATOM     28  O   UNL     1      -4.783  -1.646   5.133  0.00  0.00    -0.287 OA
ENDBRANCH  11  15
BRANCH   1  30
ATOM     29  N   UNL     1       2.846  -3.397   1.493  0.00  0.00    -0.315 N 
ATOM     30  C   UNL     1       2.179  -3.717   2.619  0.00  0.00    +0.218 C 
ATOM     31  O   UNL     1       0.976  -3.574   2.673  0.00  0.00    -0.275 OA
ATOM     32  H   UNL     1       3.809  -3.512   1.450  0.00  0.00    +0.149 HD
BRANCH  29  33
ATOM     33  C   UNL     1       2.119  -2.875   0.334  0.00  0.00    +0.107 C 
BRANCH  33  34
ATOM     34  C   UNL     1       3.104  -2.593  -0.802  0.00  0.00    +0.003 C 
ATOM     35  C   UNL     1       4.057  -1.472  -0.385  0.00  0.00    +0.009 C 
BRANCH  34  37
ATOM     36  C   UNL     1       3.305  -2.006  -3.223  0.00  0.00    +0.004 C 
ATOM     37  C   UNL     1       2.332  -2.167  -2.053  0.00  0.00    +0.001 C 
ENDBRANCH  34  37
ENDBRANCH  33  34
ENDBRANCH  29  33
ENDBRANCH   1  30
TORSDOF 5
