REMARK  Name = ZINC63362938
REMARK  5 active torsions:
REMARK  status: ('A' for Active; 'I' for Inactive)
REMARK    1  A    between atoms: C_1  and  C_2
REMARK    2  A    between atoms: C_13  and  C_32
REMARK    3  A    between atoms: N_20  and  C_23
REMARK    4  A    between atoms: C_23  and  C_24
REMARK    5  A    between atoms: C_24  and  C_25
REMARK                            x       y       z     vdW  Elec       q    Type
REMARK                         _______ _______ _______ _____ _____    ______ ____
ROOT
ATOM      1  C   UNL     1       0.250   1.565   0.880  0.00  0.00    +0.044 C 
ATOM      2  C   UNL     1       0.178   0.049   0.686  0.00  0.00    +0.135 C 
ATOM      3  C   UNL     1       0.378  -0.172  -0.780  0.00  0.00    +0.139 C 
ATOM      4  C   UNL     1       1.405  -1.271  -0.993  0.00  0.00    -0.027 C 
ATOM      5  C   UNL     1       0.869  -2.129  -1.848  0.00  0.00    -0.000 A 
ATOM      6  C   UNL     1       1.403  -3.338  -2.495  0.00  0.00    +0.010 A 
ATOM      7  C   UNL     1       0.555  -3.999  -3.327  0.00  0.00    +0.001 A 
ATOM      8  C   UNL     1      -0.757  -3.584  -3.577  0.00  0.00    +0.002 A 
ATOM      9  C   UNL     1      -1.329  -2.482  -3.030  0.00  0.00    +0.026 A 
ATOM     10  C   UNL     1      -0.534  -1.700  -2.142  0.00  0.00    +0.043 A 
ATOM     11  N   UNL     1      -0.814  -0.622  -1.497  0.00  0.00    -0.375 N 
ATOM     12  C   UNL     1       2.705  -1.279  -0.227  0.00  0.00    +0.066 C 
ATOM     13  C   UNL     1       2.325  -1.322   1.255  0.00  0.00    +0.121 C 
ATOM     14  N   UNL     1       1.179  -0.495   1.586  0.00  0.00    -0.283 N 
ATOM     15  C   UNL     1       0.971  -0.222   2.917  0.00  0.00    +0.234 C 
ATOM     16  O   UNL     1       1.785  -0.526   3.763  0.00  0.00    -0.274 OA
ATOM     17  C   UNL     1      -0.324   0.476   3.275  0.00  0.00    +0.203 C 
ATOM     18  N   UNL     1      -1.421  -0.138   2.505  0.00  0.00    -0.291 N 
ATOM     19  C   UNL     1      -1.194  -0.339   1.171  0.00  0.00    +0.242 C 
ATOM     20  O   UNL     1      -2.039  -0.796   0.431  0.00  0.00    -0.273 OA
ATOM     21  H   UNL     1      -1.678  -0.182  -1.496  0.00  0.00    +0.160 HD
ENDROOT
BRANCH  12  22
ATOM     22  C   UNL     1       3.490  -0.028  -0.527  0.00  0.00    -0.020 A 
ATOM     23  C   UNL     1       2.889   1.211  -0.410  0.00  0.00    +0.006 A 
ATOM     24  C   UNL     1       3.609   2.358  -0.685  0.00  0.00    +0.000 A 
ATOM     25  C   UNL     1       4.932   2.267  -1.077  0.00  0.00    +0.001 A 
ATOM     26  C   UNL     1       5.534   1.029  -1.195  0.00  0.00    +0.020 A 
ATOM     27  C   UNL     1       4.815  -0.120  -0.914  0.00  0.00    +0.045 A 
ATOM     28 CL   UNL     1       5.573  -1.675  -1.055  0.00  0.00    -0.083 Cl
ENDBRANCH  12  22
BRANCH  18  29
ATOM     29  C   UNL     1      -2.688  -0.513   3.136  0.00  0.00    +0.113 C 
BRANCH  29  30
ATOM     30  C   UNL     1      -3.661   0.666   3.068  0.00  0.00    +0.054 C 
BRANCH  30  31
ATOM     31  C   UNL     1      -4.965   0.279   3.717  0.00  0.00    -0.046 A 
ATOM     32  C   UNL     1      -5.968  -0.300   2.962  0.00  0.00    +0.005 A 
ATOM     33  C   UNL     1      -7.164  -0.654   3.557  0.00  0.00    +0.020 A 
ATOM     34  C   UNL     1      -7.357  -0.430   4.909  0.00  0.00    +0.041 A 
ATOM     35  C   UNL     1      -6.353   0.150   5.664  0.00  0.00    +0.020 A 
ATOM     36  C   UNL     1      -5.156   0.499   5.069  0.00  0.00    +0.005 A 
ATOM     37 CL   UNL     1      -8.860  -0.874   5.657  0.00  0.00    -0.084 Cl
ENDBRANCH  30  31
ENDBRANCH  29  30
ENDBRANCH  18  29
TORSDOF 4
