REMARK  Name = ZINC28052616
REMARK  9 active torsions:
REMARK  status: ('A' for Active; 'I' for Inactive)
REMARK    1  A    between atoms: C_1  and  C_2
REMARK    2  A    between atoms: C_10  and  C_12
REMARK    3  A    between atoms: C_15  and  O_18
REMARK    4  A    between atoms: O_18  and  C_19
REMARK    5  A    between atoms: C_23  and  C_26
REMARK    6  A    between atoms: C_29  and  O_34
REMARK    7  A    between atoms: C_30  and  O_32
REMARK    8  A    between atoms: O_32  and  C_33
REMARK    9  A    between atoms: O_34  and  C_35
REMARK                            x       y       z     vdW  Elec       q    Type
REMARK                         _______ _______ _______ _____ _____    ______ ____
ROOT
ATOM      1  C   UNL     1       8.928  -2.426   0.809  0.00  0.00    +0.069 C 
ATOM      2  C   UNL     1       7.901  -1.743   1.676  0.00  0.00    +0.087 A 
ATOM      3  C   UNL     1       6.928  -0.837   1.264  0.00  0.00    +0.049 A 
ATOM      4  C   UNL     1       6.253  -0.513   2.413  0.00  0.00    +0.226 A 
ATOM      5  O   UNL     1       6.830  -1.202   3.391  0.00  0.00    -0.339 OA
ATOM      6  N   UNL     1       7.744  -1.883   2.969  0.00  0.00    -0.081 NA
ATOM      7  N   UNL     1       5.197   0.374   2.394  0.00  0.00    -0.286 N 
ATOM      8  C   UNL     1       4.641   0.710   1.182  0.00  0.00    +0.019 C 
ATOM      9  C   UNL     1       5.239   0.428   0.005  0.00  0.00    +0.024 C 
ATOM     10  C   UNL     1       6.586  -0.263  -0.073  0.00  0.00    +0.091 C 
ATOM     11  C   UNL     1       4.631   0.770  -1.216  0.00  0.00    +0.162 C 
ATOM     12  O   UNL     1       5.206   0.518  -2.257  0.00  0.00    -0.292 OA
ATOM     13  C   UNL     1       3.287   1.440  -1.265  0.00  0.00    +0.088 C 
ATOM     14  C   UNL     1       2.489   1.046  -0.017  0.00  0.00    +0.032 C 
ATOM     15  C   UNL     1       3.309   1.425   1.218  0.00  0.00    +0.059 C 
ATOM     16  H   UNL     1       4.816   0.797   3.335  0.00  0.00    +0.155 HD
ENDROOT
BRANCH  10  17
ATOM     17  C   UNL     1       7.640   0.736  -0.476  0.00  0.00    -0.035 A 
ATOM     18  C   UNL     1       7.875   1.847   0.312  0.00  0.00    +0.008 A 
ATOM     19  C   UNL     1       8.845   2.761  -0.052  0.00  0.00    +0.046 A 
ATOM     20  C   UNL     1       9.576   2.569  -1.215  0.00  0.00    +0.120 A 
ATOM     21  C   UNL     1       9.335   1.456  -2.007  0.00  0.00    +0.046 A 
ATOM     22  C   UNL     1       8.368   0.542  -1.635  0.00  0.00    +0.008 A 
BRANCH  20  23
ATOM     23  O   UNL     1      10.526   3.470  -1.579  0.00  0.00    -0.495 OA
ATOM     24  C   UNL     1      10.720   4.593  -0.715  0.00  0.00    +0.277 C 
ENDBRANCH  20  23
ENDBRANCH  10  17
BRANCH  14  25
ATOM     25  C   UNL     1       1.175   1.783   0.000  0.00  0.00    -0.040 A 
ATOM     26  C   UNL     1       1.160   3.166   0.008  0.00  0.00    +0.008 A 
ATOM     27  C   UNL     1      -0.043   3.847   0.023  0.00  0.00    +0.049 A 
ATOM     28  C   UNL     1      -1.237   3.144   0.030  0.00  0.00    +0.161 A 
ATOM     29  C   UNL     1      -1.222   1.752   0.017  0.00  0.00    +0.162 A 
ATOM     30  C   UNL     1      -0.013   1.076   0.008  0.00  0.00    +0.053 A 
BRANCH  29  31
ATOM     31  O   UNL     1      -2.391   1.058   0.019  0.00  0.00    -0.491 OA
ATOM     32  C   UNL     1      -2.299  -0.368   0.011  0.00  0.00    +0.277 C 
ENDBRANCH  29  31
BRANCH  28  33
ATOM     33  O   UNL     1      -2.421   3.812   0.044  0.00  0.00    -0.491 OA
ATOM     34  C   UNL     1      -2.361   5.240   0.051  0.00  0.00    +0.277 C 
ENDBRANCH  28  33
ENDBRANCH  14  25
TORSDOF 5
