REMARK  Name = ZINC59057772
REMARK  11 active torsions:
REMARK  status: ('A' for Active; 'I' for Inactive)
REMARK    1  A    between atoms: C_1  and  C_2
REMARK    2  A    between atoms: C_5  and  N_8
REMARK    3  A    between atoms: C_12  and  S_13
REMARK    4  A    between atoms: S_13  and  C_14
REMARK    5  A    between atoms: C_14  and  C_15
REMARK    6  A    between atoms: N_17  and  C_18
REMARK    7  A    between atoms: C_18  and  C_19
REMARK    8  A    between atoms: C_22  and  C_25
REMARK    9  A    between atoms: C_25  and  N_26
REMARK   10  A    between atoms: C_28  and  C_35
REMARK   11  A    between atoms: C_31  and  C_34
REMARK                            x       y       z     vdW  Elec       q    Type
REMARK                         _______ _______ _______ _____ _____    ______ ____
ROOT
ATOM      1  C   UNL     1       4.062  -5.752   3.278  0.00  0.00    +0.224 C 
ATOM      2  O   UNL     1       4.353  -4.604   3.538  0.00  0.00    -0.275 OA
ATOM      3  N   UNL     1       4.753  -6.766   3.836  0.00  0.00    -0.311 N 
ATOM      4  H   UNL     1       4.520  -7.684   3.627  0.00  0.00    +0.149 HD
ENDROOT
BRANCH   1   5
ATOM      5  C   UNL     1       2.927  -6.045   2.331  0.00  0.00    +0.173 C 
BRANCH   5   6
ATOM      6  S   UNL     1       2.202  -4.486   1.754  0.00  0.00    -0.076 S 
BRANCH   6  11
ATOM      7  N   UNL     1       0.058  -4.173  -0.021  0.00  0.00    -0.277 N 
ATOM      8  C   UNL     1      -0.766  -5.008  -0.728  0.00  0.00    +0.230 A 
ATOM      9  N   UNL     1      -0.411  -6.230  -0.449  0.00  0.00    -0.137 NA
ATOM     10  N   UNL     1       0.573  -6.227   0.378  0.00  0.00    -0.122 NA
ATOM     11  C   UNL     1       0.907  -4.992   0.671  0.00  0.00    +0.196 A 
BRANCH   7  16
ATOM     12  C   UNL     1      -0.018   1.503   0.010  0.00  0.00    +0.044 C 
ATOM     13  C   UNL     1       0.002  -0.004   0.002  0.00  0.00    -0.050 A 
ATOM     14  C   UNL     1       0.006  -0.688  -1.200  0.00  0.00    +0.005 A 
ATOM     15  C   UNL     1       0.024  -2.069  -1.211  0.00  0.00    +0.026 A 
ATOM     16  C   UNL     1       0.040  -2.771  -0.013  0.00  0.00    +0.050 A 
ATOM     17  C   UNL     1       0.036  -2.082   1.192  0.00  0.00    +0.026 A 
ATOM     18  C   UNL     1       0.023  -0.700   1.196  0.00  0.00    +0.005 A 
ENDBRANCH   7  16
ENDBRANCH   6  11
ENDBRANCH   5   6
ENDBRANCH   1   5
BRANCH   3  19
ATOM     19  C   UNL     1       5.856  -6.480   4.756  0.00  0.00    +0.139 C 
BRANCH  19  20
ATOM     20  C   UNL     1       6.459  -7.776   5.235  0.00  0.00    -0.030 A 
ATOM     21  C   UNL     1       5.966  -8.388   6.373  0.00  0.00    +0.005 A 
ATOM     22  C   UNL     1       6.519  -9.576   6.812  0.00  0.00    +0.002 A 
ATOM     23  C   UNL     1       7.563 -10.153   6.114  0.00  0.00    -0.064 A 
ATOM     24  C   UNL     1       8.055  -9.541   4.976  0.00  0.00    +0.002 A 
ATOM     25  C   UNL     1       7.500  -8.355   4.534  0.00  0.00    +0.005 A 
BRANCH  23  26
ATOM     26  C   UNL     1       8.166 -11.448   6.594  0.00  0.00    -0.043 C 
BRANCH  26  27
ATOM     27  N   UNL     1       7.455 -12.577   5.978  0.00  0.00    +0.383 N 
ATOM     28  C   UNL     1       7.668 -12.554   4.526  0.00  0.00    -0.075 C 
ATOM     29  C   UNL     1       6.865 -13.679   3.871  0.00  0.00    -0.031 C 
ATOM     30  C   UNL     1       7.328 -15.025   4.435  0.00  0.00    +0.003 C 
ATOM     31  C   UNL     1       7.171 -15.011   5.958  0.00  0.00    -0.031 C 
ATOM     32  C   UNL     1       7.963 -13.836   6.536  0.00  0.00    -0.075 C 
ATOM     33  C   UNL     1       7.703 -16.322   6.540  0.00  0.00    +0.005 C 
ATOM     34  C   UNL     1       5.377 -13.484   4.169  0.00  0.00    +0.005 C 
ATOM     35  H   UNL     1       6.468 -12.498   6.173  0.00  0.00    -0.081 HD
ENDBRANCH  26  27
ENDBRANCH  23  26
ENDBRANCH  19  20
ENDBRANCH   3  19
TORSDOF 8
