REMARK  Name = ZINC09252792
REMARK  5 active torsions:
REMARK  status: ('A' for Active; 'I' for Inactive)
REMARK    1  A    between atoms: C_4  and  C_7
REMARK    2  A    between atoms: C_7  and  C_9
REMARK    3  A    between atoms: C_7  and  N_16
REMARK    4  A    between atoms: C_17  and  C_19
REMARK    5  A    between atoms: C_19  and  N_20
REMARK                            x       y       z     vdW  Elec       q    Type
REMARK                         _______ _______ _______ _____ _____    ______ ____
ROOT
ATOM      1  N   UNL     1      -1.238   3.271   0.913  0.00  0.00    -0.303 N 
ATOM      2  C   UNL     1      -2.351   3.776   1.481  0.00  0.00    +0.232 C 
ATOM      3  O   UNL     1      -3.430   3.273   1.252  0.00  0.00    -0.274 OA
ATOM      4  H   UNL     1      -0.374   3.673   1.097  0.00  0.00    +0.150 HD
ENDROOT
BRANCH   1   5
ATOM      5  C   UNL     1      -1.332   2.114   0.020  0.00  0.00    +0.134 C 
BRANCH   5   6
ATOM      6  C   UNL     1      -0.017   1.378   0.010  0.00  0.00    -0.023 A 
ATOM      7  C   UNL     1       1.171   2.086   0.002  0.00  0.00    +0.007 A 
ATOM      8  C   UNL     1       2.377   1.412  -0.013  0.00  0.00    +0.020 A 
ATOM      9  C   UNL     1       2.397   0.029  -0.021  0.00  0.00    +0.041 A 
ATOM     10  C   UNL     1       1.208  -0.679  -0.013  0.00  0.00    +0.020 A 
ATOM     11  C   UNL     1       0.002  -0.004   0.002  0.00  0.00    +0.007 A 
ATOM     12 CL   UNL     1       3.912  -0.818  -0.039  0.00  0.00    -0.084 Cl
ENDBRANCH   5   6
BRANCH   5  16
ATOM     13  C   UNL     1      -2.253   3.441  -3.935  0.00  0.00    +0.000 A 
ATOM     14  C   UNL     1      -2.848   2.298  -3.433  0.00  0.00    +0.000 A 
ATOM     15  C   UNL     1      -2.550   1.869  -2.153  0.00  0.00    +0.006 A 
ATOM     16  C   UNL     1      -1.657   2.582  -1.375  0.00  0.00    -0.023 A 
ATOM     17  C   UNL     1      -1.066   3.727  -1.875  0.00  0.00    +0.006 A 
ATOM     18  C   UNL     1      -1.360   4.154  -3.157  0.00  0.00    +0.000 A 
ENDBRANCH   5  16
ENDBRANCH   1   5
BRANCH   2  19
ATOM     19  C   UNL     1      -2.254   4.966   2.401  0.00  0.00    +0.213 C 
BRANCH  19  20
ATOM     20  N   UNL     1      -3.591   5.320   2.884  0.00  0.00    -0.215 N 
ATOM     21  C   UNL     1      -4.149   4.820   4.005  0.00  0.00    +0.251 C 
ATOM     22  O   UNL     1      -3.658   4.022   4.775  0.00  0.00    -0.272 OA
ATOM     23  C   UNL     1      -5.514   5.463   4.100  0.00  0.00    +0.138 C 
ATOM     24  C   UNL     1      -5.621   6.292   5.373  0.00  0.00    +0.040 C 
ATOM     25  C   UNL     1      -5.737   5.337   6.567  0.00  0.00    +0.008 C 
ATOM     26  C   UNL     1      -7.096   4.642   6.500  0.00  0.00    +0.035 C 
ATOM     27  C   UNL     1      -7.314   4.031   5.141  0.00  0.00    -0.042 A 
ATOM     28  C   UNL     1      -6.588   4.413   4.034  0.00  0.00    -0.012 A 
ATOM     29  C   UNL     1      -6.842   3.816   2.807  0.00  0.00    +0.006 A 
ATOM     30  C   UNL     1      -7.813   2.843   2.687  0.00  0.00    +0.000 A 
ATOM     31  C   UNL     1      -8.540   2.458   3.798  0.00  0.00    +0.000 A 
ATOM     32  C   UNL     1      -8.290   3.051   5.019  0.00  0.00    +0.004 A 
ATOM     33  N   UNL     1      -5.580   6.332   2.917  0.00  0.00    -0.281 N 
ATOM     34  C   UNL     1      -4.407   6.185   2.270  0.00  0.00    +0.310 C 
ATOM     35  O   UNL     1      -4.125   6.770   1.243  0.00  0.00    -0.252 OA
ATOM     36  H   UNL     1      -6.320   6.901   2.655  0.00  0.00    +0.152 HD
ENDBRANCH  19  20
ENDBRANCH   2  19
TORSDOF 5
