REMARK  Name = ZINC59170575
REMARK  6 active torsions:
REMARK  status: ('A' for Active; 'I' for Inactive)
REMARK    1  A    between atoms: C_1  and  C_2
REMARK    2  A    between atoms: C_5  and  S_8
REMARK    3  A    between atoms: S_8  and  N_11
REMARK    4  A    between atoms: N_11  and  N_12
REMARK    5  A    between atoms: C_14  and  C_27
REMARK    6  A    between atoms: N_29  and  C_30
REMARK                            x       y       z     vdW  Elec       q    Type
REMARK                         _______ _______ _______ _____ _____    ______ ____
ROOT
ATOM      1  N   UNL     1       3.996  -6.677   1.682  0.00  0.00    -0.260 N 
ATOM      2  C   UNL     1       4.851  -5.976   0.993  0.00  0.00    +0.225 A 
ATOM      3  C   UNL     1       4.615  -5.663  -0.436  0.00  0.00    +0.099 A 
ATOM      4  C   UNL     1       5.225  -4.525  -0.942  0.00  0.00    +0.030 A 
ATOM      5  C   UNL     1       6.048  -3.765  -0.076  0.00  0.00    +0.026 A 
ATOM      6  C   UNL     1       6.538  -2.447  -0.479  0.00  0.00    -0.007 A 
ATOM      7  C   UNL     1       6.232  -1.902  -1.730  0.00  0.00    +0.009 A 
ATOM      8  C   UNL     1       6.710  -0.668  -2.064  0.00  0.00    +0.001 A 
ATOM      9  C   UNL     1       7.500   0.056  -1.176  0.00  0.00    +0.001 A 
ATOM     10  C   UNL     1       7.817  -0.446   0.050  0.00  0.00    +0.008 A 
ATOM     11  C   UNL     1       7.341  -1.713   0.427  0.00  0.00    -0.017 A 
ATOM     12  C   UNL     1       7.646  -2.264   1.686  0.00  0.00    +0.012 A 
ATOM     13  C   UNL     1       7.191  -3.494   2.041  0.00  0.00    +0.047 A 
ATOM     14  C   UNL     1       6.403  -4.261   1.183  0.00  0.00    +0.138 A 
ATOM     15  O   UNL     1       5.996  -5.497   1.561  0.00  0.00    -0.437 OA
ATOM     16  H   UNL     1       4.220  -6.970   2.579  0.00  0.00    +0.189 HD
ENDROOT
BRANCH   3  17
ATOM     17  C   UNL     1       3.772  -6.521  -1.281  0.00  0.00    +0.253 C 
ATOM     18  O   UNL     1       3.723  -7.719  -1.074  0.00  0.00    -0.270 OA
ATOM     19  N   UNL     1       3.052  -5.981  -2.284  0.00  0.00    -0.280 N 
ATOM     20  H   UNL     1       3.138  -5.037  -2.489  0.00  0.00    +0.155 HD
BRANCH  19  21
ATOM     21  C   UNL     1       2.180  -6.782  -3.029  0.00  0.00    +0.052 A 
ATOM     22  C   UNL     1       1.725  -7.986  -2.509  0.00  0.00    +0.025 A 
ATOM     23  C   UNL     1       0.865  -8.775  -3.248  0.00  0.00    +0.002 A 
ATOM     24  C   UNL     1       0.455  -8.366  -4.504  0.00  0.00    +0.002 A 
ATOM     25  C   UNL     1       0.905  -7.168  -5.025  0.00  0.00    +0.022 A 
ATOM     26  C   UNL     1       1.762  -6.371  -4.290  0.00  0.00    +0.062 A 
ATOM     27 CL   UNL     1       2.322  -4.862  -4.941  0.00  0.00    -0.082 Cl
ENDBRANCH  19  21
ENDBRANCH   3  17
BRANCH   1  28
ATOM     28  N   UNL     1       2.752  -7.007   1.127  0.00  0.00    -0.157 N 
ATOM     29  H   UNL     1       2.478  -6.615   0.283  0.00  0.00    +0.194 HD
BRANCH  28  30
ATOM     30  S   UNL     1       1.751  -8.067   1.912  0.00  0.00    +0.085 S 
ATOM     31  O   UNL     1       2.491  -9.266   2.094  0.00  0.00    -0.149 OA
ATOM     32  O   UNL     1       0.508  -8.036   1.224  0.00  0.00    -0.149 OA
BRANCH  30  37
ATOM     33  C   UNL     1       0.730  -5.819   7.417  0.00  0.00    +0.044 C 
ATOM     34  C   UNL     1       0.985  -6.380   6.042  0.00  0.00    -0.050 A 
ATOM     35  C   UNL     1       0.149  -6.045   4.993  0.00  0.00    +0.005 A 
ATOM     36  C   UNL     1       0.383  -6.561   3.732  0.00  0.00    +0.029 A 
ATOM     37  C   UNL     1       1.453  -7.410   3.520  0.00  0.00    +0.110 A 
ATOM     38  C   UNL     1       2.290  -7.744   4.568  0.00  0.00    +0.029 A 
ATOM     39  C   UNL     1       2.058  -7.225   5.829  0.00  0.00    +0.005 A 
ENDBRANCH  30  37
ENDBRANCH  28  30
ENDBRANCH   1  28
TORSDOF 5
