REMARK  Name = ZINC21811098
REMARK  10 active torsions:
REMARK  status: ('A' for Active; 'I' for Inactive)
REMARK    1  A    between atoms: C_1  and  C_2
REMARK    2  A    between atoms: C_2  and  C_3
REMARK    3  A    between atoms: N_9  and  C_10
REMARK    4  A    between atoms: C_10  and  C_11
REMARK    5  A    between atoms: C_11  and  C_12
REMARK    6  A    between atoms: C_12  and  N_13
REMARK    7  A    between atoms: C_22  and  C_23
REMARK    8  A    between atoms: C_22  and  C_24
REMARK    9  A    between atoms: N_26  and  C_27
REMARK   10  A    between atoms: C_30  and  C_33
REMARK                            x       y       z     vdW  Elec       q    Type
REMARK                         _______ _______ _______ _____ _____    ______ ____
ROOT
ATOM      1  N   UNL     1       3.024   1.363   4.168  0.00  0.00    -0.281 N 
ATOM      2  C   UNL     1       4.074   0.636   3.718  0.00  0.00    +0.264 C 
ATOM      3  O   UNL     1       3.925  -0.298   2.951  0.00  0.00    -0.268 OA
ATOM      4  C   UNL     1       5.401   1.035   4.200  0.00  0.00    +0.109 A 
ATOM      5  C   UNL     1       6.645   0.645   3.801  0.00  0.00    +0.079 A 
ATOM      6  C   UNL     1       7.577   1.349   4.578  0.00  0.00    +0.153 A 
ATOM      7  C   UNL     1       6.863   2.168   5.453  0.00  0.00    +0.088 A 
ATOM      8  N   UNL     1       5.535   1.968   5.226  0.00  0.00    -0.331 N 
ATOM      9  C   UNL     1       4.366   2.561   5.883  0.00  0.00    +0.157 C 
ATOM     10  C   UNL     1       3.207   2.618   4.888  0.00  0.00    +0.128 C 
ATOM     11  C   UNL     1       1.920   2.941   5.651  0.00  0.00    +0.043 C 
ATOM     12  C   UNL     1       7.830   2.867   6.215  0.00  0.00    +0.067 A 
ATOM     13  C   UNL     1       9.040   2.459   5.793  0.00  0.00    +0.198 A 
ATOM     14  O   UNL     1       8.890   1.550   4.816  0.00  0.00    -0.461 OA
ENDROOT
BRANCH  10  15
ATOM     15  C   UNL     1       3.472   3.717   3.893  0.00  0.00    +0.238 C 
ATOM     16  O   UNL     1       3.049   4.835   4.098  0.00  0.00    -0.273 OA
ATOM     17  N   UNL     1       4.179   3.458   2.775  0.00  0.00    -0.311 N 
ATOM     18  H   UNL     1       4.562   2.444   2.590  0.00  0.00    +0.149 HD
BRANCH  17  19
ATOM     19  C   UNL     1       4.437   4.527   1.808  0.00  0.00    +0.073 C 
ATOM     20  C   UNL     1       3.248   4.648   0.852  0.00  0.00    +0.022 C 
ATOM     21  C   UNL     1       3.518   5.764  -0.159  0.00  0.00    +0.005 C 
ATOM     22  C   UNL     1       4.782   5.437  -0.956  0.00  0.00    -0.014 C 
ATOM     23  C   UNL     1       5.971   5.316  -0.000  0.00  0.00    +0.005 C 
ATOM     24  C   UNL     1       5.701   4.200   1.010  0.00  0.00    +0.022 C 
ATOM     25  C   UNL     1       5.052   6.553  -1.967  0.00  0.00    +0.007 C 
ENDBRANCH  17  19
ENDBRANCH  10  15
BRANCH   1  26
ATOM     26  C   UNL     1       1.665   0.873   3.928  0.00  0.00    +0.107 C 
BRANCH  26  27
ATOM     27  C   UNL     1       1.151   1.425   2.597  0.00  0.00    +0.000 C 
BRANCH  27  28
ATOM     28  C   UNL     1      -0.269   0.912   2.346  0.00  0.00    -0.077 C 
BRANCH  28  34
ATOM     29  C   UNL     1      -0.628   2.800   0.875  0.00  0.00    -0.069 C 
ATOM     30  C   UNL     1      -1.236   3.223  -0.465  0.00  0.00    -0.015 C 
ATOM     31  C   UNL     1      -0.479   2.535  -1.604  0.00  0.00    -0.003 C 
ATOM     32  C   UNL     1      -0.545   1.018  -1.407  0.00  0.00    -0.019 C 
ATOM     33  C   UNL     1       0.043   0.659  -0.041  0.00  0.00    -0.078 C 
ATOM     34  N   UNL     1      -0.717   1.341   1.015  0.00  0.00    +0.382 N 
ATOM     35  H   UNL     1      -1.774   1.057   0.903  0.00  0.00    -0.081 HD
BRANCH  29  37
ATOM     36  C   UNL     1      -1.207   4.986   1.938  0.00  0.00    +0.002 C 
ATOM     37  C   UNL     1      -1.395   3.469   2.017  0.00  0.00    -0.019 C 
ENDBRANCH  29  37
ENDBRANCH  28  34
ENDBRANCH  27  28
ENDBRANCH  26  27
ENDBRANCH   1  26
TORSDOF 7
