REMARK  Name = ZINC39586191
REMARK  7 active torsions:
REMARK  status: ('A' for Active; 'I' for Inactive)
REMARK    1  A    between atoms: C_1  and  C_2
REMARK    2  A    between atoms: C_2  and  C_3
REMARK    3  A    between atoms: C_2  and  C_4
REMARK    4  A    between atoms: C_4  and  N_5
REMARK    5  A    between atoms: C_13  and  S_14
REMARK    6  A    between atoms: S_14  and  C_15
REMARK    7  A    between atoms: C_15  and  C_16
REMARK                            x       y       z     vdW  Elec       q    Type
REMARK                         _______ _______ _______ _____ _____    ______ ____
ROOT
ATOM      1  C   UNL     1      -1.371  -4.063   3.477  0.00  0.00    +0.173 C 
ENDROOT
BRANCH   1   2
ATOM      2  C   UNL     1      -1.178  -3.871   4.960  0.00  0.00    +0.228 C 
ATOM      3  O   UNL     1      -1.056  -2.754   5.416  0.00  0.00    -0.275 OA
ATOM      4  N   UNL     1      -1.142  -4.942   5.779  0.00  0.00    -0.284 N 
ATOM      5  C   UNL     1      -1.977  -5.021   6.796  0.00  0.00    +0.050 C 
ATOM      6  C   UNL     1      -3.041  -4.008   6.961  0.00  0.00    +0.054 C 
ATOM      7  C   UNL     1      -3.895  -4.100   8.011  0.00  0.00    +0.097 C 
ATOM      8  N   UNL     1      -4.956  -3.362   8.451  0.00  0.00    -0.190 NA
ATOM      9  C   UNL     1      -5.420  -3.925   9.543  0.00  0.00    +0.369 C 
ATOM     10  O   UNL     1      -6.475  -3.458  10.252  0.00  0.00    -0.243 OA
ATOM     11  N   UNL     1      -4.716  -5.022   9.869  0.00  0.00    -0.190 NA
ATOM     12  C   UNL     1      -3.758  -5.205   8.981  0.00  0.00    +0.096 C 
ATOM     13  C   UNL     1      -2.700  -6.204   8.810  0.00  0.00    +0.047 C 
ATOM     14  C   UNL     1      -1.853  -6.120   7.764  0.00  0.00    +0.041 C 
ATOM     15 BR   UNL     1      -0.496  -7.418   7.546  0.00  0.00    -0.048 Br
ATOM     16  H   UNL     1      -0.503  -5.653   5.619  0.00  0.00    +0.155 HD
ENDBRANCH   1   2
BRANCH   1  17
ATOM     17  S   UNL     1      -1.374  -2.447   2.654  0.00  0.00    -0.078 S 
BRANCH  17  26
ATOM     18  N   UNL     1      -1.674  -1.921  -0.061  0.00  0.00    -0.318 N 
ATOM     19  C   UNL     1      -1.854  -2.627  -1.240  0.00  0.00    +0.069 A 
ATOM     20  C   UNL     1      -1.987  -2.258  -2.570  0.00  0.00    +0.028 A 
ATOM     21  C   UNL     1      -2.159  -3.226  -3.538  0.00  0.00    +0.002 A 
ATOM     22  C   UNL     1      -2.200  -4.568  -3.189  0.00  0.00    +0.002 A 
ATOM     23  C   UNL     1      -2.070  -4.952  -1.873  0.00  0.00    +0.030 A 
ATOM     24  C   UNL     1      -1.895  -3.984  -0.882  0.00  0.00    +0.090 A 
ATOM     25  N   UNL     1      -1.741  -4.047   0.467  0.00  0.00    -0.222 NA
ATOM     26  C   UNL     1      -1.605  -2.836   0.951  0.00  0.00    +0.170 A 
BRANCH  18  27
ATOM     27  C   UNL     1      -1.571  -0.466   0.074  0.00  0.00    +0.127 C 
BRANCH  27  29
ATOM     28  C   UNL     1      -0.009   1.481  -0.037  0.00  0.00    +0.009 C 
ATOM     29  C   UNL     1      -0.105  -0.046  -0.053  0.00  0.00    +0.003 C 
ATOM     30  C   UNL     1       0.694  -0.619   1.119  0.00  0.00    +0.009 C 
ENDBRANCH  27  29
ENDBRANCH  18  27
ENDBRANCH  17  26
ENDBRANCH   1  17
TORSDOF 5
