REMARK  Name = ZINC14456449
REMARK  3 active torsions:
REMARK  status: ('A' for Active; 'I' for Inactive)
REMARK    1  A    between atoms: C_1  and  C_2
REMARK    2  A    between atoms: C_5  and  C_7
REMARK    3  A    between atoms: C_18  and  N_23
REMARK                            x       y       z     vdW  Elec       q    Type
REMARK                         _______ _______ _______ _____ _____    ______ ____
ROOT
ATOM      1  C   UNL     1       2.565   1.272  -0.016  0.00  0.00    +0.111 C 
ATOM      2  C   UNL     1       3.120   1.348  -1.441  0.00  0.00    +0.029 C 
ATOM      3  C   UNL     1       2.457   0.205  -2.261  0.00  0.00    +0.033 C 
ATOM      4  C   UNL     1       3.293  -1.010  -1.908  0.00  0.00    -0.030 C 
ATOM      5  C   UNL     1       4.472  -0.643  -1.467  0.00  0.00    -0.023 C 
ATOM      6  C   UNL     1       4.583   0.863  -1.461  0.00  0.00    +0.049 C 
ATOM      7  C   UNL     1       5.376   1.348  -0.289  0.00  0.00    -0.017 A 
ATOM      8  C   UNL     1       6.756   1.200  -0.312  0.00  0.00    +0.038 A 
ATOM      9  C   UNL     1       7.526   1.637   0.747  0.00  0.00    +0.127 A 
ATOM     10  C   UNL     1       6.930   2.229   1.845  0.00  0.00    +0.034 A 
ATOM     11  C   UNL     1       5.558   2.382   1.879  0.00  0.00    +0.025 A 
ATOM     12  C   UNL     1       4.783   1.941   0.814  0.00  0.00    +0.032 A 
ATOM     13  N   UNL     1       3.394   2.101   0.865  0.00  0.00    -0.336 N 
ATOM     14  H   UNL     1       2.989   2.744   1.467  0.00  0.00    +0.147 HD
ENDROOT
BRANCH   1  19
ATOM     15  C   UNL     1      -2.355   4.080   0.046  0.00  0.00    +0.051 C 
ATOM     16  C   UNL     1      -1.196   3.116   0.030  0.00  0.00    -0.013 A 
ATOM     17  C   UNL     1      -1.213   1.761   0.017  0.00  0.00    +0.011 A 
ATOM     18  C   UNL     1      -0.013   1.076   0.008  0.00  0.00    +0.013 A 
ATOM     19  C   UNL     1       1.146   1.780   0.001  0.00  0.00    +0.010 A 
ATOM     20  S   UNL     1       0.555   3.464   0.015  0.00  0.00    -0.097 S 
ENDBRANCH   1  19
BRANCH   9  21
ATOM     21  N   UNL     1       8.996   1.470   0.707  0.00  0.00    +0.056 N 
ATOM     22  O   UNL     1       9.678   1.855   1.640  0.00  0.00    -0.126 OA
ATOM     23  O   UNL     1       9.524   0.949  -0.258  0.00  0.00    -0.126 OA
ENDBRANCH   9  21
TORSDOF 2
