REMARK  Name = ZINC21260513
REMARK  9 active torsions:
REMARK  status: ('A' for Active; 'I' for Inactive)
REMARK    1  A    between atoms: C_1  and  C_2
REMARK    2  A    between atoms: C_2  and  C_3
REMARK    3  A    between atoms: C_2  and  O_4
REMARK    4  A    between atoms: O_4  and  C_5
REMARK    5  A    between atoms: C_8  and  C_13
REMARK    6  A    between atoms: C_10  and  O_11
REMARK    7  A    between atoms: O_11  and  C_12
REMARK    8  A    between atoms: C_18  and  C_28
REMARK    9  A    between atoms: C_31  and  O_34
REMARK                            x       y       z     vdW  Elec       q    Type
REMARK                         _______ _______ _______ _____ _____    ______ ____
ROOT
ATOM      1  C   UNL     1      -0.312   2.157  -1.193  0.00  0.00    +0.032 C 
ATOM      2  C   UNL     1      -1.576   1.304  -1.101  0.00  0.00    +0.059 C 
ATOM      3  C   UNL     1      -2.336   1.642   0.172  0.00  0.00    +0.017 C 
ATOM      4  C   UNL     1      -1.675   2.010   1.281  0.00  0.00    +0.036 C 
ATOM      5  C   UNL     1      -2.299   2.349   2.614  0.00  0.00    +0.136 C 
ATOM      6  N   UNL     1      -3.737   2.512   2.578  0.00  0.00    -0.331 N 
ATOM      7  C   UNL     1      -4.575   1.442   2.267  0.00  0.00    +0.049 A 
ATOM      8  C   UNL     1      -5.461   0.923   3.197  0.00  0.00    +0.025 A 
ATOM      9  C   UNL     1      -6.240  -0.170   2.858  0.00  0.00    +0.002 A 
ATOM     10  C   UNL     1      -6.135  -0.743   1.604  0.00  0.00    +0.002 A 
ATOM     11  C   UNL     1      -5.263  -0.215   0.666  0.00  0.00    +0.025 A 
ATOM     12  C   UNL     1      -4.499   0.890   0.998  0.00  0.00    +0.052 A 
ATOM     13  N   UNL     1      -3.685   1.532   0.072  0.00  0.00    -0.316 N 
ATOM     14  C   UNL     1      -0.260   2.113   1.271  0.00  0.00    +0.163 C 
ATOM     15  O   UNL     1       0.317   2.427   2.294  0.00  0.00    -0.292 OA
ATOM     16  C   UNL     1       0.550   1.848   0.037  0.00  0.00    +0.088 C 
ATOM     17  H   UNL     1      -4.185   3.492   2.797  0.00  0.00    +0.147 HD
ATOM     18  H   UNL     1      -4.210   1.971  -0.790  0.00  0.00    +0.152 HD
ENDROOT
BRANCH   1  22
ATOM     19  C   UNL     1       1.843   1.173  -4.753  0.00  0.00    +0.162 A 
ATOM     20  C   UNL     1       1.571   0.194  -3.812  0.00  0.00    +0.050 A 
ATOM     21  C   UNL     1       0.875   0.515  -2.662  0.00  0.00    +0.008 A 
ATOM     22  C   UNL     1       0.448   1.812  -2.448  0.00  0.00    -0.040 A 
ATOM     23  C   UNL     1       0.711   2.793  -3.386  0.00  0.00    +0.053 A 
ATOM     24  C   UNL     1       1.414   2.479  -4.538  0.00  0.00    +0.162 A 
BRANCH  24  25
ATOM     25  O   UNL     1       1.678   3.445  -5.459  0.00  0.00    -0.491 OA
ATOM     26  C   UNL     1       1.207   4.763  -5.171  0.00  0.00    +0.277 C 
ENDBRANCH  24  25
BRANCH  19  27
ATOM     27  O   UNL     1       2.527   0.859  -5.886  0.00  0.00    -0.486 OA
BRANCH  27  29
ATOM     28  C   UNL     1       3.020  -0.777  -7.595  0.00  0.00    +0.051 C 
ATOM     29  C   UNL     1       2.830  -0.521  -6.098  0.00  0.00    +0.167 C 
ATOM     30  C   UNL     1       4.117  -0.882  -5.353  0.00  0.00    +0.051 C 
ENDBRANCH  27  29
ENDBRANCH  19  27
ENDBRANCH   1  22
BRANCH   5  31
ATOM     31  C   UNL     1      -1.970   1.249   3.590  0.00  0.00    -0.023 A 
ATOM     32  C   UNL     1      -2.437  -0.033   3.368  0.00  0.00    +0.009 A 
ATOM     33  C   UNL     1      -2.132  -1.044   4.258  0.00  0.00    +0.046 A 
ATOM     34  C   UNL     1      -1.366  -0.770   5.381  0.00  0.00    +0.117 A 
ATOM     35  C   UNL     1      -0.902   0.518   5.604  0.00  0.00    +0.046 A 
ATOM     36  C   UNL     1      -1.206   1.525   4.708  0.00  0.00    +0.009 A 
BRANCH  34  37
ATOM     37  O   UNL     1      -1.068  -1.763   6.261  0.00  0.00    -0.507 OA
ATOM     38  H   UNL     1      -0.460  -1.545   7.151  0.00  0.00    +0.292 HD
ENDBRANCH  34  37
ENDBRANCH   5  31
TORSDOF 6
