REMARK  Name = ZINC63467788
REMARK  11 active torsions:
REMARK  status: ('A' for Active; 'I' for Inactive)
REMARK    1  A    between atoms: C_1  and  C_2
REMARK    2  A    between atoms: C_7  and  C_8
REMARK    3  A    between atoms: C_8  and  S_9
REMARK    4  A    between atoms: S_9  and  C_10
REMARK    5  A    between atoms: C_16  and  C_30
REMARK    6  A    between atoms: C_21  and  C_25
REMARK    7  A    between atoms: C_21  and  C_26
REMARK    8  A    between atoms: C_33  and  O_38
REMARK    9  A    between atoms: C_34  and  O_36
REMARK   10  A    between atoms: O_36  and  C_37
REMARK   11  A    between atoms: O_38  and  C_39
REMARK                            x       y       z     vdW  Elec       q    Type
REMARK                         _______ _______ _______ _____ _____    ______ ____
ROOT
ATOM      1  C   UNL     1      -1.513   1.192   4.568  0.00  0.00    +0.182 C 
ATOM      2  N   UNL     1      -0.294   1.474   5.011  0.00  0.00    -0.154 NA
ATOM      3  C   UNL     1      -0.101   2.205   6.099  0.00  0.00    +0.250 C 
ATOM      4  O   UNL     1       1.032   2.399   6.496  0.00  0.00    -0.273 OA
ATOM      5  C   UNL     1      -1.255   2.795   6.846  0.00  0.00    +0.156 C 
ATOM      6  C   UNL     1      -1.150   2.546   8.347  0.00  0.00    +0.074 C 
ATOM      7  C   UNL     1      -2.439   3.007   8.995  0.00  0.00    +0.025 C 
ATOM      8  C   UNL     1      -3.643   2.886   8.294  0.00  0.00    +0.051 C 
ATOM      9  C   UNL     1      -4.943   3.308   8.937  0.00  0.00    +0.062 C 
ATOM     10  C   UNL     1      -4.831   3.155  10.456  0.00  0.00    -0.023 C 
ATOM     11  C   UNL     1      -3.642   3.988  10.945  0.00  0.00    +0.086 C 
ATOM     12  C   UNL     1      -2.394   3.525  10.244  0.00  0.00    +0.162 C 
ATOM     13  O   UNL     1      -1.208   3.627  10.872  0.00  0.00    -0.292 OA
ATOM     14  C   UNL     1      -6.116   3.656  11.118  0.00  0.00    +0.011 C 
ATOM     15  C   UNL     1      -4.607   1.683  10.809  0.00  0.00    +0.011 C 
ATOM     16  N   UNL     1      -3.667   2.432   7.055  0.00  0.00    -0.236 NA
ATOM     17  C   UNL     1      -2.563   2.247   6.346  0.00  0.00    +0.145 C 
ATOM     18  N   UNL     1      -2.613   1.549   5.231  0.00  0.00    -0.208 NA
ENDROOT
BRANCH   6  19
ATOM     19  C   UNL     1       0.010   3.325   8.912  0.00  0.00    -0.035 A 
ATOM     20  C   UNL     1       0.032   4.704   8.807  0.00  0.00    +0.008 A 
ATOM     21  C   UNL     1       1.093   5.423   9.323  0.00  0.00    +0.050 A 
ATOM     22  C   UNL     1       2.139   4.762   9.948  0.00  0.00    +0.162 A 
ATOM     23  C   UNL     1       2.117   3.375  10.054  0.00  0.00    +0.162 A 
ATOM     24  C   UNL     1       1.048   2.661   9.538  0.00  0.00    +0.053 A 
BRANCH  23  25
ATOM     25  O   UNL     1       3.141   2.722  10.666  0.00  0.00    -0.491 OA
ATOM     26  C   UNL     1       3.052   1.298  10.738  0.00  0.00    +0.277 C 
ENDBRANCH  23  25
BRANCH  22  27
ATOM     27  O   UNL     1       3.185   5.468  10.456  0.00  0.00    -0.491 OA
ATOM     28  C   UNL     1       3.140   6.889  10.310  0.00  0.00    +0.277 C 
ENDBRANCH  22  27
ENDBRANCH   6  19
BRANCH   1  29
ATOM     29  S   UNL     1      -1.684   0.321   3.046  0.00  0.00    -0.084 S 
BRANCH  29  30
ATOM     30  C   UNL     1       0.025   0.045   2.504  0.00  0.00    +0.112 C 
BRANCH  30  37
ATOM     31  C   UNL     1      -0.018   1.503   0.010  0.00  0.00    +0.044 C 
ATOM     32  C   UNL     1       0.002  -0.004   0.002  0.00  0.00    -0.046 A 
ATOM     33  C   UNL     1       0.006  -0.689  -1.199  0.00  0.00    +0.003 A 
ATOM     34  C   UNL     1       0.025  -2.071  -1.207  0.00  0.00    +0.000 A 
ATOM     35  C   UNL     1       0.040  -2.768  -0.013  0.00  0.00    +0.000 A 
ATOM     36  C   UNL     1       0.037  -2.084   1.188  0.00  0.00    +0.005 A 
ATOM     37  C   UNL     1       0.023  -0.702   1.195  0.00  0.00    -0.034 A 
ENDBRANCH  30  37
ENDBRANCH  29  30
ENDBRANCH   1  29
TORSDOF 6
