REMARK  Name = ZINC29707402
REMARK  11 active torsions:
REMARK  status: ('A' for Active; 'I' for Inactive)
REMARK    1  A    between atoms: C_1  and  C_2
REMARK    2  A    between atoms: C_4  and  C_34
REMARK    3  A    between atoms: C_5  and  N_7
REMARK    4  A    between atoms: C_13  and  C_15
REMARK    5  A    between atoms: C_15  and  N_16
REMARK    6  A    between atoms: N_16  and  C_17
REMARK    7  A    between atoms: C_17  and  C_19
REMARK    8  A    between atoms: C_17  and  C_31
REMARK    9  A    between atoms: C_22  and  C_25
REMARK   10  A    between atoms: C_31  and  C_32
REMARK   11  A    between atoms: C_31  and  C_33
REMARK                            x       y       z     vdW  Elec       q    Type
REMARK                         _______ _______ _______ _____ _____    ______ ____
ROOT
ATOM      1  N   UNL     1      -3.584   3.062   0.715  0.00  0.00    +0.389 N 
ATOM      2  H   UNL     1      -3.143   2.688   1.651  0.00  0.00    -0.084 HD
ATOM      3  H   UNL     1      -3.861   2.211   0.075  0.00  0.00    -0.084 HD
ENDROOT
BRANCH   1   4
ATOM      4  C   UNL     1      -4.782   3.856   1.020  0.00  0.00    +0.016 C 
BRANCH   4  11
ATOM      5  N   UNL     1      -9.688   4.282   1.778  0.00  0.00    -0.296 N 
ATOM      6  C   UNL     1      -9.376   2.847   1.802  0.00  0.00    +0.127 C 
ATOM      7  C   UNL     1      -8.071   2.624   2.574  0.00  0.00    +0.126 C 
ATOM      8  N   UNL     1      -7.028   3.478   1.985  0.00  0.00    -0.300 N 
ATOM      9  C   UNL     1      -7.318   4.909   1.806  0.00  0.00    +0.126 C 
ATOM     10  C   UNL     1      -8.655   5.040   1.059  0.00  0.00    +0.127 C 
ATOM     11  C   UNL     1      -5.836   2.963   1.623  0.00  0.00    +0.199 C 
ATOM     12  O   UNL     1      -5.612   1.782   1.782  0.00  0.00    -0.278 OA
BRANCH   5  17
ATOM     13  C   UNL     1     -14.095   3.520  -0.273  0.00  0.00    +0.109 C 
ATOM     14  C   UNL     1     -12.893   4.203   0.325  0.00  0.00    +0.196 A 
ATOM     15  N   UNL     1     -12.765   5.484   0.486  0.00  0.00    -0.201 NA
ATOM     16  C   UNL     1     -11.553   5.733   1.059  0.00  0.00    +0.201 A 
ATOM     17  C   UNL     1     -10.935   4.507   1.233  0.00  0.00    +0.227 A 
ATOM     18  O   UNL     1     -11.791   3.577   0.771  0.00  0.00    -0.425 OA
BRANCH  16  19
ATOM     19  C   UNL     1     -11.022   7.016   1.410  0.00  0.00    +0.124 C 
ATOM     20  N   UNL     1     -10.600   8.033   1.689  0.00  0.00    -0.189 NA
ENDBRANCH  16  19
ENDBRANCH   5  17
ENDBRANCH   4  11
ENDBRANCH   1   4
BRANCH   1  21
ATOM     21  C   UNL     1      -2.580   3.872   0.013  0.00  0.00    -0.038 C 
BRANCH  21  22
ATOM     22  C   UNL     1      -1.208   3.303   0.266  0.00  0.00    -0.061 A 
ATOM     23  C   UNL     1      -1.019   1.933   0.275  0.00  0.00    +0.002 A 
ATOM     24  C   UNL     1       0.238   1.411   0.513  0.00  0.00    +0.004 A 
ATOM     25  C   UNL     1       1.309   2.258   0.731  0.00  0.00    -0.044 A 
ATOM     26  C   UNL     1       1.121   3.627   0.716  0.00  0.00    +0.004 A 
ATOM     27  C   UNL     1      -0.138   4.150   0.483  0.00  0.00    +0.002 A 
BRANCH  25  28
ATOM     28  C   UNL     1       2.681   1.688   0.984  0.00  0.00    +0.019 C 
ATOM     29  C   UNL     1       3.177   2.144   2.358  0.00  0.00    +0.008 C 
ATOM     30  C   UNL     1       4.570   1.566   2.615  0.00  0.00    +0.001 C 
ATOM     31  C   UNL     1       5.534   2.060   1.535  0.00  0.00    +0.000 C 
ATOM     32  C   UNL     1       5.039   1.604   0.161  0.00  0.00    +0.001 C 
ATOM     33  C   UNL     1       3.646   2.183  -0.096  0.00  0.00    +0.008 C 
ENDBRANCH  25  28
ENDBRANCH  21  22
BRANCH  21  34
ATOM     34  C   UNL     1      -2.870   3.854  -1.490  0.00  0.00    -0.027 C 
ATOM     35  C   UNL     1      -1.818   4.689  -2.222  0.00  0.00    +0.006 C 
ATOM     36  C   UNL     1      -2.825   2.413  -2.001  0.00  0.00    +0.006 C 
ENDBRANCH  21  34
ENDBRANCH   1  21
TORSDOF 8
