REMARK  Name = ZINC21337142
REMARK  9 active torsions:
REMARK  status: ('A' for Active; 'I' for Inactive)
REMARK    1  A    between atoms: C_1  and  C_2
REMARK    2  A    between atoms: C_7  and  C_9
REMARK    3  A    between atoms: C_7  and  C_10
REMARK    4  A    between atoms: N_13  and  C_17
REMARK    5  A    between atoms: C_17  and  C_18
REMARK    6  A    between atoms: C_18  and  O_20
REMARK    7  A    between atoms: O_20  and  C_21
REMARK    8  A    between atoms: C_24  and  C_27
REMARK    9  A    between atoms: C_27  and  C_29
REMARK                            x       y       z     vdW  Elec       q    Type
REMARK                         _______ _______ _______ _____ _____    ______ ____
ROOT
ATOM      1  C   UNL     1      -1.128  -2.319  -5.125  0.00  0.00    +0.330 C 
ATOM      2  O   UNL     1      -0.891  -1.327  -5.772  0.00  0.00    -0.249 OA
ENDROOT
BRANCH   1   3
ATOM      3  C   UNL     1      -0.105  -2.847  -4.152  0.00  0.00    +0.238 C 
BRANCH   3  15
ATOM      4  C   UNL     1       2.326   3.384  -3.281  0.00  0.00    +0.007 C 
ATOM      5  C   UNL     1       2.364   1.917  -2.842  0.00  0.00    -0.011 C 
ATOM      6  C   UNL     1       2.669   1.035  -4.054  0.00  0.00    +0.038 C 
ATOM      7  C   UNL     1       2.661  -0.430  -3.639  0.00  0.00    +0.113 C 
ATOM      8  C   UNL     1       3.585  -0.718  -2.473  0.00  0.00    +0.041 C 
ATOM      9  C   UNL     1       3.529   0.280  -1.330  0.00  0.00    -0.032 C 
ATOM     10  C   UNL     1       3.474   1.725  -1.811  0.00  0.00    +0.009 C 
ATOM     11  C   UNL     1       4.814   0.114  -0.488  0.00  0.00    +0.011 C 
ATOM     12  C   UNL     1       2.340  -0.014  -0.411  0.00  0.00    +0.011 C 
ATOM     13  C   UNL     1       1.253  -0.909  -3.382  0.00  0.00    +0.247 C 
ATOM     14  O   UNL     1       0.422  -0.431  -2.640  0.00  0.00    -0.273 OA
ATOM     15  N   UNL     1       1.081  -1.987  -4.177  0.00  0.00    -0.213 N 
ATOM     16  C   UNL     1       2.129  -2.170  -4.988  0.00  0.00    +0.310 C 
ATOM     17  O   UNL     1       2.203  -3.067  -5.805  0.00  0.00    -0.252 OA
ATOM     18  N   UNL     1       3.091  -1.252  -4.793  0.00  0.00    -0.285 N 
ATOM     19  H   UNL     1       3.908  -1.137  -5.300  0.00  0.00    +0.151 HD
ENDBRANCH   3  15
ENDBRANCH   1   3
BRANCH   1  20
ATOM     20  O   UNL     1      -2.303  -2.952  -5.272  0.00  0.00    -0.425 OA
BRANCH  20  21
ATOM     21  C   UNL     1      -3.237  -2.383  -6.076  0.00  0.00    +0.132 A 
ATOM     22  C   UNL     1      -2.992  -2.251  -7.438  0.00  0.00    +0.047 A 
ATOM     23  C   UNL     1      -3.936  -1.675  -8.257  0.00  0.00    +0.015 A 
ATOM     24  C   UNL     1      -5.144  -1.221  -7.718  0.00  0.00    +0.022 A 
ATOM     25  C   UNL     1      -5.386  -1.355  -6.347  0.00  0.00    +0.015 A 
ATOM     26  C   UNL     1      -4.439  -1.939  -5.536  0.00  0.00    +0.047 A 
BRANCH  24  27
ATOM     27  C   UNL     1      -6.159  -0.602  -8.591  0.00  0.00    +0.193 C 
ATOM     28  O   UNL     1      -6.285  -0.982  -9.740  0.00  0.00    -0.287 OA
BRANCH  27  29
ATOM     29  C   UNL     1      -7.021   0.478  -8.072  0.00  0.00    +0.022 A 
ATOM     30  C   UNL     1      -6.760   1.043  -6.820  0.00  0.00    +0.014 A 
ATOM     31  C   UNL     1      -7.567   2.051  -6.341  0.00  0.00    +0.039 A 
ATOM     32  C   UNL     1      -8.637   2.506  -7.097  0.00  0.00    +0.123 A 
ATOM     33  C   UNL     1      -8.901   1.949  -8.339  0.00  0.00    +0.039 A 
ATOM     34  C   UNL     1      -8.097   0.944  -8.832  0.00  0.00    +0.014 A 
ATOM     35  F   UNL     1      -9.426   3.494  -6.621  0.00  0.00    -0.205 F 
ENDBRANCH  27  29
ENDBRANCH  24  27
ENDBRANCH  20  21
ENDBRANCH   1  20
TORSDOF 6
