REMARK  Name = ZINC64502402
REMARK  5 active torsions:
REMARK  status: ('A' for Active; 'I' for Inactive)
REMARK    1  A    between atoms: C_8  and  N_15
REMARK    2  A    between atoms: C_19  and  C_22
REMARK    3  A    between atoms: N_24  and  C_25
REMARK    4  A    between atoms: C_25  and  C_26
REMARK    5  A    between atoms: C_26  and  C_27
REMARK                            x       y       z     vdW  Elec       q    Type
REMARK                         _______ _______ _______ _____ _____    ______ ____
ROOT
ATOM      1  N   UNL     1       4.714  -0.487   1.969  0.00  0.00    -0.279 NA
ATOM      2  C   UNL     1       5.942   0.024   2.592  0.00  0.00    +0.086 C 
ATOM      3  C   UNL     1       5.834  -0.101   4.113  0.00  0.00    +0.016 C 
ATOM      4  C   UNL     1       5.625  -1.571   4.486  0.00  0.00    +0.015 C 
ATOM      5  C   UNL     1       4.367  -2.093   3.786  0.00  0.00    +0.089 C 
ATOM      6  C   UNL     1       4.517  -1.910   2.274  0.00  0.00    +0.099 C 
ENDROOT
BRANCH   1  14
ATOM      7  C   UNL     1      -0.017   1.376   0.010  0.00  0.00    +0.022 A 
ATOM      8  C   UNL     1       1.188   2.071   0.002  0.00  0.00    +0.031 A 
ATOM      9  C   UNL     1       2.360   1.341  -0.016  0.00  0.00    +0.086 A 
ATOM     10  C   UNL     1       2.309  -0.059  -0.033  0.00  0.00    +0.144 A 
ATOM     11  N   UNL     1       1.139  -0.675  -0.018  0.00  0.00    -0.238 NA
ATOM     12  C   UNL     1       0.002  -0.004   0.002  0.00  0.00    +0.113 A 
ATOM     13  N   UNL     1       3.493  -0.794  -0.081  0.00  0.00    -0.307 N 
ATOM     14  C   UNL     1       4.724  -0.256   0.518  0.00  0.00    +0.191 C 
ATOM     15  C   UNL     1       4.765   1.226   0.236  0.00  0.00    +0.059 A 
ATOM     16  N   UNL     1       3.620   1.955  -0.010  0.00  0.00    -0.314 N 
ATOM     17  C   UNL     1       3.967   3.247  -0.221  0.00  0.00    +0.092 A 
ATOM     18  C   UNL     1       5.312   3.345  -0.117  0.00  0.00    +0.020 A 
ATOM     19  C   UNL     1       5.812   2.055   0.173  0.00  0.00    +0.026 A 
ATOM     20  H   UNL     1       3.504  -1.664  -0.510  0.00  0.00    +0.149 HD
ENDBRANCH   1  14
BRANCH   5  21
ATOM     21  C   UNL     1       4.185  -3.555   4.101  0.00  0.00    +0.217 C 
ATOM     22  O   UNL     1       4.174  -4.372   3.204  0.00  0.00    -0.275 OA
ATOM     23  N   UNL     1       4.036  -3.956   5.379  0.00  0.00    -0.315 N 
ATOM     24  H   UNL     1       4.045  -3.303   6.096  0.00  0.00    +0.149 HD
BRANCH  23  25
ATOM     25  C   UNL     1       3.860  -5.378   5.685  0.00  0.00    +0.108 C 
BRANCH  25  26
ATOM     26  C   UNL     1       3.714  -5.559   7.197  0.00  0.00    +0.052 C 
BRANCH  26  27
ATOM     27  C   UNL     1       3.532  -7.022   7.512  0.00  0.00    -0.040 C 
ATOM     28  C   UNL     1       4.495  -7.902   7.869  0.00  0.00    +0.000 A 
ATOM     29  C   UNL     1       5.944  -7.767   8.061  0.00  0.00    +0.030 A 
ATOM     30  C   UNL     1       6.662  -8.855   8.428  0.00  0.00    +0.042 A 
ATOM     31  C   UNL     1       6.056 -10.105   8.626  0.00  0.00    +0.022 A 
ATOM     32  C   UNL     1       4.731 -10.306   8.468  0.00  0.00    +0.027 A 
ATOM     33  C   UNL     1       3.881  -9.232   8.085  0.00  0.00    +0.043 A 
ATOM     34  N   UNL     1       2.589  -9.176   7.871  0.00  0.00    -0.380 N 
ATOM     35  C   UNL     1       2.236  -7.801   7.500  0.00  0.00    +0.144 C 
ATOM     36 CL   UNL     1       8.375  -8.699   8.656  0.00  0.00    -0.084 Cl
ATOM     37  H   UNL     1       1.969  -9.918   7.949  0.00  0.00    +0.160 HD
ENDBRANCH  26  27
ENDBRANCH  25  26
ENDBRANCH  23  25
ENDBRANCH   5  21
TORSDOF 5
