REMARK  Name = ZINC20292186
REMARK  5 active torsions:
REMARK  status: ('A' for Active; 'I' for Inactive)
REMARK    1  A    between atoms: C_1  and  N_2
REMARK    2  A    between atoms: N_2  and  C_3
REMARK    3  A    between atoms: N_2  and  C_4
REMARK    4  A    between atoms: C_4  and  C_5
REMARK    5  A    between atoms: C_5  and  N_6
REMARK                            x       y       z     vdW  Elec       q    Type
REMARK                         _______ _______ _______ _____ _____    ______ ____
ROOT
ATOM      1  N   UNL     1      -1.756   9.653   1.776  0.00  0.00    -0.330 N 
ATOM      2  C   UNL     1      -1.426   8.329   2.020  0.00  0.00    +0.136 A 
ATOM      3  C   UNL     1      -1.429   7.394   0.994  0.00  0.00    +0.080 A 
ATOM      4  C   UNL     1      -1.097   6.056   1.239  0.00  0.00    +0.093 A 
ATOM      5  C   UNL     1      -1.137   5.158   0.070  0.00  0.00    +0.037 A 
ATOM      6  C   UNL     1      -0.847   3.768   0.042  0.00  0.00    -0.029 A 
ATOM      7  C   UNL     1      -0.938   3.093  -1.131  0.00  0.00    -0.004 A 
ATOM      8  C   UNL     1      -1.309   3.773  -2.300  0.00  0.00    +0.126 A 
ATOM      9  N   UNL     1      -1.576   5.068  -2.271  0.00  0.00    -0.225 NA
ATOM     10  C   UNL     1      -1.502   5.752  -1.149  0.00  0.00    +0.113 A 
ATOM     11  S   UNL     1      -1.785   7.457  -0.740  0.00  0.00    -0.064 S 
ATOM     12  N   UNL     1      -1.396   3.080  -3.499  0.00  0.00    -0.315 N 
ATOM     13  C   UNL     1      -0.443   3.609  -4.483  0.00  0.00    +0.106 C 
ATOM     14  C   UNL     1      -0.464   2.733  -5.738  0.00  0.00    +0.019 C 
ATOM     15  C   UNL     1      -1.878   2.723  -6.324  0.00  0.00    +0.003 C 
ATOM     16  C   UNL     1      -2.858   2.214  -5.264  0.00  0.00    +0.019 C 
ATOM     17  C   UNL     1      -2.768   3.105  -4.023  0.00  0.00    +0.106 C 
ATOM     18  C   UNL     1      -0.654   1.617  -1.241  0.00  0.00    +0.039 C 
ATOM     19  C   UNL     1       0.141   1.132  -0.030  0.00  0.00    +0.005 C 
ATOM     20  C   UNL     1      -0.578   1.601   1.241  0.00  0.00    +0.005 C 
ATOM     21  C   UNL     1      -0.442   3.119   1.337  0.00  0.00    +0.036 C 
ATOM     22  N   UNL     1      -0.778   5.747   2.516  0.00  0.00    -0.234 NA
ATOM     23  C   UNL     1      -0.785   6.656   3.459  0.00  0.00    +0.224 A 
ATOM     24  N   UNL     1      -1.097   7.921   3.245  0.00  0.00    -0.220 NA
ATOM     25  H   UNL     1      -2.024   9.975   0.759  0.00  0.00    +0.147 HD
ENDROOT
BRANCH   1  26
ATOM     26  C   UNL     1      -1.746  10.624   2.873  0.00  0.00    +0.084 C 
BRANCH  26  27
ATOM     27  C   UNL     1      -2.144  12.002   2.338  0.00  0.00    -0.061 C 
BRANCH  27  29
ATOM     28  C   UNL     1      -0.772  13.179   3.949  0.00  0.00    -0.097 C 
ATOM     29  N   UNL     1      -2.134  12.976   3.438  0.00  0.00    +0.377 N 
ATOM     30  C   UNL     1      -2.736  14.249   3.019  0.00  0.00    -0.097 C 
ATOM     31  H   UNL     1      -2.745  12.567   4.257  0.00  0.00    -0.083 HD
ENDBRANCH  27  29
ENDBRANCH  26  27
ENDBRANCH   1  26
TORSDOF 3
