REMARK  Name = ZINC39685196
REMARK  7 active torsions:
REMARK  status: ('A' for Active; 'I' for Inactive)
REMARK    1  A    between atoms: C_5  and  O_7
REMARK    2  A    between atoms: O_7  and  C_8
REMARK    3  A    between atoms: C_8  and  C_9
REMARK    4  A    between atoms: C_9  and  N_10
REMARK    5  A    between atoms: C_11  and  C_13
REMARK    6  A    between atoms: C_24  and  C_26
REMARK    7  A    between atoms: C_29  and  C_31
REMARK                            x       y       z     vdW  Elec       q    Type
REMARK                         _______ _______ _______ _____ _____    ______ ____
ROOT
ATOM      1  C   UNL     1       1.834  -6.340   2.711  0.00  0.00    +0.100 C 
ATOM      2  C   UNL     1       0.985  -5.923   3.932  0.00  0.00    +0.121 C 
ATOM      3  N   UNL     1       0.184  -7.126   4.260  0.00  0.00    -0.294 N 
ATOM      4  C   UNL     1       1.119  -8.258   4.053  0.00  0.00    +0.115 C 
ATOM      5  C   UNL     1       1.922  -7.873   2.795  0.00  0.00    -0.004 C 
ATOM      6  C   UNL     1       1.298  -8.507   1.557  0.00  0.00    -0.010 C 
ATOM      7  C   UNL     1       1.448 -10.029   1.637  0.00  0.00    -0.082 C 
ATOM      8  N   UNL     1       2.871 -10.378   1.726  0.00  0.00    +0.379 N 
ATOM      9  C   UNL     1       3.442  -9.841   2.967  0.00  0.00    -0.082 C 
ATOM     10  C   UNL     1       3.376  -8.312   2.942  0.00  0.00    -0.010 C 
ATOM     11  C   UNL     1      -1.103  -7.179   4.656  0.00  0.00    +0.282 C 
ATOM     12  O   UNL     1      -1.624  -8.254   4.890  0.00  0.00    -0.267 OA
ATOM     13  H   UNL     1       2.971 -11.382   1.718  0.00  0.00    -0.086 HD
ATOM     14  H   UNL     1       3.361  -9.987   0.935  0.00  0.00    -0.086 HD
ENDROOT
BRANCH  11  15
ATOM     15  C   UNL     1      -1.875  -5.943   4.805  0.00  0.00    +0.190 A 
ATOM     16  C   UNL     1      -3.190  -5.853   5.206  0.00  0.00    +0.055 A 
ATOM     17  C   UNL     1      -3.519  -4.494   5.210  0.00  0.00    +0.050 A 
ATOM     18  C   UNL     1      -2.405  -3.810   4.815  0.00  0.00    +0.136 A 
ATOM     19  O   UNL     1      -1.419  -4.692   4.580  0.00  0.00    -0.450 OA
BRANCH  18  20
ATOM     20  C   UNL     1      -2.300  -2.344   4.676  0.00  0.00    +0.017 A 
ATOM     21  C   UNL     1      -3.400  -1.532   4.963  0.00  0.00    +0.014 A 
ATOM     22  C   UNL     1      -3.296  -0.163   4.831  0.00  0.00    +0.039 A 
ATOM     23  C   UNL     1      -2.103   0.407   4.415  0.00  0.00    +0.123 A 
ATOM     24  C   UNL     1      -1.008  -0.394   4.128  0.00  0.00    +0.039 A 
ATOM     25  C   UNL     1      -1.099  -1.763   4.262  0.00  0.00    +0.014 A 
ATOM     26  F   UNL     1      -2.006   1.749   4.288  0.00  0.00    -0.205 F 
ENDBRANCH  18  20
ENDBRANCH  11  15
BRANCH   1  28
ATOM     27  N   UNL     1       1.888  -5.654   0.335  0.00  0.00    -0.312 N 
ATOM     28  C   UNL     1       1.154  -5.923   1.432  0.00  0.00    +0.218 C 
ATOM     29  O   UNL     1      -0.055  -5.830   1.391  0.00  0.00    -0.275 OA
ATOM     30  H   UNL     1       2.855  -5.728   0.368  0.00  0.00    +0.149 HD
BRANCH  27  31
ATOM     31  C   UNL     1       1.227  -5.249  -0.908  0.00  0.00    +0.145 C 
BRANCH  31  32
ATOM     32  C   UNL     1       2.280  -5.005  -1.991  0.00  0.00    +0.248 C 
BRANCH  32  33
ATOM     33  O   UNL     1       2.941  -6.234  -2.297  0.00  0.00    -0.488 OA
BRANCH  33  38
ATOM     34  C   UNL     1       5.212  -4.952  -4.835  0.00  0.00    +0.004 A 
ATOM     35  C   UNL     1       5.892  -6.105  -5.180  0.00  0.00    +0.003 A 
ATOM     36  C   UNL     1       5.586  -7.303  -4.561  0.00  0.00    +0.042 A 
ATOM     37  C   UNL     1       4.597  -7.350  -3.595  0.00  0.00    +0.165 A 
ATOM     38  C   UNL     1       3.913  -6.192  -3.247  0.00  0.00    +0.156 A 
ATOM     39  C   UNL     1       4.224  -4.993  -3.870  0.00  0.00    +0.048 A 
ATOM     40  F   UNL     1       4.297  -8.520  -2.990  0.00  0.00    -0.202 F 
ENDBRANCH  33  38
ENDBRANCH  32  33
ENDBRANCH  31  32
ENDBRANCH  27  31
ENDBRANCH   1  28
TORSDOF 7
