REMARK  Name = ZINC59461871
REMARK  7 active torsions:
REMARK  status: ('A' for Active; 'I' for Inactive)
REMARK    1  A    between atoms: C_4  and  C_7
REMARK    2  A    between atoms: C_14  and  C_23
REMARK    3  A    between atoms: C_15  and  C_17
REMARK    4  A    between atoms: C_23  and  C_25
REMARK    5  A    between atoms: C_23  and  C_32
REMARK    6  A    between atoms: C_32  and  C_33
REMARK    7  A    between atoms: C_32  and  C_35
REMARK                            x       y       z     vdW  Elec       q    Type
REMARK                         _______ _______ _______ _____ _____    ______ ____
ROOT
ATOM      1  C   UNL     1       3.962  -0.883   1.088  0.00  0.00    +0.080 A 
ATOM      2  C   UNL     1       4.079  -2.238   0.952  0.00  0.00    +0.077 A 
ATOM      3  S   UNL     1       5.798  -2.376   0.482  0.00  0.00    -0.056 S 
ATOM      4  C   UNL     1       6.180  -0.630   0.515  0.00  0.00    +0.196 A 
ATOM      5  N   UNL     1       5.016  -0.113   0.861  0.00  0.00    -0.221 NA
ATOM      6  N   UNL     1       7.381   0.011   0.244  0.00  0.00    -0.194 N 
ATOM      7  C   UNL     1       8.536  -0.586  -0.111  0.00  0.00    +0.278 A 
ATOM      8  C   UNL     1       9.507   0.418  -0.292  0.00  0.00    +0.054 A 
ATOM      9  C   UNL     1       8.920   1.623  -0.042  0.00  0.00    +0.072 A 
ATOM     10  N   UNL     1       7.603   1.394   0.285  0.00  0.00    -0.287 N 
ATOM     11  O   UNL     1       8.709  -1.784  -0.250  0.00  0.00    -0.265 OA
ATOM     12  H   UNL     1       6.945   2.071   0.508  0.00  0.00    +0.188 HD
ENDROOT
BRANCH   1  16
ATOM     13  C   UNL     1       0.244   0.848   2.212  0.00  0.00    +0.000 A 
ATOM     14  C   UNL     1       1.339   1.660   1.978  0.00  0.00    +0.001 A 
ATOM     15  C   UNL     1       2.549   1.104   1.613  0.00  0.00    +0.010 A 
ATOM     16  C   UNL     1       2.665  -0.279   1.481  0.00  0.00    +0.001 A 
ATOM     17  C   UNL     1       1.558  -1.092   1.718  0.00  0.00    +0.010 A 
ATOM     18  C   UNL     1       0.354  -0.525   2.082  0.00  0.00    +0.001 A 
ENDBRANCH   1  16
BRANCH   9  19
ATOM     19  C   UNL     1       9.580   2.942  -0.115  0.00  0.00    +0.000 A 
ATOM     20  C   UNL     1       8.968   3.995  -0.799  0.00  0.00    +0.010 A 
ATOM     21  C   UNL     1       9.590   5.225  -0.863  0.00  0.00    +0.001 A 
ATOM     22  C   UNL     1      10.817   5.416  -0.252  0.00  0.00    +0.000 A 
ATOM     23  C   UNL     1      11.428   4.377   0.427  0.00  0.00    +0.001 A 
ATOM     24  C   UNL     1      10.815   3.144   0.504  0.00  0.00    +0.010 A 
ENDBRANCH   9  19
BRANCH   8  25
ATOM     25  C   UNL     1      10.943   0.199  -0.693  0.00  0.00    +0.087 C 
BRANCH  25  26
ATOM     26  C   UNL     1      11.659  -0.558   0.396  0.00  0.00    -0.037 A 
ATOM     27  C   UNL     1      11.358  -1.888   0.625  0.00  0.00    +0.006 A 
ATOM     28  C   UNL     1      12.013  -2.583   1.623  0.00  0.00    +0.020 A 
ATOM     29  C   UNL     1      12.971  -1.948   2.394  0.00  0.00    +0.041 A 
ATOM     30  C   UNL     1      13.272  -0.618   2.164  0.00  0.00    +0.020 A 
ATOM     31  C   UNL     1      12.619   0.075   1.162  0.00  0.00    +0.006 A 
ATOM     32 CL   UNL     1      13.794  -2.821   3.648  0.00  0.00    -0.084 Cl
ENDBRANCH  25  26
BRANCH  25  33
ATOM     33  C   UNL     1      10.993  -0.607  -1.992  0.00  0.00    +0.205 C 
BRANCH  33  34
ATOM     34  C   UNL     1      10.294   0.133  -3.056  0.00  0.00    +0.082 C 
ATOM     35  N   UNL     1       9.755   0.704  -3.877  0.00  0.00    -0.195 NA
ENDBRANCH  33  34
BRANCH  33  36
ATOM     36  C   UNL     1      12.396  -0.821  -2.384  0.00  0.00    +0.082 C 
ATOM     37  N   UNL     1      13.479  -0.986  -2.686  0.00  0.00    -0.195 NA
ENDBRANCH  33  36
ENDBRANCH  25  33
ENDBRANCH   8  25
TORSDOF 7
