REMARK  Name = ZINC22790695
REMARK  7 active torsions:
REMARK  status: ('A' for Active; 'I' for Inactive)
REMARK    1  A    between atoms: C_4  and  C_7
REMARK    2  A    between atoms: C_7  and  C_8
REMARK    3  A    between atoms: C_8  and  C_9
REMARK    4  A    between atoms: N_13  and  C_17
REMARK    5  A    between atoms: C_17  and  N_18
REMARK    6  A    between atoms: N_21  and  C_24
REMARK    7  A    between atoms: C_24  and  C_25
REMARK                            x       y       z     vdW  Elec       q    Type
REMARK                         _______ _______ _______ _____ _____    ______ ____
ROOT
ATOM      1  C   UNL     1      -4.184  -1.165   4.971  0.00  0.00    +0.204 C 
ENDROOT
BRANCH   1   5
ATOM      2  C   UNL     1      -1.352  -2.692   6.826  0.00  0.00    +0.161 C 
ATOM      3  C   UNL     1      -2.575  -2.795   5.937  0.00  0.00    +0.244 C 
ATOM      4  O   UNL     1      -3.059  -3.805   5.472  0.00  0.00    -0.273 OA
ATOM      5  N   UNL     1      -3.013  -1.532   5.770  0.00  0.00    -0.211 N 
ATOM      6  C   UNL     1      -2.248  -0.654   6.429  0.00  0.00    +0.310 C 
ATOM      7  O   UNL     1      -2.446   0.545   6.433  0.00  0.00    -0.252 OA
ATOM      8  N   UNL     1      -1.235  -1.246   7.087  0.00  0.00    -0.288 N 
ATOM      9  H   UNL     1      -0.421  -0.866   7.721  0.00  0.00    +0.151 HD
BRANCH   2  10
ATOM     10  C   UNL     1      -0.108  -3.210   6.100  0.00  0.00    +0.036 C 
BRANCH  10  11
ATOM     11  C   UNL     1       1.103  -3.108   7.029  0.00  0.00    +0.037 C 
BRANCH  11  15
ATOM     12  C   UNL     1       4.575  -4.555   5.004  0.00  0.00    +0.000 A 
ATOM     13  C   UNL     1       4.234  -3.218   4.922  0.00  0.00    +0.000 A 
ATOM     14  C   UNL     1       3.111  -2.749   5.577  0.00  0.00    +0.003 A 
ATOM     15  C   UNL     1       2.328  -3.619   6.314  0.00  0.00    -0.047 A 
ATOM     16  C   UNL     1       2.672  -4.955   6.400  0.00  0.00    +0.003 A 
ATOM     17  C   UNL     1       3.793  -5.424   5.741  0.00  0.00    +0.000 A 
ENDBRANCH  11  15
ENDBRANCH  10  11
ENDBRANCH   2  10
ENDBRANCH   1   5
BRANCH   1  18
ATOM     18  N   UNL     1      -3.770  -0.906   3.585  0.00  0.00    -0.290 NA
ATOM     19  C   UNL     1      -4.715  -0.002   2.913  0.00  0.00    +0.067 C 
ATOM     20  C   UNL     1      -4.293   0.179   1.454  0.00  0.00    -0.063 C 
ATOM     21  N   UNL     1      -2.927   0.718   1.404  0.00  0.00    +0.384 N 
ATOM     22  C   UNL     1      -1.982  -0.186   2.076  0.00  0.00    -0.063 C 
ATOM     23  C   UNL     1      -2.404  -0.367   3.536  0.00  0.00    +0.067 C 
ATOM     24  H   UNL     1      -2.920   1.677   1.943  0.00  0.00    -0.081 HD
BRANCH  21  25
ATOM     25  C   UNL     1      -2.513   0.977   0.019  0.00  0.00    -0.043 C 
BRANCH  25  26
ATOM     26  C   UNL     1      -1.219   1.750   0.017  0.00  0.00    -0.060 A 
ATOM     27  C   UNL     1      -1.242   3.133   0.033  0.00  0.00    +0.005 A 
ATOM     28  C   UNL     1      -0.058   3.846   0.024  0.00  0.00    +0.050 A 
ATOM     29  C   UNL     1       1.155   3.177   0.008  0.00  0.00    +0.166 A 
ATOM     30  C   UNL     1       1.178   1.784   0.000  0.00  0.00    +0.166 A 
ATOM     31  C   UNL     1      -0.013   1.076   0.008  0.00  0.00    +0.051 A 
ATOM     32  O   UNL     1       2.478   1.369  -0.015  0.00  0.00    -0.453 OA
ATOM     33  C   UNL     1       3.243   2.517  -0.428  0.00  0.00    +0.466 C 
ATOM     34  O   UNL     1       2.441   3.634  -0.002  0.00  0.00    -0.453 OA
ENDBRANCH  25  26
ENDBRANCH  21  25
ENDBRANCH   1  18
TORSDOF 7
