REMARK  Name = ZINC11692860
REMARK  5 active torsions:
REMARK  status: ('A' for Active; 'I' for Inactive)
REMARK    1  A    between atoms: C_1  and  C_2
REMARK    2  A    between atoms: C_3  and  C_23
REMARK    3  A    between atoms: N_6  and  C_7
REMARK    4  A    between atoms: C_13  and  C_16
REMARK    5  A    between atoms: N_25  and  C_26
REMARK                            x       y       z     vdW  Elec       q    Type
REMARK                         _______ _______ _______ _____ _____    ______ ____
ROOT
ATOM      1  C   UNL     1       8.340   3.942   0.933  0.00  0.00    +0.068 C 
ATOM      2  C   UNL     1       7.388   4.755   0.094  0.00  0.00    +0.074 A 
ATOM      3  C   UNL     1       7.539   6.062  -0.273  0.00  0.00    +0.170 A 
ATOM      4  N   UNL     1       6.478   6.420  -1.017  0.00  0.00    -0.124 NA
ATOM      5  N   UNL     1       5.680   5.417  -1.142  0.00  0.00    -0.060 NA
ATOM      6  N   UNL     1       6.222   4.331  -0.440  0.00  0.00    -0.216 N 
ENDROOT
BRANCH   6   7
ATOM      7  C   UNL     1       5.664   3.050  -0.321  0.00  0.00    +0.068 A 
ATOM      8  C   UNL     1       6.512   1.934  -0.285  0.00  0.00    +0.030 A 
ATOM      9  C   UNL     1       6.031   0.671  -0.171  0.00  0.00    +0.034 A 
ATOM     10  C   UNL     1       4.638   0.463  -0.084  0.00  0.00    +0.114 A 
ATOM     11  C   UNL     1       3.748   1.641  -0.122  0.00  0.00    +0.051 A 
ATOM     12  C   UNL     1       4.307   2.918  -0.241  0.00  0.00    +0.041 A 
ATOM     13  C   UNL     1       2.477   1.079  -0.016  0.00  0.00    +0.175 A 
ATOM     14  O   UNL     1       2.669  -0.248   0.075  0.00  0.00    -0.353 OA
ATOM     15  N   UNL     1       3.835  -0.571   0.031  0.00  0.00    -0.078 NA
BRANCH  13  16
ATOM     16  C   UNL     1       1.188   1.793   0.000  0.00  0.00    +0.021 A 
ATOM     17  C   UNL     1       0.216   1.468   0.952  0.00  0.00    +0.013 A 
ATOM     18  C   UNL     1      -0.989   2.136   0.958  0.00  0.00    +0.016 A 
ATOM     19  C   UNL     1      -1.236   3.134   0.030  0.00  0.00    +0.018 A 
ATOM     20  C   UNL     1      -0.278   3.462  -0.916  0.00  0.00    +0.016 A 
ATOM     21  C   UNL     1       0.930   2.799  -0.936  0.00  0.00    +0.013 A 
ATOM     22 BR   UNL     1      -2.891   4.050   0.049  0.00  0.00    -0.050 Br
ENDBRANCH  13  16
ENDBRANCH   6   7
BRANCH   3  23
ATOM     23  C   UNL     1       8.673   6.934   0.087  0.00  0.00    +0.266 C 
ATOM     24  O   UNL     1       9.581   6.499   0.768  0.00  0.00    -0.268 OA
ATOM     25  N   UNL     1       8.703   8.212  -0.340  0.00  0.00    -0.307 N 
ATOM     26  H   UNL     1       7.978   8.558  -0.884  0.00  0.00    +0.149 HD
BRANCH  25  27
ATOM     27  C   UNL     1       9.830   9.077   0.017  0.00  0.00    +0.073 C 
ATOM     28  C   UNL     1       9.580   9.697   1.394  0.00  0.00    +0.022 C 
ATOM     29  C   UNL     1      10.757  10.601   1.767  0.00  0.00    +0.002 C 
ATOM     30  C   UNL     1      10.897  11.712   0.725  0.00  0.00    +0.000 C 
ATOM     31  C   UNL     1      11.146  11.093  -0.652  0.00  0.00    +0.002 C 
ATOM     32  C   UNL     1       9.969  10.189  -1.025  0.00  0.00    +0.022 C 
ENDBRANCH  25  27
ENDBRANCH   3  23
TORSDOF 4
