REMARK  Name = ZINC51096660
REMARK  3 active torsions:
REMARK  status: ('A' for Active; 'I' for Inactive)
REMARK    1  A    between atoms: C_10  and  C_12
REMARK    2  A    between atoms: C_17  and  N_18
REMARK    3  A    between atoms: N_18  and  N_19
REMARK                            x       y       z     vdW  Elec       q    Type
REMARK                         _______ _______ _______ _____ _____    ______ ____
ROOT
ATOM      1  C   UNL     1       1.765  -4.598   0.476  0.00  0.00    +0.000 A 
ATOM      2  C   UNL     1       3.099  -4.545   0.112  0.00  0.00    +0.002 A 
ATOM      3  C   UNL     1       3.746  -3.332   0.021  0.00  0.00    +0.024 A 
ATOM      4  C   UNL     1       3.061  -2.146   0.296  0.00  0.00    +0.040 A 
ATOM      5  C   UNL     1       1.725  -2.210   0.659  0.00  0.00    -0.024 A 
ATOM      6  C   UNL     1       1.081  -3.429   0.749  0.00  0.00    +0.005 A 
ATOM      7  C   UNL     1       1.224  -0.803   0.899  0.00  0.00    +0.056 C 
ATOM      8  C   UNL     1       2.443   0.093   0.628  0.00  0.00    +0.118 C 
ATOM      9  N   UNL     1       3.523  -0.828   0.264  0.00  0.00    -0.267 N 
ATOM     10  C   UNL     1       4.780  -0.458  -0.055  0.00  0.00    +0.253 C 
ATOM     11  O   UNL     1       5.630  -1.303  -0.257  0.00  0.00    -0.270 OA
ENDROOT
BRANCH  10  12
ATOM     12  C   UNL     1       5.123   0.972  -0.159  0.00  0.00    +0.059 A 
ATOM     13  C   UNL     1       4.770   1.856   0.865  0.00  0.00    +0.015 A 
ATOM     14  C   UNL     1       5.094   3.191   0.762  0.00  0.00    +0.001 A 
ATOM     15  C   UNL     1       5.769   3.664  -0.353  0.00  0.00    +0.002 A 
ATOM     16  C   UNL     1       6.123   2.804  -1.372  0.00  0.00    +0.025 A 
ATOM     17  C   UNL     1       5.811   1.453  -1.284  0.00  0.00    +0.053 A 
BRANCH  17  18
ATOM     18  N   UNL     1       6.172   0.585  -2.305  0.00  0.00    -0.282 N 
ATOM     19  H   UNL     1       5.891  -0.343  -2.275  0.00  0.00    +0.166 HD
BRANCH  18  20
ATOM     20  N   UNL     1       6.924   1.037  -3.352  0.00  0.00    -0.256 NA
ATOM     21  H   UNL     1       7.784   1.452  -3.027  0.00  0.00    +0.140 HD
ATOM     22  H   UNL     1       7.106   0.297  -4.013  0.00  0.00    +0.140 HD
ENDBRANCH  18  20
ENDBRANCH  17  18
ENDBRANCH  10  12
TORSDOF 3
