REMARK  Name = ZINC28855720
REMARK  7 active torsions:
REMARK  status: ('A' for Active; 'I' for Inactive)
REMARK    1  A    between atoms: C_1  and  C_2
REMARK    2  A    between atoms: C_2  and  O_3
REMARK    3  A    between atoms: O_3  and  C_4
REMARK    4  A    between atoms: C_11  and  C_18
REMARK    5  A    between atoms: C_13  and  O_14
REMARK    6  A    between atoms: C_18  and  O_19
REMARK    7  A    between atoms: O_19  and  C_20
REMARK                            x       y       z     vdW  Elec       q    Type
REMARK                         _______ _______ _______ _____ _____    ______ ____
ROOT
ATOM      1  C   UNL     1      -2.580   4.966   0.722  0.00  0.00    +0.405 C 
ATOM      2  O   UNL     1      -1.607   5.475   1.242  0.00  0.00    -0.226 OA
ATOM      3  N   UNL     1      -2.453   3.807   0.045  0.00  0.00    -0.251 N 
ATOM      4  C   UNL     1      -1.226   3.143   0.023  0.00  0.00    +0.040 A 
ATOM      5  C   UNL     1      -1.194   1.749   0.014  0.00  0.00    +0.024 A 
ATOM      6  C   UNL     1      -0.002   1.085  -0.002  0.00  0.00    +0.014 A 
ATOM      7  C   UNL     1       1.196   1.808  -0.023  0.00  0.00    +0.024 A 
ATOM      8  C   UNL     1       2.490   1.123  -0.047  0.00  0.00    +0.007 A 
ATOM      9  C   UNL     1       3.618   1.880  -0.068  0.00  0.00    +0.095 A 
ATOM     10  C   UNL     1       3.518   3.286  -0.064  0.00  0.00    +0.285 A 
ATOM     11  O   UNL     1       2.329   3.909  -0.041  0.00  0.00    -0.425 OA
ATOM     12  C   UNL     1       1.171   3.216  -0.020  0.00  0.00    +0.141 A 
ATOM     13  C   UNL     1      -0.049   3.875   0.003  0.00  0.00    +0.070 A 
ATOM     14  H   UNL     1      -3.317   3.385  -0.489  0.00  0.00    +0.158 HD
ENDROOT
BRANCH  10  15
ATOM     15  O   UNL     1       4.537   3.953  -0.082  0.00  0.00    -0.480 OA
ATOM     16  H   UNL     1       4.476   5.052  -0.079  0.00  0.00    +0.295 HD
ENDBRANCH  10  15
BRANCH   1  17
ATOM     17  O   UNL     1      -3.785   5.560   0.820  0.00  0.00    -0.450 OA
BRANCH  17  19
ATOM     18  C   UNL     1      -5.285   7.326   1.567  0.00  0.00    +0.048 C 
ATOM     19  C   UNL     1      -3.846   6.806   1.563  0.00  0.00    +0.230 C 
ENDBRANCH  17  19
ENDBRANCH   1  17
BRANCH   8  20
ATOM     20  C   UNL     1       2.568  -0.382  -0.050  0.00  0.00    +0.265 C 
BRANCH  20  21
ATOM     21  O   UNL     1       3.938  -0.788  -0.075  0.00  0.00    -0.487 OA
BRANCH  21  22
ATOM     22  C   UNL     1       4.186  -2.124  -0.081  0.00  0.00    +0.122 A 
ATOM     23  C   UNL     1       5.493  -2.589  -0.105  0.00  0.00    +0.046 A 
ATOM     24  C   UNL     1       5.742  -3.947  -0.111  0.00  0.00    +0.005 A 
ATOM     25  C   UNL     1       4.691  -4.845  -0.092  0.00  0.00    +0.014 A 
ATOM     26  C   UNL     1       3.387  -4.385  -0.068  0.00  0.00    +0.017 A 
ATOM     27  C   UNL     1       3.132  -3.026  -0.057  0.00  0.00    +0.060 A 
ATOM     28  I   UNL     1       1.796  -5.748  -0.039  0.00  0.00    -0.044 I 
ENDBRANCH  21  22
ENDBRANCH  20  21
ENDBRANCH   8  20
TORSDOF 6
