REMARK  Name = ZINC08827502
REMARK  8 active torsions:
REMARK  status: ('A' for Active; 'I' for Inactive)
REMARK    1  A    between atoms: C_1  and  C_2
REMARK    2  A    between atoms: C_2  and  N_65
REMARK    3  A    between atoms: N_5  and  C_8
REMARK    4  A    between atoms: C_9  and  C_20
REMARK    5  A    between atoms: C_14  and  C_19
REMARK    6  A    between atoms: N_24  and  C_28
REMARK    7  A    between atoms: C_28  and  C_30
REMARK    8  A    between atoms: C_28  and  C_31
REMARK                            x       y       z     vdW  Elec       q    Type
REMARK                         _______ _______ _______ _____ _____    ______ ____
ROOT
ATOM      1  C   UNL     1       7.478   1.475   5.932  0.00  0.00    +0.136 A 
ATOM      2  C   UNL     1       6.870   1.887   4.722  0.00  0.00    +0.081 A 
ATOM      3  C   UNL     1       7.093   3.211   4.275  0.00  0.00    +0.267 A 
ATOM      4  O   UNL     1       6.586   3.609   3.240  0.00  0.00    -0.267 OA
ATOM      5  N   UNL     1       7.877   4.025   5.013  0.00  0.00    -0.267 N 
ATOM      6  C   UNL     1       8.097   5.302   4.590  0.00  0.00    +0.099 A 
ATOM      7  C   UNL     1       8.877   6.144   5.305  0.00  0.00    -0.034 A 
ATOM      8  C   UNL     1       9.472   5.708   6.497  0.00  0.00    +0.008 A 
ATOM      9  C   UNL     1       9.258   4.433   6.929  0.00  0.00    +0.047 A 
ATOM     10  C   UNL     1       8.443   3.572   6.172  0.00  0.00    +0.142 A 
ATOM     11  N   UNL     1       8.239   2.327   6.603  0.00  0.00    -0.214 NA
ATOM     12  C   UNL     1       9.107   7.552   4.820  0.00  0.00    +0.045 C 
ENDROOT
BRANCH   2  13
ATOM     13  C   UNL     1       6.055   0.999   3.981  0.00  0.00    +0.037 C 
ATOM     14  C   UNL     1       6.554  -0.203   3.570  0.00  0.00    +0.077 C 
ATOM     15  C   UNL     1       5.948  -1.207   2.761  0.00  0.00    +0.259 C 
ATOM     16  O   UNL     1       4.820  -1.062   2.324  0.00  0.00    -0.269 OA
ATOM     17  N   UNL     1       6.643  -2.301   2.501  0.00  0.00    -0.248 N 
ATOM     18  C   UNL     1       7.896  -2.458   2.982  0.00  0.00    +0.121 C 
ATOM     19  S   UNL     1       8.970  -3.775   2.768  0.00  0.00    -0.027 S 
ATOM     20  S   UNL     1       8.148  -0.944   3.896  0.00  0.00    -0.061 S 
BRANCH  17  21
ATOM     21  C   UNL     1       6.048  -3.355   1.676  0.00  0.00    +0.110 C 
ATOM     22  C   UNL     1       5.871  -4.621   2.516  0.00  0.00    +0.033 C 
BRANCH  21  23
ATOM     23  C   UNL     1       6.954  -3.649   0.508  0.00  0.00    -0.027 A 
ATOM     24  C   UNL     1       7.139  -4.953   0.089  0.00  0.00    +0.005 A 
ATOM     25  C   UNL     1       7.974  -5.224  -0.979  0.00  0.00    +0.000 A 
ATOM     26  C   UNL     1       8.616  -4.189  -1.635  0.00  0.00    +0.000 A 
ATOM     27  C   UNL     1       8.429  -2.885  -1.216  0.00  0.00    +0.000 A 
ATOM     28  C   UNL     1       7.598  -2.615  -0.145  0.00  0.00    +0.005 A 
ENDBRANCH  21  23
ENDBRANCH  17  21
ENDBRANCH   2  13
BRANCH   1  31
ATOM     29  C   UNL     1       7.975  -1.534   7.993  0.00  0.00    -0.060 C 
ATOM     30  C   UNL     1       8.165  -0.082   7.547  0.00  0.00    +0.088 C 
ATOM     31  N   UNL     1       7.282   0.197   6.406  0.00  0.00    -0.318 N 
ATOM     32  C   UNL     1       5.875  -0.022   6.768  0.00  0.00    +0.088 C 
ATOM     33  C   UNL     1       5.685  -1.474   7.214  0.00  0.00    -0.060 C 
ATOM     34  N   UNL     1       6.561  -1.734   8.375  0.00  0.00    +0.382 N 
ATOM     35  H   UNL     1       6.322  -1.077   9.127  0.00  0.00    -0.082 HD
BRANCH  34  37
ATOM     36  C   UNL     1       4.954  -3.230   9.456  0.00  0.00    -0.017 C 
ATOM     37  C   UNL     1       6.359  -3.116   8.861  0.00  0.00    -0.082 C 
ENDBRANCH  34  37
ENDBRANCH   1  31
TORSDOF 5
