REMARK  Name = ZINC25521537
REMARK  9 active torsions:
REMARK  status: ('A' for Active; 'I' for Inactive)
REMARK    1  A    between atoms: C_1  and  N_2
REMARK    2  A    between atoms: N_2  and  C_3
REMARK    3  A    between atoms: N_2  and  C_4
REMARK    4  A    between atoms: C_4  and  C_5
REMARK    5  A    between atoms: C_8  and  C_11
REMARK    6  A    between atoms: C_16  and  C_17
REMARK    7  A    between atoms: C_17  and  N_18
REMARK    8  A    between atoms: C_19  and  C_21
REMARK    9  A    between atoms: C_21  and  N_22
REMARK                            x       y       z     vdW  Elec       q    Type
REMARK                         _______ _______ _______ _____ _____    ______ ____
ROOT
ATOM      1  C   UNL     1      -0.770   4.303  -0.983  0.00  0.00    -0.013 A 
ATOM      2  C   UNL     1      -0.468   5.656  -0.846  0.00  0.00    +0.009 A 
ATOM      3  C   UNL     1      -0.503   6.245   0.402  0.00  0.00    +0.001 A 
ATOM      4  C   UNL     1      -0.841   5.496   1.514  0.00  0.00    +0.000 A 
ATOM      5  C   UNL     1      -1.146   4.153   1.383  0.00  0.00    +0.006 A 
ATOM      6  C   UNL     1      -1.115   3.554   0.140  0.00  0.00    -0.023 A 
ENDROOT
BRANCH   1  10
ATOM      7  C   UNL     1      -0.652   2.468  -4.817  0.00  0.00    -0.064 A 
ATOM      8  C   UNL     1      -1.810   2.415  -4.063  0.00  0.00    +0.002 A 
ATOM      9  C   UNL     1      -1.854   3.009  -2.818  0.00  0.00    +0.009 A 
ATOM     10  C   UNL     1      -0.729   3.662  -2.321  0.00  0.00    -0.018 A 
ATOM     11  C   UNL     1       0.434   3.717  -3.087  0.00  0.00    +0.009 A 
ATOM     12  C   UNL     1       0.469   3.115  -4.328  0.00  0.00    +0.002 A 
BRANCH   7  13
ATOM     13  C   UNL     1      -0.610   1.818  -6.176  0.00  0.00    -0.044 C 
BRANCH  13  15
ATOM     14  C   UNL     1      -0.058   3.888  -7.304  0.00  0.00    -0.096 C 
ATOM     15  N   UNL     1      -1.027   2.789  -7.196  0.00  0.00    +0.379 N 
ATOM     16  C   UNL     1      -1.228   2.135  -8.496  0.00  0.00    -0.096 C 
ATOM     17  H   UNL     1      -1.990   3.218  -6.881  0.00  0.00    -0.082 HD
ENDBRANCH  13  15
ENDBRANCH   7  13
ENDBRANCH   1  10
BRANCH   6  18
ATOM     18  C   UNL     1      -1.447   2.091  -0.001  0.00  0.00    +0.140 C 
BRANCH  18  19
ATOM     19  N   UNL     1      -0.215   1.329  -0.222  0.00  0.00    -0.310 N 
ATOM     20  C   UNL     1      -0.277   0.009  -0.487  0.00  0.00    +0.231 C 
ATOM     21  O   UNL     1      -1.353  -0.549  -0.537  0.00  0.00    -0.274 OA
ATOM     22  H   UNL     1       0.760   1.835  -0.172  0.00  0.00    +0.149 HD
BRANCH  20  23
ATOM     23  C   UNL     1       0.989  -0.773  -0.721  0.00  0.00    +0.209 C 
BRANCH  23  24
ATOM     24  N   UNL     1       0.656  -2.174  -0.987  0.00  0.00    -0.257 N 
ATOM     25  C   UNL     1       0.569  -3.097   0.065  0.00  0.00    +0.079 A 
ATOM     26  C   UNL     1       0.479  -2.667   1.379  0.00  0.00    +0.027 A 
ATOM     27  C   UNL     1       0.396  -3.594   2.402  0.00  0.00    +0.002 A 
ATOM     28  C   UNL     1       0.402  -4.947   2.117  0.00  0.00    +0.004 A 
ATOM     29  C   UNL     1       0.482  -5.381   0.809  0.00  0.00    +0.047 A 
ATOM     30  C   UNL     1       0.571  -4.460  -0.220  0.00  0.00    +0.143 A 
ATOM     31  O   UNL     1       0.664  -4.872  -1.513  0.00  0.00    -0.481 OA
ATOM     32  C   UNL     1       0.054  -4.036  -2.500  0.00  0.00    +0.325 C 
ATOM     33  C   UNL     1       0.433  -2.599  -2.250  0.00  0.00    +0.258 C 
ATOM     34  O   UNL     1       0.536  -1.826  -3.179  0.00  0.00    -0.271 OA
ENDBRANCH  23  24
ENDBRANCH  20  23
ENDBRANCH  18  19
ENDBRANCH   6  18
TORSDOF 7
