REMARK  Name = ZINC63256826
REMARK  9 active torsions:
REMARK  status: ('A' for Active; 'I' for Inactive)
REMARK    1  A    between atoms: C_8  and  C_10
REMARK    2  A    between atoms: C_10  and  C_12
REMARK    3  A    between atoms: C_12  and  O_13
REMARK    4  A    between atoms: O_13  and  C_14
REMARK    5  A    between atoms: C_14  and  C_16
REMARK    6  A    between atoms: C_16  and  C_18
REMARK    7  A    between atoms: C_16  and  N_28
REMARK    8  A    between atoms: C_18  and  C_19
REMARK    9  A    between atoms: C_29  and  C_31
REMARK                            x       y       z     vdW  Elec       q    Type
REMARK                         _______ _______ _______ _____ _____    ______ ____
ROOT
ATOM      1  C   UNL     1       7.772  -5.981  -0.110  0.00  0.00    +0.186 C 
ENDROOT
BRANCH   1   2
ATOM      2  N   UNL     1       9.158  -5.861   0.350  0.00  0.00    -0.298 N 
ATOM      3  C   UNL     1      10.025  -5.075  -0.321  0.00  0.00    +0.251 C 
ATOM      4  O   UNL     1       9.656  -4.466  -1.308  0.00  0.00    -0.270 OA
ATOM      5  H   UNL     1       9.452  -6.346   1.136  0.00  0.00    +0.150 HD
BRANCH   3   6
ATOM      6  C   UNL     1      11.411  -4.955   0.139  0.00  0.00    +0.074 A 
ATOM      7  C   UNL     1      12.448  -4.206  -0.397  0.00  0.00    +0.021 A 
ATOM      8  C   UNL     1      13.651  -4.296   0.260  0.00  0.00    +0.008 A 
ATOM      9  C   UNL     1      13.746  -5.088   1.357  0.00  0.00    +0.046 A 
ATOM     10  S   UNL     1      12.203  -5.728   1.536  0.00  0.00    -0.092 S 
ENDBRANCH   3   6
ENDBRANCH   1   2
BRANCH   1  11
ATOM     11  C   UNL     1       7.119  -4.622  -0.095  0.00  0.00    +0.328 C 
ATOM     12  O   UNL     1       7.800  -3.624  -0.096  0.00  0.00    -0.249 OA
BRANCH  11  13
ATOM     13  O   UNL     1       5.781  -4.522  -0.081  0.00  0.00    -0.455 OA
BRANCH  13  14
ATOM     14  C   UNL     1       5.229  -3.203  -0.068  0.00  0.00    +0.314 C 
BRANCH  14  15
ATOM     15  C   UNL     1       3.725  -3.288  -0.053  0.00  0.00    +0.235 C 
ATOM     16  O   UNL     1       3.178  -4.372  -0.054  0.00  0.00    -0.285 OA
BRANCH  15  24
ATOM     17  C   UNL     1      -0.016   1.361   0.009  0.00  0.00    +0.001 A 
ATOM     18  C   UNL     1       1.170   2.082   0.002  0.00  0.00    +0.004 A 
ATOM     19  C   UNL     1       2.387   1.435  -0.013  0.00  0.00    +0.047 A 
ATOM     20  C   UNL     1       2.431   0.045  -0.021  0.00  0.00    +0.136 A 
ATOM     21  C   UNL     1       1.226  -0.682  -0.013  0.00  0.00    +0.021 A 
ATOM     22  C   UNL     1       0.002  -0.004   0.002  0.00  0.00    +0.011 A 
ATOM     23  C   UNL     1       1.588  -2.053  -0.025  0.00  0.00    +0.061 A 
ATOM     24  C   UNL     1       2.948  -2.102  -0.039  0.00  0.00    +0.175 A 
ATOM     25  O   UNL     1       3.443  -0.845  -0.037  0.00  0.00    -0.452 OA
ENDBRANCH  15  24
ENDBRANCH  14  15
ENDBRANCH  13  14
ENDBRANCH  11  13
ENDBRANCH   1  11
BRANCH   1  26
ATOM     26  C   UNL     1       7.753  -6.541  -1.533  0.00  0.00    +0.067 C 
BRANCH  26  27
ATOM     27  C   UNL     1       8.294  -7.947  -1.527  0.00  0.00    -0.039 C 
ATOM     28  C   UNL     1       7.579  -9.093  -1.459  0.00  0.00    -0.001 A 
ATOM     29  C   UNL     1       6.139  -9.363  -1.372  0.00  0.00    +0.010 A 
ATOM     30  C   UNL     1       5.714 -10.646  -1.316  0.00  0.00    +0.001 A 
ATOM     31  C   UNL     1       6.612 -11.721  -1.338  0.00  0.00    +0.002 A 
ATOM     32  C   UNL     1       7.949 -11.553  -1.416  0.00  0.00    +0.026 A 
ATOM     33  C   UNL     1       8.507 -10.246  -1.481  0.00  0.00    +0.043 A 
ATOM     34  N   UNL     1       9.748  -9.830  -1.559  0.00  0.00    -0.380 N 
ATOM     35  C   UNL     1       9.746  -8.363  -1.602  0.00  0.00    +0.144 C 
ATOM     36  H   UNL     1      10.534 -10.396  -1.588  0.00  0.00    +0.160 HD
ENDBRANCH  26  27
ENDBRANCH   1  26
TORSDOF 9
