REMARK  Name = ZINC03567153
REMARK  9 active torsions:
REMARK  status: ('A' for Active; 'I' for Inactive)
REMARK    1  A    between atoms: C_1  and  C_2
REMARK    2  A    between atoms: C_2  and  N_3
REMARK    3  A    between atoms: C_7  and  C_9
REMARK    4  A    between atoms: C_9  and  S_10
REMARK    5  A    between atoms: S_10  and  C_11
REMARK    6  A    between atoms: C_14  and  C_24
REMARK    7  A    between atoms: N_15  and  C_16
REMARK    8  A    between atoms: C_19  and  C_23
REMARK    9  A    between atoms: C_20  and  C_22
REMARK                            x       y       z     vdW  Elec       q    Type
REMARK                         _______ _______ _______ _____ _____    ______ ____
ROOT
ATOM      1  C   UNL     1       1.870   5.632  -0.147  0.00  0.00    +0.197 A 
ATOM      2  N   UNL     1       0.604   5.572   0.205  0.00  0.00    -0.122 NA
ATOM      3  N   UNL     1       0.228   4.347   0.297  0.00  0.00    -0.128 NA
ATOM      4  C   UNL     1       1.229   3.547   0.009  0.00  0.00    +0.169 A 
ATOM      5  N   UNL     1       2.315   4.346  -0.278  0.00  0.00    -0.270 N 
ENDROOT
BRANCH   5   6
ATOM      6  C   UNL     1       3.604   3.927  -0.634  0.00  0.00    +0.051 A 
ATOM      7  C   UNL     1       3.811   3.246  -1.826  0.00  0.00    +0.026 A 
ATOM      8  C   UNL     1       5.082   2.835  -2.174  0.00  0.00    +0.005 A 
ATOM      9  C   UNL     1       6.150   3.103  -1.336  0.00  0.00    -0.047 A 
ATOM     10  C   UNL     1       5.948   3.781  -0.149  0.00  0.00    -0.046 A 
ATOM     11  C   UNL     1       4.679   4.199   0.202  0.00  0.00    +0.030 A 
ATOM     12  C   UNL     1       7.114   4.071   0.761  0.00  0.00    +0.044 C 
ATOM     13  C   UNL     1       7.537   2.654  -1.719  0.00  0.00    +0.044 C 
ENDBRANCH   5   6
BRANCH   4  14
ATOM     14  C   UNL     1       1.199   2.070   0.002  0.00  0.00    +0.022 A 
ATOM     15  C   UNL     1      -0.017   1.375   0.010  0.00  0.00    +0.031 A 
ATOM     16  C   UNL     1       0.002  -0.004   0.002  0.00  0.00    +0.111 A 
ATOM     17  N   UNL     1       1.143  -0.666  -0.013  0.00  0.00    -0.263 NA
ATOM     18  C   UNL     1       2.311  -0.051  -0.021  0.00  0.00    +0.111 A 
ATOM     19  C   UNL     1       2.385   1.326  -0.014  0.00  0.00    +0.031 A 
ENDBRANCH   4  14
BRANCH   1  20
ATOM     20  S   UNL     1       2.818   7.096  -0.396  0.00  0.00    -0.076 S 
BRANCH  20  21
ATOM     21  C   UNL     1       1.562   8.349  -0.032  0.00  0.00    +0.173 C 
BRANCH  21  26
ATOM     22  N   UNL     1       1.192  13.139   0.121  0.00  0.00    -0.299 N 
ATOM     23  C   UNL     1       1.947  12.045  -0.101  0.00  0.00    +0.306 C 
ATOM     24  O   UNL     1       3.112  12.165  -0.425  0.00  0.00    -0.252 OA
ATOM     25  N   UNL     1       1.409  10.817   0.036  0.00  0.00    -0.240 N 
ATOM     26  C   UNL     1       2.163   9.722  -0.186  0.00  0.00    +0.231 C 
ATOM     27  O   UNL     1       3.326   9.842  -0.509  0.00  0.00    -0.274 OA
ATOM     28  H   UNL     1       0.262  13.043   0.379  0.00  0.00    +0.150 HD
ATOM     29  H   UNL     1       0.479  10.720   0.294  0.00  0.00    +0.159 HD
BRANCH  22  31
ATOM     30  C   UNL     1       0.716  15.533   0.279  0.00  0.00    +0.024 C 
ATOM     31  C   UNL     1       1.777  14.474  -0.029  0.00  0.00    +0.102 C 
ENDBRANCH  22  31
ENDBRANCH  21  26
ENDBRANCH  20  21
ENDBRANCH   1  20
TORSDOF 6
