REMARK  Name = ZINC40383408
REMARK  4 active torsions:
REMARK  status: ('A' for Active; 'I' for Inactive)
REMARK    1  A    between atoms: C_1  and  C_2
REMARK    2  A    between atoms: C_5  and  C_34
REMARK    3  A    between atoms: C_22  and  C_24
REMARK    4  A    between atoms: N_26  and  C_27
REMARK                            x       y       z     vdW  Elec       q    Type
REMARK                         _______ _______ _______ _____ _____    ______ ____
ROOT
ATOM      1  C   UNL     1      -2.893  -1.879   1.086  0.00  0.00    +0.009 C 
ATOM      2  C   UNL     1      -1.451  -1.412   1.293  0.00  0.00    +0.004 C 
ATOM      3  C   UNL     1      -1.345   0.078   0.964  0.00  0.00    +0.009 C 
ATOM      4  C   UNL     1       0.090   0.554   1.202  0.00  0.00    +0.004 C 
ATOM      5  C   UNL     1       1.039  -0.215   0.276  0.00  0.00    +0.111 C 
ATOM      6  N   UNL     1       0.838  -1.655   0.484  0.00  0.00    -0.301 N 
ATOM      7  C   UNL     1      -0.520  -2.204   0.369  0.00  0.00    +0.111 C 
ATOM      8  C   UNL     1       1.897  -2.472   0.780  0.00  0.00    +0.200 A 
ATOM      9  N   UNL     1       3.156  -1.956   0.771  0.00  0.00    -0.295 N 
ATOM     10  H   UNL     1       3.295  -1.018   0.569  0.00  0.00    +0.172 HD
ATOM     11  C   UNL     1       4.214  -2.751   1.043  0.00  0.00    +0.258 A 
ATOM     12  O   UNL     1       5.350  -2.305   1.023  0.00  0.00    -0.267 OA
ATOM     13  C   UNL     1       3.981  -4.096   1.349  0.00  0.00    +0.069 A 
ATOM     14  C   UNL     1       2.680  -4.567   1.365  0.00  0.00    +0.138 A 
ATOM     15  N   UNL     1       1.673  -3.736   1.071  0.00  0.00    -0.200 NA
ATOM     16  N   UNL     1       2.419  -5.882   1.707  0.00  0.00    -0.270 N 
ATOM     17  C   UNL     1       3.365  -6.650   2.274  0.00  0.00    +0.219 C 
ATOM     18  O   UNL     1       3.147  -7.827   2.465  0.00  0.00    -0.275 OA
ATOM     19  C   UNL     1       4.694  -6.065   2.675  0.00  0.00    +0.114 C 
ATOM     20  C   UNL     1       5.130  -5.021   1.645  0.00  0.00    +0.122 C 
ATOM     21  C   UNL     1       0.188   2.051   0.904  0.00  0.00    +0.009 C 
ATOM     22  H   UNL     1       1.540  -6.255   1.535  0.00  0.00    +0.156 HD
ENDROOT
BRANCH  20  23
ATOM     23  C   UNL     1       6.286  -4.226   2.196  0.00  0.00    +0.225 C 
ATOM     24  O   UNL     1       6.186  -3.678   3.273  0.00  0.00    -0.275 OA
ATOM     25  N   UNL     1       7.429  -4.122   1.490  0.00  0.00    -0.285 N 
ATOM     26  H   UNL     1       7.484  -4.496   0.597  0.00  0.00    +0.155 HD
BRANCH  25  27
ATOM     27  C   UNL     1       8.539  -3.476   2.047  0.00  0.00    +0.033 A 
ATOM     28  C   UNL     1       9.405  -2.757   1.234  0.00  0.00    +0.024 A 
ATOM     29  C   UNL     1      10.499  -2.119   1.786  0.00  0.00    +0.017 A 
ATOM     30  C   UNL     1      10.732  -2.196   3.148  0.00  0.00    +0.018 A 
ATOM     31  C   UNL     1       9.870  -2.912   3.960  0.00  0.00    +0.017 A 
ATOM     32  C   UNL     1       8.772  -3.547   3.414  0.00  0.00    +0.024 A 
ATOM     33 BR   UNL     1      12.231  -1.323   3.900  0.00  0.00    -0.050 Br
ENDBRANCH  25  27
ENDBRANCH  20  23
TORSDOF 2
