REMARK  Name = ZINC04750519
REMARK  2 active torsions:
REMARK  status: ('A' for Active; 'I' for Inactive)
REMARK    1  A    between atoms: C_8  and  C_16
REMARK    2  A    between atoms: N_10  and  N_11
REMARK                            x       y       z     vdW  Elec       q    Type
REMARK                         _______ _______ _______ _____ _____    ______ ____
ROOT
ATOM      1  C   UNL     1       1.343   9.252   1.933  0.00  0.00    +0.001 A 
ATOM      2  C   UNL     1       2.499   8.541   1.649  0.00  0.00    +0.004 A 
ATOM      3  C   UNL     1       2.438   7.349   0.952  0.00  0.00    +0.047 A 
ATOM      4  C   UNL     1       1.215   6.855   0.532  0.00  0.00    +0.138 A 
ATOM      5  C   UNL     1       0.040   7.571   0.821  0.00  0.00    +0.018 A 
ATOM      6  C   UNL     1       0.115   8.776   1.526  0.00  0.00    +0.011 A 
ATOM      7  C   UNL     1      -1.256   7.040   0.378  0.00  0.00    +0.028 A 
ATOM      8  C   UNL     1      -1.294   5.740  -0.062  0.00  0.00    +0.081 A 
ATOM      9  C   UNL     1      -0.021   4.984  -0.051  0.00  0.00    +0.246 A 
ATOM     10  N   UNL     1      -0.013   3.683   0.057  0.00  0.00    -0.140 NA
ATOM     11  O   UNL     1       1.141   5.689  -0.153  0.00  0.00    -0.436 OA
ENDROOT
BRANCH   8  12
ATOM     12  C   UNL     1      -2.550   5.123  -0.525  0.00  0.00    +0.144 A 
ATOM     13  N   UNL     1      -3.807   5.502  -0.133  0.00  0.00    -0.338 N 
ATOM     14  H   UNL     1      -4.033   6.235   0.509  0.00  0.00    +0.167 HD
ATOM     15  C   UNL     1      -4.705   4.682  -0.789  0.00  0.00    +0.066 A 
ATOM     16  C   UNL     1      -6.089   4.583  -0.801  0.00  0.00    +0.028 A 
ATOM     17  C   UNL     1      -6.700   3.630  -1.587  0.00  0.00    +0.002 A 
ATOM     18  C   UNL     1      -5.941   2.769  -2.367  0.00  0.00    +0.002 A 
ATOM     19  C   UNL     1      -4.577   2.850  -2.370  0.00  0.00    +0.030 A 
ATOM     20  C   UNL     1      -3.935   3.810  -1.580  0.00  0.00    +0.089 A 
ATOM     21  N   UNL     1      -2.634   4.131  -1.381  0.00  0.00    -0.228 NA
ENDBRANCH   8  12
BRANCH  10  22
ATOM     22  N   UNL     1      -1.198   2.997   0.350  0.00  0.00    -0.188 N 
ATOM     23  C   UNL     1      -1.215   1.649   0.345  0.00  0.00    +0.317 C 
ATOM     24  O   UNL     1      -2.244   1.053   0.599  0.00  0.00    -0.251 OA
ATOM     25  N   UNL     1      -0.092   0.962   0.058  0.00  0.00    -0.312 N 
ATOM     26  H   UNL     1      -2.007   3.491   0.556  0.00  0.00    +0.179 HD
ATOM     27  H   UNL     1      -0.104  -0.008   0.054  0.00  0.00    +0.147 HD
ATOM     28  H   UNL     1       0.728   1.438  -0.148  0.00  0.00    +0.147 HD
ENDBRANCH  10  22
TORSDOF 2
