REMARK  Name = ZINC19317436
REMARK  13 active torsions:
REMARK  status: ('A' for Active; 'I' for Inactive)
REMARK    1  A    between atoms: C_1  and  N_2
REMARK    2  A    between atoms: N_2  and  C_3
REMARK    3  A    between atoms: N_2  and  C_4
REMARK    4  A    between atoms: C_7  and  C_10
REMARK    5  A    between atoms: C_10  and  N_11
REMARK    6  A    between atoms: N_11  and  C_12
REMARK    7  A    between atoms: C_13  and  C_15
REMARK    8  A    between atoms: C_15  and  S_16
REMARK    9  A    between atoms: S_16  and  C_17
REMARK   10  A    between atoms: C_20  and  C_29
REMARK   11  A    between atoms: N_21  and  C_22
REMARK   12  A    between atoms: C_22  and  C_23
REMARK   13  A    between atoms: C_29  and  N_30
REMARK                            x       y       z     vdW  Elec       q    Type
REMARK                         _______ _______ _______ _____ _____    ______ ____
ROOT
ATOM      1  C   UNL     1      -4.382   0.864  -4.822  0.00  0.00    +0.192 A 
ATOM      2  N   UNL     1      -4.021   2.026  -5.315  0.00  0.00    -0.123 NA
ATOM      3  N   UNL     1      -4.735   2.303  -6.347  0.00  0.00    -0.135 NA
ATOM      4  C   UNL     1      -5.587   1.343  -6.573  0.00  0.00    +0.118 A 
ATOM      5  N   UNL     1      -5.389   0.390  -5.613  0.00  0.00    -0.303 N 
ENDROOT
BRANCH   1   6
ATOM      6  S   UNL     1      -3.693   0.065  -3.411  0.00  0.00    -0.077 S 
BRANCH   6   7
ATOM      7  C   UNL     1      -2.446   1.287  -2.935  0.00  0.00    +0.173 C 
BRANCH   7  10
ATOM      8  N   UNL     1      -0.727   1.554  -1.177  0.00  0.00    -0.300 N 
ATOM      9  C   UNL     1      -0.377   2.842  -1.781  0.00  0.00    +0.132 C 
ATOM     10  C   UNL     1      -1.708   0.802  -1.714  0.00  0.00    +0.226 C 
ATOM     11  O   UNL     1      -1.997  -0.264  -1.214  0.00  0.00    -0.275 OA
BRANCH   8  12
ATOM     12  C   UNL     1      -0.010   1.083   0.011  0.00  0.00    +0.142 C 
BRANCH  12  16
ATOM     13  C   UNL     1      -2.013   2.463   3.525  0.00  0.00    +0.029 A 
ATOM     14  C   UNL     1      -2.357   1.241   2.962  0.00  0.00    +0.023 A 
ATOM     15  C   UNL     1      -1.708   0.798   1.827  0.00  0.00    +0.007 A 
ATOM     16  C   UNL     1      -0.716   1.570   1.250  0.00  0.00    -0.030 A 
ATOM     17  C   UNL     1      -0.366   2.785   1.811  0.00  0.00    +0.007 A 
ATOM     18  C   UNL     1      -1.016   3.236   2.943  0.00  0.00    +0.023 A 
BRANCH  13  20
ATOM     19  C   UNL     1      -3.802   2.162   5.213  0.00  0.00    +0.129 C 
ATOM     20  N   UNL     1      -2.667   2.915   4.673  0.00  0.00    -0.336 N 
ATOM     21  C   UNL     1      -2.220   4.141   5.338  0.00  0.00    +0.129 C 
ENDBRANCH  13  20
ENDBRANCH  12  16
ENDBRANCH   8  12
ENDBRANCH   7  10
ENDBRANCH   6   7
ENDBRANCH   1   6
BRANCH   5  22
ATOM     22  C   UNL     1      -6.109  -0.877  -5.463  0.00  0.00    +0.160 C 
BRANCH  22  23
ATOM     23  C   UNL     1      -7.313  -0.668  -4.581  0.00  0.00    -0.028 A 
ATOM     24  C   UNL     1      -7.206  -0.840  -3.214  0.00  0.00    +0.005 A 
ATOM     25  C   UNL     1      -8.310  -0.644  -2.404  0.00  0.00    +0.000 A 
ATOM     26  C   UNL     1      -9.522  -0.287  -2.963  0.00  0.00    +0.000 A 
ATOM     27  C   UNL     1      -9.631  -0.120  -4.331  0.00  0.00    +0.000 A 
ATOM     28  C   UNL     1      -8.526  -0.311  -5.140  0.00  0.00    +0.005 A 
ENDBRANCH  22  23
ENDBRANCH   5  22
BRANCH   4  29
ATOM     29  C   UNL     1      -6.598   1.291  -7.689  0.00  0.00    -0.001 C 
BRANCH  29  30
ATOM     30  N   UNL     1      -5.999   0.643  -8.863  0.00  0.00    +0.384 N 
ATOM     31  C   UNL     1      -4.906   1.455  -9.413  0.00  0.00    -0.078 C 
ATOM     32  C   UNL     1      -4.213   0.685 -10.539  0.00  0.00    -0.019 C 
ATOM     33  C   UNL     1      -5.234   0.362 -11.633  0.00  0.00    -0.004 C 
ATOM     34  C   UNL     1      -6.385  -0.443 -11.025  0.00  0.00    -0.019 C 
ATOM     35  C   UNL     1      -7.015   0.360  -9.884  0.00  0.00    -0.078 C 
ATOM     36  H   UNL     1      -5.572  -0.318  -8.539  0.00  0.00    -0.081 HD
ENDBRANCH  29  30
ENDBRANCH   4  29
TORSDOF 10
