REMARK  Name = ZINC09808533
REMARK  9 active torsions:
REMARK  status: ('A' for Active; 'I' for Inactive)
REMARK    1  A    between atoms: C_1  and  C_2
REMARK    2  A    between atoms: C_2  and  O_3
REMARK    3  A    between atoms: O_3  and  C_4
REMARK    4  A    between atoms: C_4  and  C_6
REMARK    5  A    between atoms: C_12  and  C_14
REMARK    6  A    between atoms: C_12  and  C_22
REMARK    7  A    between atoms: C_12  and  N_56
REMARK    8  A    between atoms: C_23  and  O_35
REMARK    9  A    between atoms: C_28  and  C_30
REMARK                            x       y       z     vdW  Elec       q    Type
REMARK                         _______ _______ _______ _____ _____    ______ ____
ROOT
ATOM      1  C   UNL     1       0.059   1.209   2.425  0.00  0.00    +0.007 C 
ENDROOT
BRANCH   1   2
ATOM      2  C   UNL     1       1.456   1.764   2.320  0.00  0.00    -0.038 A 
ATOM      3  C   UNL     1       1.705   2.860   1.515  0.00  0.00    +0.005 A 
ATOM      4  C   UNL     1       2.985   3.373   1.422  0.00  0.00    +0.020 A 
ATOM      5  C   UNL     1       4.020   2.784   2.127  0.00  0.00    +0.042 A 
ATOM      6  C   UNL     1       3.772   1.684   2.928  0.00  0.00    +0.040 A 
ATOM      7  C   UNL     1       2.490   1.174   3.024  0.00  0.00    +0.044 A 
ATOM      8 CL   UNL     1       2.178  -0.206   4.030  0.00  0.00    -0.083 Cl
ATOM      9 CL   UNL     1       5.628   3.425   2.005  0.00  0.00    -0.083 Cl
ENDBRANCH   1   2
BRANCH   1  10
ATOM     10  C   UNL     1      -0.624   1.793   3.634  0.00  0.00    +0.045 A 
ATOM     11  C   UNL     1      -0.890   1.219   4.813  0.00  0.00    +0.225 A 
ATOM     12  N   UNL     1      -1.526   1.921   5.808  0.00  0.00    -0.173 N 
ATOM     13  C   UNL     1      -1.877   3.213   5.531  0.00  0.00    +0.199 A 
ATOM     14  S   UNL     1      -1.299   3.431   3.865  0.00  0.00    -0.050 S 
ATOM     15  N   UNL     1      -2.472   3.739   6.566  0.00  0.00    -0.197 NA
ATOM     16  C   UNL     1      -2.535   2.831   7.549  0.00  0.00    +0.218 A 
ATOM     17  N   UNL     1      -1.975   1.713   7.138  0.00  0.00    -0.138 NA
BRANCH  16  18
ATOM     18  C   UNL     1      -3.137   3.049   8.881  0.00  0.00    +0.173 A 
ATOM     19  C   UNL     1      -3.717   4.199   9.315  0.00  0.00    +0.053 A 
ATOM     20  C   UNL     1      -4.152   3.961  10.634  0.00  0.00    +0.042 A 
ATOM     21  C   UNL     1      -3.818   2.691  10.937  0.00  0.00    +0.196 A 
ATOM     22  O   UNL     1      -3.211   2.141   9.873  0.00  0.00    -0.460 OA
ENDBRANCH  16  18
BRANCH  11  23
ATOM     23  O   UNL     1      -0.522  -0.073   5.031  0.00  0.00    -0.492 OA
ATOM     24  H   UNL     1       0.365  -0.172   5.403  0.00  0.00    +0.294 HD
ENDBRANCH  11  23
ENDBRANCH   1  10
BRANCH   1  30
ATOM     25  C   UNL     1      -2.872   1.544   0.085  0.00  0.00    +0.081 C 
ATOM     26  C   UNL     1      -2.194   1.077  -1.207  0.00  0.00    +0.011 C 
ATOM     27  C   UNL     1      -0.752   1.593  -1.232  0.00  0.00    -0.018 C 
ATOM     28  C   UNL     1      -0.013   1.086   0.008  0.00  0.00    -0.077 C 
ATOM     29  C   UNL     1      -2.071   1.038   1.287  0.00  0.00    -0.063 C 
ATOM     30  N   UNL     1      -0.701   1.589   1.216  0.00  0.00    +0.388 N 
ATOM     31  H   UNL     1      -0.755   2.613   1.165  0.00  0.00    -0.080 HD
BRANCH  25  32
ATOM     32  C   UNL     1      -4.273   0.991   0.146  0.00  0.00    +0.308 C 
ATOM     33  O   UNL     1      -4.598   0.270   1.059  0.00  0.00    -0.251 OA
BRANCH  32  34
ATOM     34  O   UNL     1      -5.158   1.300  -0.815  0.00  0.00    -0.465 OA
BRANCH  34  36
ATOM     35  C   UNL     1      -7.351   1.193  -1.869  0.00  0.00    +0.048 C 
ATOM     36  C   UNL     1      -6.489   0.733  -0.691  0.00  0.00    +0.229 C 
ENDBRANCH  34  36
ENDBRANCH  32  34
ENDBRANCH  25  32
ENDBRANCH   1  30
TORSDOF 8
