REMARK  Name = ZINC11152439
REMARK  8 active torsions:
REMARK  status: ('A' for Active; 'I' for Inactive)
REMARK    1  A    between atoms: C_3  and  C_6
REMARK    2  A    between atoms: C_9  and  S_17
REMARK    3  A    between atoms: N_10  and  C_11
REMARK    4  A    between atoms: S_17  and  C_18
REMARK    5  A    between atoms: C_18  and  C_19
REMARK    6  A    between atoms: N_21  and  C_22
REMARK    7  A    between atoms: C_22  and  C_24
REMARK    8  A    between atoms: C_22  and  C_31
REMARK                            x       y       z     vdW  Elec       q    Type
REMARK                         _______ _______ _______ _____ _____    ______ ____
ROOT
ATOM      1  C   UNL     1      -3.791   0.481   3.145  0.00  0.00    +0.173 C 
ENDROOT
BRANCH   1   2
ATOM      2  C   UNL     1      -3.865   1.239   4.445  0.00  0.00    +0.224 C 
ATOM      3  O   UNL     1      -2.896   1.845   4.850  0.00  0.00    -0.275 OA
ATOM      4  N   UNL     1      -5.009   1.243   5.158  0.00  0.00    -0.303 N 
ATOM      5  H   UNL     1      -5.784   0.758   4.834  0.00  0.00    +0.150 HD
BRANCH   4   6
ATOM      6  C   UNL     1      -5.082   1.980   6.422  0.00  0.00    +0.140 C 
BRANCH   6   7
ATOM      7  C   UNL     1      -6.149   1.374   7.296  0.00  0.00    -0.022 A 
ATOM      8  C   UNL     1      -7.344   0.957   6.739  0.00  0.00    +0.008 A 
ATOM      9  C   UNL     1      -8.321   0.396   7.539  0.00  0.00    +0.038 A 
ATOM     10  C   UNL     1      -8.108   0.262   8.901  0.00  0.00    +0.123 A 
ATOM     11  C   UNL     1      -6.914   0.685   9.459  0.00  0.00    +0.038 A 
ATOM     12  C   UNL     1      -5.935   1.240   8.656  0.00  0.00    +0.008 A 
ATOM     13  F   UNL     1      -9.066  -0.281   9.685  0.00  0.00    -0.205 F 
ENDBRANCH   6   7
BRANCH   6  14
ATOM     14  C   UNL     1      -5.419   3.422   6.144  0.00  0.00    +0.014 A 
ATOM     15  C   UNL     1      -4.934   4.542   6.734  0.00  0.00    +0.013 A 
ATOM     16  C   UNL     1      -5.390   5.775   6.310  0.00  0.00    +0.008 A 
ATOM     17  C   UNL     1      -6.318   5.829   5.323  0.00  0.00    +0.045 A 
ATOM     18  S   UNL     1      -6.568   4.099   4.957  0.00  0.00    -0.099 S 
ENDBRANCH   6  14
ENDBRANCH   4   6
ENDBRANCH   1   2
BRANCH   1  19
ATOM     19  S   UNL     1      -2.137   0.666   2.433  0.00  0.00    -0.077 S 
BRANCH  19  23
ATOM     20  C   UNL     1      -1.974  -1.304  -0.939  0.00  0.00    +0.201 A 
ATOM     21  N   UNL     1      -3.205  -1.526  -0.533  0.00  0.00    -0.125 NA
ATOM     22  N   UNL     1      -3.412  -0.927   0.585  0.00  0.00    -0.122 NA
ATOM     23  C   UNL     1      -2.327  -0.291   0.966  0.00  0.00    +0.193 A 
ATOM     24  N   UNL     1      -1.372  -0.511   0.012  0.00  0.00    -0.297 N 
BRANCH  24  25
ATOM     25  C   UNL     1       0.002  -0.004   0.002  0.00  0.00    +0.091 C 
ATOM     26  C   UNL     1      -0.019   1.526   0.010  0.00  0.00    +0.025 C 
ATOM     27  C   UNL     1       1.417   2.055  -0.000  0.00  0.00    +0.002 C 
ATOM     28  C   UNL     1       2.157   1.548   1.239  0.00  0.00    +0.000 C 
ATOM     29  C   UNL     1       2.178   0.019   1.231  0.00  0.00    +0.002 C 
ATOM     30  C   UNL     1       0.742  -0.511   1.242  0.00  0.00    +0.025 C 
ENDBRANCH  24  25
BRANCH  20  33
ATOM     31  C   UNL     1      -0.938  -2.965  -4.029  0.00  0.00    +0.042 A 
ATOM     32  C   UNL     1      -1.843  -2.812  -2.961  0.00  0.00    +0.053 A 
ATOM     33  C   UNL     1      -1.356  -1.812  -2.174  0.00  0.00    +0.172 A 
ATOM     34  O   UNL     1      -0.212  -1.363  -2.729  0.00  0.00    -0.460 OA
ATOM     35  C   UNL     1       0.046  -2.062  -3.846  0.00  0.00    +0.196 A 
ENDBRANCH  20  33
ENDBRANCH  19  23
ENDBRANCH   1  19
TORSDOF 8
