REMARK  Name = ZINC02109724
REMARK  5 active torsions:
REMARK  status: ('A' for Active; 'I' for Inactive)
REMARK    1  A    between atoms: C_1  and  C_2
REMARK    2  A    between atoms: C_2  and  O_3
REMARK    3  A    between atoms: O_3  and  C_4
REMARK    4  A    between atoms: C_9  and  C_10
REMARK    5  A    between atoms: N_29  and  C_32
REMARK                            x       y       z     vdW  Elec       q    Type
REMARK                         _______ _______ _______ _____ _____    ______ ____
ROOT
ATOM      1  C   UNL     1      -1.277  -0.740   0.094  0.00  0.00    +0.157 C 
ATOM      2  C   UNL     1      -1.408  -1.825  -0.950  0.00  0.00    +0.046 A 
ATOM      3  C   UNL     1      -0.365  -2.300  -1.665  0.00  0.00    -0.015 A 
ATOM      4  C   UNL     1      -0.888  -3.324  -2.547  0.00  0.00    +0.003 A 
ATOM      5  C   UNL     1      -0.287  -4.151  -3.501  0.00  0.00    +0.010 A 
ATOM      6  C   UNL     1      -1.107  -5.026  -4.170  0.00  0.00    +0.001 A 
ATOM      7  C   UNL     1      -2.468  -5.095  -3.919  0.00  0.00    +0.002 A 
ATOM      8  C   UNL     1      -3.089  -4.290  -2.981  0.00  0.00    +0.026 A 
ATOM      9  C   UNL     1      -2.281  -3.391  -2.287  0.00  0.00    +0.047 A 
ATOM     10  N   UNL     1      -2.558  -2.472  -1.316  0.00  0.00    -0.356 N 
ATOM     11  H   UNL     1      -3.437  -2.303  -0.942  0.00  0.00    +0.166 HD
ATOM     12  C   UNL     1       1.057  -1.819  -1.534  0.00  0.00    +0.069 C 
ATOM     13  C   UNL     1       1.202  -1.058  -0.208  0.00  0.00    +0.167 C 
ATOM     14  N   UNL     1       0.069  -0.147  -0.052  0.00  0.00    -0.276 N 
ATOM     15  C   UNL     1       0.198   1.181  -0.031  0.00  0.00    +0.234 C 
ATOM     16  O   UNL     1      -0.814   1.847   0.034  0.00  0.00    -0.274 OA
ATOM     17  C   UNL     1       1.505   1.904  -0.088  0.00  0.00    +0.204 C 
ATOM     18  N   UNL     1       2.633   0.989  -0.135  0.00  0.00    -0.288 N 
ATOM     19  C   UNL     1       2.511  -0.336  -0.185  0.00  0.00    +0.237 C 
ATOM     20  O   UNL     1       3.526  -0.999  -0.215  0.00  0.00    -0.274 OA
ENDROOT
BRANCH  18  21
ATOM     21  C   UNL     1       3.983   1.557  -0.127  0.00  0.00    +0.077 C 
ATOM     22  C   UNL     1       4.186   2.345   1.184  0.00  0.00    +0.022 C 
ATOM     23  C   UNL     1       5.664   2.483   1.434  0.00  0.00    +0.002 C 
ATOM     24  C   UNL     1       6.231   3.807   0.889  0.00  0.00    +0.000 C 
ATOM     25  C   UNL     1       5.666   4.173  -0.497  0.00  0.00    +0.000 C 
ATOM     26  C   UNL     1       5.571   2.983  -1.413  0.00  0.00    +0.002 C 
ATOM     27  C   UNL     1       4.150   2.394  -1.306  0.00  0.00    +0.022 C 
ENDBRANCH  18  21
BRANCH   1  33
ATOM     28  C   UNL     1      -1.658  -0.506   2.562  0.00  0.00    +0.126 A 
ATOM     29  C   UNL     1      -1.798  -1.056   3.828  0.00  0.00    +0.046 A 
ATOM     30  C   UNL     1      -1.709  -2.423   4.000  0.00  0.00    +0.004 A 
ATOM     31  C   UNL     1      -1.480  -3.245   2.912  0.00  0.00    +0.001 A 
ATOM     32  C   UNL     1      -1.346  -2.701   1.648  0.00  0.00    +0.009 A 
ATOM     33  C   UNL     1      -1.429  -1.333   1.472  0.00  0.00    +0.020 A 
BRANCH  28  34
ATOM     34  O   UNL     1      -1.745   0.839   2.390  0.00  0.00    -0.492 OA
BRANCH  34  36
ATOM     35  C   UNL     1      -2.049   3.106   3.168  0.00  0.00    +0.048 C 
ATOM     36  C   UNL     1      -1.982   1.628   3.557  0.00  0.00    +0.225 C 
ENDBRANCH  34  36
ENDBRANCH  28  34
ENDBRANCH   1  33
TORSDOF 4
