REMARK  Name = ZINC64169868
REMARK  11 active torsions:
REMARK  status: ('A' for Active; 'I' for Inactive)
REMARK    1  A    between atoms: C_1  and  O_2
REMARK    2  A    between atoms: O_2  and  C_3
REMARK    3  A    between atoms: C_7  and  C_11
REMARK    4  A    between atoms: C_8  and  O_9
REMARK    5  A    between atoms: O_9  and  C_10
REMARK    6  A    between atoms: C_11  and  C_13
REMARK    7  A    between atoms: C_11  and  C_31
REMARK    8  A    between atoms: C_13  and  N_14
REMARK    9  A    between atoms: C_15  and  C_17
REMARK   10  A    between atoms: C_17  and  C_18
REMARK   11  A    between atoms: C_27  and  O_30
REMARK                            x       y       z     vdW  Elec       q    Type
REMARK                         _______ _______ _______ _____ _____    ______ ____
ROOT
ATOM      1  C   UNL     1       1.329  -4.110  -2.298  0.00  0.00    +0.068 C 
ENDROOT
BRANCH   1   2
ATOM      2  C   UNL     1       2.768  -4.557  -2.335  0.00  0.00    -0.033 C 
ATOM      3  C   UNL     1       3.389  -5.371  -1.451  0.00  0.00    -0.000 A 
ATOM      4  C   UNL     1       2.930  -6.056  -0.237  0.00  0.00    +0.010 A 
ATOM      5  C   UNL     1       3.805  -6.821   0.456  0.00  0.00    +0.001 A 
ATOM      6  C   UNL     1       5.136  -6.975   0.044  0.00  0.00    +0.002 A 
ATOM      7  C   UNL     1       5.631  -6.378  -1.061  0.00  0.00    +0.026 A 
ATOM      8  C   UNL     1       4.800  -5.551  -1.865  0.00  0.00    +0.043 A 
ATOM      9  N   UNL     1       5.040  -4.874  -2.962  0.00  0.00    -0.380 N 
ATOM     10  C   UNL     1       3.807  -4.193  -3.372  0.00  0.00    +0.145 C 
ATOM     11  H   UNL     1       5.891  -4.834  -3.427  0.00  0.00    +0.160 HD
ENDBRANCH   1   2
BRANCH   1  16
ATOM     12  C   UNL     1       0.606  -0.608  -1.056  0.00  0.00    +0.162 A 
ATOM     13  C   UNL     1       1.173   0.159  -2.062  0.00  0.00    +0.049 A 
ATOM     14  C   UNL     1       1.787  -0.456  -3.137  0.00  0.00    +0.004 A 
ATOM     15  C   UNL     1       1.837  -1.836  -3.212  0.00  0.00    +0.008 A 
ATOM     16  C   UNL     1       1.273  -2.606  -2.212  0.00  0.00    +0.007 A 
ATOM     17  C   UNL     1       0.662  -1.996  -1.129  0.00  0.00    +0.165 A 
BRANCH  12  19
ATOM     18  C   UNL     1      -0.017   1.425   0.010  0.00  0.00    +0.277 C 
ATOM     19  O   UNL     1       0.002  -0.004   0.002  0.00  0.00    -0.491 OA
ENDBRANCH  12  19
BRANCH  17  20
ATOM     20  O   UNL     1       0.112  -2.753  -0.142  0.00  0.00    -0.491 OA
ATOM     21  C   UNL     1      -1.259  -3.125  -0.297  0.00  0.00    +0.277 C 
ENDBRANCH  17  20
ENDBRANCH   1  16
BRANCH   1  22
ATOM     22  C   UNL     1       0.617  -4.575  -3.569  0.00  0.00    +0.116 C 
BRANCH  22  23
ATOM     23  N   UNL     1       0.567  -6.039  -3.593  0.00  0.00    -0.314 N 
ATOM     24  C   UNL     1      -0.018  -6.677  -4.626  0.00  0.00    +0.214 C 
ATOM     25  O   UNL     1      -0.503  -6.039  -5.536  0.00  0.00    -0.276 OA
ATOM     26  H   UNL     1       0.955  -6.550  -2.865  0.00  0.00    +0.149 HD
BRANCH  24  27
ATOM     27  C   UNL     1      -0.070  -8.183  -4.650  0.00  0.00    +0.102 C 
BRANCH  27  28
ATOM     28  C   UNL     1      -0.782  -8.649  -5.921  0.00  0.00    -0.018 C 
ATOM     29  C   UNL     1      -2.206  -8.089  -5.943  0.00  0.00    +0.011 C 
ATOM     30  C   UNL     1      -2.918  -8.555  -7.214  0.00  0.00    -0.007 C 
ATOM     31  C   UNL     1      -2.154  -8.051  -8.440  0.00  0.00    +0.007 C 
ATOM     32  C   UNL     1      -0.730  -8.610  -8.419  0.00  0.00    -0.007 C 
ATOM     33  C   UNL     1      -0.018  -8.145  -7.148  0.00  0.00    +0.011 C 
ATOM     34  C   UNL     1      -0.782 -10.139  -8.444  0.00  0.00    +0.038 C 
ATOM     35  C   UNL     1      -1.547 -10.643  -7.218  0.00  0.00    +0.067 C 
ATOM     36  C   UNL     1      -2.970 -10.083  -7.239  0.00  0.00    +0.038 C 
ATOM     37  C   UNL     1      -0.834 -10.177  -5.946  0.00  0.00    +0.042 C 
BRANCH  35  38
ATOM     38  O   UNL     1      -1.596 -12.071  -7.240  0.00  0.00    -0.389 OA
ATOM     39  H   UNL     1      -2.034 -12.437  -8.021  0.00  0.00    +0.210 HD
ENDBRANCH  35  38
ENDBRANCH  27  28
ENDBRANCH  24  27
ENDBRANCH  22  23
ENDBRANCH   1  22
TORSDOF 9
