REMARK  Name = ZINC37605331
REMARK  13 active torsions:
REMARK  status: ('A' for Active; 'I' for Inactive)
REMARK    1  A    between atoms: C_1  and  C_2
REMARK    2  A    between atoms: C_2  and  C_3
REMARK    3  A    between atoms: C_2  and  C_4
REMARK    4  A    between atoms: C_4  and  N_5
REMARK    5  A    between atoms: C_6  and  C_8
REMARK    6  A    between atoms: C_11  and  C_13
REMARK    7  A    between atoms: C_13  and  O_14
REMARK    8  A    between atoms: O_14  and  C_15
REMARK    9  A    between atoms: C_21  and  C_32
REMARK   10  A    between atoms: C_26  and  C_28
REMARK   11  A    between atoms: C_28  and  C_29
REMARK   12  A    between atoms: C_28  and  C_30
REMARK   13  A    between atoms: C_28  and  C_31
REMARK                            x       y       z     vdW  Elec       q    Type
REMARK                         _______ _______ _______ _____ _____    ______ ____
ROOT
ATOM      1  C   UNL     1       8.495   1.988   1.842  0.00  0.00    +0.122 A 
ATOM      2  C   UNL     1       9.029   3.265   1.930  0.00  0.00    +0.046 A 
ATOM      3  C   UNL     1      10.162   3.482   2.684  0.00  0.00    +0.007 A 
ATOM      4  C   UNL     1      10.775   2.434   3.361  0.00  0.00    -0.040 A 
ATOM      5  C   UNL     1      10.239   1.167   3.282  0.00  0.00    -0.016 A 
ATOM      6  C   UNL     1       9.100   0.945   2.522  0.00  0.00    +0.051 A 
ATOM      7  C   UNL     1      10.836  -0.008   4.015  0.00  0.00    +0.137 C 
ATOM      8  N   UNL     1      12.156   0.356   4.540  0.00  0.00    -0.290 N 
ATOM      9  C   UNL     1      12.283   1.666   5.199  0.00  0.00    +0.113 C 
ATOM     10  C   UNL     1      12.018   2.747   4.152  0.00  0.00    +0.054 C 
ATOM     11  C   UNL     1      13.210  -0.476   4.425  0.00  0.00    +0.222 C 
ATOM     12  O   UNL     1      13.107  -1.500   3.784  0.00  0.00    -0.275 OA
ENDROOT
BRANCH   7  13
ATOM     13  C   UNL     1       9.933  -0.399   5.156  0.00  0.00    -0.020 A 
ATOM     14  C   UNL     1       9.482  -1.701   5.266  0.00  0.00    +0.006 A 
ATOM     15  C   UNL     1       8.654  -2.061   6.312  0.00  0.00    +0.003 A 
ATOM     16  C   UNL     1       8.274  -1.119   7.250  0.00  0.00    +0.038 A 
ATOM     17  C   UNL     1       8.725   0.186   7.140  0.00  0.00    +0.124 A 
ATOM     18  C   UNL     1       9.560   0.544   6.095  0.00  0.00    +0.044 A 
ATOM     19  F   UNL     1       8.354   1.108   8.056  0.00  0.00    -0.205 F 
ENDBRANCH   7  13
BRANCH  11  20
ATOM     20  C   UNL     1      14.517  -0.133   5.091  0.00  0.00    +0.039 C 
ATOM     21  C   UNL     1      15.517  -1.269   4.869  0.00  0.00    +0.020 C 
ATOM     22  C   UNL     1      15.073   1.160   4.490  0.00  0.00    +0.020 C 
ATOM     23  C   UNL     1      14.290   0.060   6.592  0.00  0.00    +0.020 C 
ENDBRANCH  11  20
BRANCH   1  24
ATOM     24  O   UNL     1       7.381   1.763   1.097  0.00  0.00    -0.483 OA
BRANCH  24  25
ATOM     25  C   UNL     1       6.813   2.888   0.423  0.00  0.00    +0.324 C 
BRANCH  25  29
ATOM     26  C   UNL     1       3.553   1.976  -0.867  0.00  0.00    +0.164 A 
ATOM     27  C   UNL     1       4.327   1.718  -1.955  0.00  0.00    +0.230 A 
ATOM     28  O   UNL     1       5.591   2.017  -1.616  0.00  0.00    -0.444 OA
ATOM     29  C   UNL     1       5.594   2.449  -0.347  0.00  0.00    +0.234 A 
ATOM     30  N   UNL     1       4.378   2.435   0.113  0.00  0.00    -0.206 NA
BRANCH  26  32
ATOM     31  N   UNL     1       1.452   2.102   0.378  0.00  0.00    -0.310 N 
ATOM     32  C   UNL     1       2.092   1.798  -0.768  0.00  0.00    +0.266 C 
ATOM     33  O   UNL     1       1.466   1.378  -1.722  0.00  0.00    -0.268 OA
ATOM     34  H   UNL     1       1.952   2.438   1.138  0.00  0.00    +0.149 HD
BRANCH  31  35
ATOM     35  C   UNL     1       0.001   1.926   0.475  0.00  0.00    +0.107 C 
BRANCH  35  37
ATOM     36  C   UNL     1      -0.231   3.839   2.065  0.00  0.00    +0.009 C 
ATOM     37  C   UNL     1      -0.471   2.340   1.870  0.00  0.00    -0.000 C 
ATOM     38  C   UNL     1      -1.964   2.039   2.014  0.00  0.00    +0.009 C 
ENDBRANCH  35  37
ENDBRANCH  31  35
ENDBRANCH  26  32
ENDBRANCH  25  29
ENDBRANCH  24  25
ENDBRANCH   1  24
TORSDOF 8
