REMARK  Name = ZINC20120427
REMARK  3 active torsions:
REMARK  status: ('A' for Active; 'I' for Inactive)
REMARK    1  A    between atoms: C_4  and  C_7
REMARK    2  A    between atoms: C_22  and  C_24
REMARK    3  A    between atoms: C_28  and  N_30
REMARK                            x       y       z     vdW  Elec       q    Type
REMARK                         _______ _______ _______ _____ _____    ______ ____
ROOT
ATOM      1  C   UNL     1      -1.078   6.338   2.037  0.00  0.00    +0.247 C 
ATOM      2  O   UNL     1      -1.989   7.059   2.395  0.00  0.00    -0.270 OA
ATOM      3  N   UNL     1      -1.305   5.368   1.129  0.00  0.00    -0.285 N 
ATOM      4  C   UNL     1      -2.600   5.268   0.438  0.00  0.00    +0.114 C 
ATOM      5  C   UNL     1      -2.387   5.518  -1.059  0.00  0.00    +0.056 C 
ATOM      6  C   UNL     1      -1.183   4.736  -1.520  0.00  0.00    -0.015 A 
ATOM      7  C   UNL     1      -0.807   4.383  -2.874  0.00  0.00    +0.003 A 
ATOM      8  C   UNL     1      -1.399   4.628  -4.117  0.00  0.00    +0.010 A 
ATOM      9  C   UNL     1      -0.750   4.135  -5.222  0.00  0.00    +0.001 A 
ATOM     10  C   UNL     1       0.435   3.425  -5.123  0.00  0.00    +0.002 A 
ATOM     11  C   UNL     1       1.043   3.168  -3.907  0.00  0.00    +0.026 A 
ATOM     12  C   UNL     1       0.407   3.656  -2.768  0.00  0.00    +0.047 A 
ATOM     13  N   UNL     1       0.722   3.585  -1.441  0.00  0.00    -0.356 N 
ATOM     14  H   UNL     1       1.635   3.062  -1.120  0.00  0.00    +0.166 HD
ATOM     15  C   UNL     1      -0.234   4.231  -0.703  0.00  0.00    +0.046 A 
ATOM     16  C   UNL     1      -0.262   4.381   0.801  0.00  0.00    +0.154 C 
ENDROOT
BRANCH   1  20
ATOM     17  C   UNL     1       2.816   6.873   3.646  0.00  0.00    +0.000 A 
ATOM     18  C   UNL     1       1.706   7.126   4.431  0.00  0.00    +0.001 A 
ATOM     19  C   UNL     1       0.438   6.954   3.915  0.00  0.00    +0.013 A 
ATOM     20  C   UNL     1       0.277   6.524   2.597  0.00  0.00    +0.037 A 
ATOM     21  C   UNL     1       1.402   6.266   1.812  0.00  0.00    +0.013 A 
ATOM     22  C   UNL     1       2.664   6.446   2.339  0.00  0.00    +0.001 A 
ENDBRANCH   1  20
BRANCH  16  23
ATOM     23  C   UNL     1      -0.591   3.057   1.442  0.00  0.00    -0.019 A 
ATOM     24  C   UNL     1      -1.744   2.384   1.083  0.00  0.00    +0.006 A 
ATOM     25  C   UNL     1      -2.044   1.168   1.667  0.00  0.00    +0.003 A 
ATOM     26  C   UNL     1      -1.196   0.629   2.617  0.00  0.00    +0.033 A 
ATOM     27  C   UNL     1      -0.043   1.302   2.975  0.00  0.00    +0.127 A 
ATOM     28  C   UNL     1       0.259   2.517   2.388  0.00  0.00    +0.038 A 
BRANCH  27  29
ATOM     29  N   UNL     1       0.868   0.723   3.988  0.00  0.00    +0.056 N 
ATOM     30  O   UNL     1       0.601  -0.347   4.506  0.00  0.00    -0.126 OA
ATOM     31  O   UNL     1       1.884   1.316   4.303  0.00  0.00    -0.126 OA
ENDBRANCH  27  29
ENDBRANCH  16  23
TORSDOF 3
