REMARK  Name = ZINC09491661
REMARK  13 active torsions:
REMARK  status: ('A' for Active; 'I' for Inactive)
REMARK    1  A    between atoms: C_1  and  C_2
REMARK    2  A    between atoms: C_3  and  C_25
REMARK    3  A    between atoms: C_4  and  S_11
REMARK    4  A    between atoms: C_6  and  C_7
REMARK    5  A    between atoms: C_7  and  O_9
REMARK    6  A    between atoms: O_9  and  C_10
REMARK    7  A    between atoms: S_11  and  N_14
REMARK    8  A    between atoms: N_14  and  C_15
REMARK    9  A    between atoms: C_20  and  C_21
REMARK   10  A    between atoms: C_21  and  O_23
REMARK   11  A    between atoms: O_23  and  C_24
REMARK   12  A    between atoms: C_25  and  O_27
REMARK   13  A    between atoms: O_27  and  C_28
REMARK                            x       y       z     vdW  Elec       q    Type
REMARK                         _______ _______ _______ _____ _____    ______ ____
ROOT
ATOM      1  S   UNL     1       4.116   1.846  -0.080  0.00  0.00    +0.079 S 
ATOM      2  O   UNL     1       4.410   2.474  -1.320  0.00  0.00    -0.149 OA
ATOM      3  O   UNL     1       4.329   2.488   1.169  0.00  0.00    -0.149 OA
ENDROOT
BRANCH   1   7
ATOM      4  C   UNL     1      -1.206   2.483  -0.264  0.00  0.00    +0.046 C 
ATOM      5  C   UNL     1       0.047   1.647  -0.212  0.00  0.00    -0.013 A 
ATOM      6  C   UNL     1       1.302   2.235  -0.174  0.00  0.00    +0.096 A 
ATOM      7  C   UNL     1       2.411   1.402  -0.133  0.00  0.00    +0.161 A 
ATOM      8  S   UNL     1       1.709  -0.183  -0.148  0.00  0.00    -0.061 S 
ATOM      9  C   UNL     1      -0.013   0.279  -0.207  0.00  0.00    +0.102 A 
BRANCH   9  10
ATOM     10  C   UNL     1      -1.194  -0.588  -0.241  0.00  0.00    +0.346 C 
ATOM     11  O   UNL     1      -2.306  -0.099  -0.281  0.00  0.00    -0.244 OA
BRANCH  10  12
ATOM     12  O   UNL     1      -1.047  -1.929  -0.229  0.00  0.00    -0.464 OA
ATOM     13  C   UNL     1      -2.260  -2.725  -0.265  0.00  0.00    +0.280 C 
ENDBRANCH  10  12
ENDBRANCH   9  10
BRANCH   6  14
ATOM     14  C   UNL     1       1.454   3.699  -0.178  0.00  0.00    +0.342 C 
ATOM     15  O   UNL     1       1.482   4.309   0.873  0.00  0.00    -0.245 OA
BRANCH  14  16
ATOM     16  O   UNL     1       1.561   4.362  -1.346  0.00  0.00    -0.464 OA
ATOM     17  C   UNL     1       1.708   5.805  -1.273  0.00  0.00    +0.280 C 
ENDBRANCH  14  16
ENDBRANCH   6  14
ENDBRANCH   1   7
BRANCH   1  18
ATOM     18  N   UNL     1       4.987   0.438  -0.044  0.00  0.00    -0.215 N 
ATOM     19  H   UNL     1       5.571   0.248   0.707  0.00  0.00    +0.174 HD
BRANCH  18  20
ATOM     20  C   UNL     1       4.883  -0.470  -1.089  0.00  0.00    +0.062 A 
ATOM     21  C   UNL     1       4.725  -0.018  -2.394  0.00  0.00    +0.025 A 
ATOM     22  C   UNL     1       4.626  -0.923  -3.431  0.00  0.00    +0.002 A 
ATOM     23  C   UNL     1       4.674  -2.285  -3.181  0.00  0.00    +0.001 A 
ATOM     24  C   UNL     1       4.825  -2.752  -1.895  0.00  0.00    +0.017 A 
ATOM     25  C   UNL     1       4.932  -1.849  -0.833  0.00  0.00    +0.081 A 
BRANCH  25  26
ATOM     26  C   UNL     1       5.093  -2.342   0.546  0.00  0.00    +0.341 C 
ATOM     27  O   UNL     1       5.185  -1.553   1.466  0.00  0.00    -0.245 OA
BRANCH  26  28
ATOM     28  O   UNL     1       5.139  -3.667   0.787  0.00  0.00    -0.464 OA
ATOM     29  C   UNL     1       5.300  -4.080   2.170  0.00  0.00    +0.280 C 
ENDBRANCH  26  28
ENDBRANCH  25  26
ENDBRANCH  18  20
ENDBRANCH   1  18
TORSDOF 9
