REMARK  Name = ZINC08869001
REMARK  10 active torsions:
REMARK  status: ('A' for Active; 'I' for Inactive)
REMARK    1  A    between atoms: C_1  and  N_61
REMARK    2  A    between atoms: C_2  and  N_61
REMARK    3  A    between atoms: C_3  and  C_4
REMARK    4  A    between atoms: C_3  and  N_61
REMARK    5  A    between atoms: C_4  and  N_5
REMARK    6  A    between atoms: C_15  and  C_17
REMARK    7  A    between atoms: N_22  and  S_23
REMARK    8  A    between atoms: S_23  and  C_26
REMARK    9  A    between atoms: C_29  and  O_32
REMARK   10  A    between atoms: O_32  and  C_33
REMARK                            x       y       z     vdW  Elec       q    Type
REMARK                         _______ _______ _______ _____ _____    ______ ____
ROOT
ATOM      1  N   UNL     1      -0.542   5.411  -0.324  0.00  0.00    -0.251 N 
ATOM      2  C   UNL     1      -1.866   5.807  -0.424  0.00  0.00    +0.168 A 
ATOM      3  N   UNL     1      -2.367   7.020  -0.393  0.00  0.00    -0.224 NA
ATOM      4  C   UNL     1      -3.691   7.261  -0.504  0.00  0.00    +0.080 A 
ATOM      5  C   UNL     1      -4.356   8.509  -0.484  0.00  0.00    +0.029 A 
ATOM      6  C   UNL     1      -5.719   8.579  -0.610  0.00  0.00    +0.002 A 
ATOM      7  C   UNL     1      -6.492   7.437  -0.759  0.00  0.00    +0.001 A 
ATOM      8  C   UNL     1      -5.876   6.199  -0.782  0.00  0.00    +0.017 A 
ATOM      9  C   UNL     1      -4.511   6.120  -0.657  0.00  0.00    +0.041 A 
ATOM     10  S   UNL     1      -3.326   4.796  -0.624  0.00  0.00    -0.052 S 
ATOM     11  C   UNL     1       0.427   6.334  -0.170  0.00  0.00    +0.240 C 
ATOM     12  O   UNL     1       1.591   5.993  -0.142  0.00  0.00    -0.273 OA
ENDROOT
BRANCH  11  13
ATOM     13  C   UNL     1       0.066   7.791  -0.034  0.00  0.00    +0.166 C 
ATOM     14  C   UNL     1      -0.491   8.063   1.379  0.00  0.00    +0.031 C 
ATOM     15  C   UNL     1       0.746   8.605   2.143  0.00  0.00    +0.019 C 
ATOM     16  C   UNL     1       1.467   9.411   1.033  0.00  0.00    +0.110 C 
ATOM     17  N   UNL     1       1.269   8.621  -0.196  0.00  0.00    -0.165 NA
BRANCH  17  18
ATOM     18  S   UNL     1       2.239   8.663  -1.537  0.00  0.00    +0.062 S 
ATOM     19  O   UNL     1       3.515   9.111  -1.101  0.00  0.00    -0.153 OA
ATOM     20  O   UNL     1       2.056   7.424  -2.209  0.00  0.00    -0.153 OA
BRANCH  18  21
ATOM     21  C   UNL     1       1.603   9.913  -2.603  0.00  0.00    +0.106 A 
ATOM     22  C   UNL     1       0.656   9.591  -3.557  0.00  0.00    +0.032 A 
ATOM     23  C   UNL     1       0.151  10.570  -4.390  0.00  0.00    +0.047 A 
ATOM     24  C   UNL     1       0.604  11.877  -4.276  0.00  0.00    +0.120 A 
ATOM     25  C   UNL     1       1.558  12.197  -3.321  0.00  0.00    +0.047 A 
ATOM     26  C   UNL     1       2.056  11.214  -2.487  0.00  0.00    +0.032 A 
BRANCH  24  27
ATOM     27  O   UNL     1       0.113  12.841  -5.097  0.00  0.00    -0.495 OA
ATOM     28  C   UNL     1      -0.868  12.439  -6.056  0.00  0.00    +0.277 C 
ENDBRANCH  24  27
ENDBRANCH  18  21
ENDBRANCH  17  18
ENDBRANCH  11  13
BRANCH   1  29
ATOM     29  C   UNL     1      -0.197   3.989  -0.384  0.00  0.00    +0.097 C 
BRANCH  29  30
ATOM     30  C   UNL     1       0.192   3.619  -1.817  0.00  0.00    -0.060 C 
BRANCH  30  33
ATOM     31  C   UNL     1       0.555   1.742  -3.304  0.00  0.00    -0.097 C 
ATOM     32  C   UNL     1       1.582   1.766  -1.111  0.00  0.00    -0.097 C 
ATOM     33  N   UNL     1       0.391   2.156  -1.894  0.00  0.00    +0.377 N 
ATOM     34  H   UNL     1      -0.434   1.686  -1.503  0.00  0.00    -0.083 HD
ENDBRANCH  30  33
ENDBRANCH  29  30
ENDBRANCH   1  29
TORSDOF 7
