REMARK  Name = ZINC36053535
REMARK  11 active torsions:
REMARK  status: ('A' for Active; 'I' for Inactive)
REMARK    1  A    between atoms: C_1  and  C_2
REMARK    2  A    between atoms: C_3  and  C_32
REMARK    3  A    between atoms: C_4  and  C_23
REMARK    4  A    between atoms: C_7  and  C_12
REMARK    5  A    between atoms: C_13  and  N_15
REMARK    6  A    between atoms: N_15  and  C_16
REMARK    7  A    between atoms: C_26  and  C_29
REMARK    8  A    between atoms: C_29  and  C_30
REMARK    9  A    between atoms: C_29  and  C_31
REMARK   10  A    between atoms: C_32  and  O_34
REMARK   11  A    between atoms: O_34  and  C_35
REMARK                            x       y       z     vdW  Elec       q    Type
REMARK                         _______ _______ _______ _____ _____    ______ ____
ROOT
ATOM      1  C   UNL     1       0.037   1.328  -1.497  0.00  0.00    +0.066 C 
ATOM      2  C   UNL     1      -0.046  -0.171  -1.373  0.00  0.00    +0.053 C 
ATOM      3  C   UNL     1      -1.011  -0.740  -0.565  0.00  0.00    +0.082 C 
ATOM      4  C   UNL     1      -1.054  -2.249  -0.474  0.00  0.00    +0.150 C 
ATOM      5  N   UNL     1      -0.049  -3.004  -1.268  0.00  0.00    -0.267 N 
ATOM      6  C   UNL     1       0.096  -4.376  -1.337  0.00  0.00    +0.048 C 
ATOM      7  C   UNL     1       1.081  -4.863  -2.124  0.00  0.00    +0.072 C 
ATOM      8  S   UNL     1       1.808  -3.371  -2.772  0.00  0.00    -0.060 S 
ATOM      9  C   UNL     1       0.821  -2.251  -2.005  0.00  0.00    +0.166 C 
ATOM     10  N   UNL     1       0.801  -0.934  -2.045  0.00  0.00    -0.230 NA
ENDROOT
BRANCH   4  11
ATOM     11  C   UNL     1      -2.424  -2.701  -0.911  0.00  0.00    -0.022 A 
ATOM     12  C   UNL     1      -2.774  -2.652  -2.248  0.00  0.00    +0.006 A 
ATOM     13  C   UNL     1      -4.030  -3.066  -2.649  0.00  0.00    +0.004 A 
ATOM     14  C   UNL     1      -4.936  -3.530  -1.714  0.00  0.00    -0.045 A 
ATOM     15  C   UNL     1      -4.586  -3.580  -0.378  0.00  0.00    +0.004 A 
ATOM     16  C   UNL     1      -3.328  -3.170   0.023  0.00  0.00    +0.006 A 
BRANCH  14  17
ATOM     17  C   UNL     1      -6.306  -3.981  -2.152  0.00  0.00    +0.013 C 
ATOM     18  C   UNL     1      -6.505  -5.450  -1.773  0.00  0.00    +0.012 C 
ATOM     19  C   UNL     1      -7.370  -3.127  -1.458  0.00  0.00    +0.012 C 
ENDBRANCH  14  17
ENDBRANCH   4  11
BRANCH   6  20
ATOM     20  C   UNL     1      -0.788  -5.274  -0.581  0.00  0.00    +0.091 C 
ATOM     21  C   UNL     1      -0.459  -6.570  -0.425  0.00  0.00    +0.243 C 
ATOM     22  O   UNL     1       0.785  -6.998  -0.755  0.00  0.00    -0.270 OA
BRANCH  21  23
ATOM     23  N   UNL     1      -1.390  -7.467   0.071  0.00  0.00    -0.282 N 
ATOM     24  H   UNL     1      -2.244  -7.146   0.402  0.00  0.00    +0.155 HD
BRANCH  23  25
ATOM     25  C   UNL     1      -1.100  -8.835   0.095  0.00  0.00    +0.034 A 
ATOM     26  C   UNL     1       0.200  -9.267   0.328  0.00  0.00    +0.026 A 
ATOM     27  C   UNL     1       0.483 -10.618   0.351  0.00  0.00    +0.040 A 
ATOM     28  C   UNL     1      -0.526 -11.542   0.143  0.00  0.00    +0.124 A 
ATOM     29  C   UNL     1      -1.823 -11.114  -0.089  0.00  0.00    +0.040 A 
ATOM     30  C   UNL     1      -2.113  -9.764  -0.107  0.00  0.00    +0.026 A 
ATOM     31  F   UNL     1      -0.246 -12.864   0.166  0.00  0.00    -0.205 F 
ENDBRANCH  23  25
ENDBRANCH  21  23
ENDBRANCH   6  20
BRANCH   3  32
ATOM     32  C   UNL     1      -1.918   0.054   0.148  0.00  0.00    +0.339 C 
ATOM     33  O   UNL     1      -1.864   1.268   0.060  0.00  0.00    -0.245 OA
BRANCH  32  34
ATOM     34  O   UNL     1      -2.853  -0.527   0.933  0.00  0.00    -0.465 OA
ATOM     35  C   UNL     1      -3.745   0.344   1.631  0.00  0.00    +0.280 C 
ENDBRANCH  32  34
ENDBRANCH   3  32
TORSDOF 7
