REMARK  Name = ZINC11782634
REMARK  10 active torsions:
REMARK  status: ('A' for Active; 'I' for Inactive)
REMARK    1  A    between atoms: C_1  and  C_2
REMARK    2  A    between atoms: C_2  and  C_3
REMARK    3  A    between atoms: C_2  and  C_4
REMARK    4  A    between atoms: C_2  and  C_32
REMARK    5  A    between atoms: C_4  and  N_5
REMARK    6  A    between atoms: C_6  and  C_8
REMARK    7  A    between atoms: C_12  and  C_13
REMARK    8  A    between atoms: C_32  and  N_65
REMARK    9  A    between atoms: C_33  and  N_65
REMARK   10  A    between atoms: C_34  and  N_65
REMARK                            x       y       z     vdW  Elec       q    Type
REMARK                         _______ _______ _______ _____ _____    ______ ____
ROOT
ATOM      1  C   UNL     1      -3.140   1.369   0.084  0.00  0.00    +0.085 A 
ATOM      2  C   UNL     1      -4.171   2.262   0.449  0.00  0.00    +0.148 A 
ATOM      3  N   UNL     1      -3.837   2.850   1.564  0.00  0.00    -0.171 NA
ATOM      4  N   UNL     1      -2.590   2.373   1.984  0.00  0.00    -0.194 N 
ATOM      5  C   UNL     1      -2.151   1.461   1.069  0.00  0.00    +0.125 A 
ATOM      6  C   UNL     1      -1.912   2.765   3.137  0.00  0.00    +0.252 A 
ATOM      7  N   UNL     1      -0.735   2.223   3.407  0.00  0.00    -0.219 NA
ATOM      8  C   UNL     1      -0.058   2.562   4.495  0.00  0.00    +0.120 A 
ATOM      9  C   UNL     1      -0.605   3.490   5.359  0.00  0.00    -0.003 A 
ATOM     10  C   UNL     1      -1.841   4.055   5.038  0.00  0.00    +0.080 A 
ATOM     11  N   UNL     1      -2.466   3.666   3.935  0.00  0.00    -0.210 NA
ATOM     12  C   UNL     1      -2.425   5.063   5.950  0.00  0.00    +0.004 A 
ATOM     13  C   UNL     1      -3.776   5.393   5.877  0.00  0.00    +0.010 A 
ATOM     14  C   UNL     1      -4.301   6.325   6.750  0.00  0.00    +0.001 A 
ATOM     15  C   UNL     1      -3.488   6.926   7.695  0.00  0.00    +0.000 A 
ATOM     16  C   UNL     1      -2.144   6.606   7.766  0.00  0.00    +0.004 A 
ATOM     17  C   UNL     1      -1.606   5.681   6.894  0.00  0.00    -0.038 A 
ATOM     18  C   UNL     1      -0.140   5.345   6.957  0.00  0.00    +0.040 C 
ATOM     19  C   UNL     1       0.093   3.871   6.634  0.00  0.00    +0.043 C 
ENDROOT
BRANCH   5  20
ATOM     20  C   UNL     1      -0.888   0.716   1.113  0.00  0.00    +0.154 A 
ATOM     21  C   UNL     1       0.342   1.237   1.395  0.00  0.00    +0.051 A 
ATOM     22  C   UNL     1       1.258   0.174   1.321  0.00  0.00    +0.042 A 
ATOM     23  C   UNL     1       0.556  -0.934   1.001  0.00  0.00    +0.196 A 
ATOM     24  O   UNL     1      -0.738  -0.603   0.877  0.00  0.00    -0.461 OA
ENDBRANCH   5  20
BRANCH   1  26
ATOM     25  N   UNL     1      -4.141   0.523  -1.974  0.00  0.00    -0.311 N 
ATOM     26  C   UNL     1      -3.111   0.507  -1.105  0.00  0.00    +0.248 C 
ATOM     27  O   UNL     1      -2.157  -0.221  -1.305  0.00  0.00    -0.270 OA
ATOM     28  H   UNL     1      -4.902   1.103  -1.814  0.00  0.00    +0.149 HD
BRANCH  25  29
ATOM     29  C   UNL     1      -4.112  -0.337  -3.160  0.00  0.00    +0.109 C 
BRANCH  29  31
ATOM     30  C   UNL     1      -6.606  -0.485  -3.113  0.00  0.00    +0.010 C 
ATOM     31  C   UNL     1      -5.392  -0.128  -3.972  0.00  0.00    -0.034 C 
ATOM     32  C   UNL     1      -5.487   1.336  -4.406  0.00  0.00    +0.010 C 
BRANCH  31  33
ATOM     33  C   UNL     1      -5.362  -1.026  -5.211  0.00  0.00    -0.072 C 
BRANCH  33  36
ATOM     34  C   UNL     1      -6.645   0.227  -6.838  0.00  0.00    -0.097 C 
ATOM     35  C   UNL     1      -6.949  -2.167  -6.639  0.00  0.00    -0.097 C 
ATOM     36  N   UNL     1      -6.663  -0.918  -5.903  0.00  0.00    +0.376 N 
ATOM     37  H   UNL     1      -7.401  -0.766  -5.204  0.00  0.00    -0.083 HD
ENDBRANCH  33  36
ENDBRANCH  31  33
ENDBRANCH  29  31
ENDBRANCH  25  29
ENDBRANCH   1  26
TORSDOF 6
