REMARK  Name = ZINC13447075
REMARK  8 active torsions:
REMARK  status: ('A' for Active; 'I' for Inactive)
REMARK    1  A    between atoms: C_2  and  C_3
REMARK    2  A    between atoms: C_3  and  N_4
REMARK    3  A    between atoms: C_5  and  C_26
REMARK    4  A    between atoms: C_8  and  S_9
REMARK    5  A    between atoms: S_9  and  C_10
REMARK    6  A    between atoms: C_10  and  C_11
REMARK    7  A    between atoms: C_22  and  C_24
REMARK    8  A    between atoms: C_30  and  N_32
REMARK                            x       y       z     vdW  Elec       q    Type
REMARK                         _______ _______ _______ _____ _____    ______ ____
ROOT
ATOM      1  N   UNL     1       3.800  16.288   6.714  0.00  0.00    -0.298 N 
ATOM      2  C   UNL     1       3.275  15.969   7.945  0.00  0.00    +0.165 A 
ATOM      3  N   UNL     1       2.109  15.404   7.732  0.00  0.00    -0.128 NA
ATOM      4  N   UNL     1       1.868  15.357   6.471  0.00  0.00    -0.122 NA
ATOM      5  C   UNL     1       2.870  15.880   5.800  0.00  0.00    +0.193 A 
ENDROOT
BRANCH   2   6
ATOM      6  C   UNL     1       3.908  16.210   9.259  0.00  0.00    +0.021 A 
ATOM      7  C   UNL     1       5.275  16.480   9.340  0.00  0.00    +0.012 A 
ATOM      8  C   UNL     1       5.859  16.704  10.569  0.00  0.00    +0.003 A 
ATOM      9  C   UNL     1       5.093  16.661  11.721  0.00  0.00    +0.033 A 
ATOM     10  C   UNL     1       3.739  16.389  11.648  0.00  0.00    +0.127 A 
ATOM     11  C   UNL     1       3.141  16.169  10.424  0.00  0.00    +0.044 A 
BRANCH  10  12
ATOM     12  N   UNL     1       2.929  16.339  12.886  0.00  0.00    +0.056 N 
ATOM     13  O   UNL     1       3.454  16.538  13.966  0.00  0.00    -0.126 OA
ATOM     14  O   UNL     1       1.736  16.099  12.824  0.00  0.00    -0.126 OA
ENDBRANCH  10  12
ENDBRANCH   2   6
BRANCH   1  15
ATOM     15  C   UNL     1       5.087  16.930   6.440  0.00  0.00    +0.152 C 
BRANCH  15  17
ATOM     16  C   UNL     1       6.857  15.870   5.134  0.00  0.00    +0.005 C 
ATOM     17  C   UNL     1       6.142  15.874   6.232  0.00  0.00    -0.013 C 
ENDBRANCH  15  17
ENDBRANCH   1  15
BRANCH   5  18
ATOM     18  S   UNL     1       2.990  16.029   4.049  0.00  0.00    -0.077 S 
BRANCH  18  19
ATOM     19  C   UNL     1       1.414  15.284   3.561  0.00  0.00    +0.173 C 
BRANCH  19  20
ATOM     20  C   UNL     1       1.294  15.302   2.059  0.00  0.00    +0.227 C 
ATOM     21  O   UNL     1       2.186  15.772   1.384  0.00  0.00    -0.275 OA
ATOM     22  N   UNL     1       0.195  14.796   1.465  0.00  0.00    -0.283 N 
ATOM     23  C   UNL     1      -1.108  14.802   2.139  0.00  0.00    +0.144 C 
ATOM     24  C   UNL     1      -2.176  15.251   1.167  0.00  0.00    -0.027 A 
ATOM     25  C   UNL     1      -3.433  15.544   1.677  0.00  0.00    +0.005 A 
ATOM     26  C   UNL     1      -4.457  15.932   0.837  0.00  0.00    +0.000 A 
ATOM     27  C   UNL     1      -4.227  16.030  -0.523  0.00  0.00    +0.000 A 
ATOM     28  C   UNL     1      -2.977  15.745  -1.030  0.00  0.00    +0.004 A 
ATOM     29  C   UNL     1      -1.943  15.357  -0.186  0.00  0.00    -0.040 A 
ATOM     30  C   UNL     1      -0.603  15.071  -0.810  0.00  0.00    +0.069 C 
ATOM     31  C   UNL     1       0.255  14.210   0.116  0.00  0.00    +0.194 C 
BRANCH  31  32
ATOM     32  C   UNL     1       1.681  14.199  -0.373  0.00  0.00    +0.376 C 
ATOM     33  O   UNL     1       2.269  13.151  -0.498  0.00  0.00    -0.244 OA
ATOM     34  O   UNL     1       2.298  15.354  -0.668  0.00  0.00    -0.244 OA
ENDBRANCH  31  32
ENDBRANCH  19  20
ENDBRANCH  18  19
ENDBRANCH   5  18
TORSDOF 8
