REMARK  Name = ZINC03192972
REMARK  12 active torsions:
REMARK  status: ('A' for Active; 'I' for Inactive)
REMARK    1  A    between atoms: C_1  and  C_2
REMARK    2  A    between atoms: C_4  and  O_12
REMARK    3  A    between atoms: C_5  and  C_9
REMARK    4  A    between atoms: C_9  and  C_10
REMARK    5  A    between atoms: C_9  and  C_11
REMARK    6  A    between atoms: O_12  and  C_13
REMARK    7  A    between atoms: C_13  and  C_14
REMARK    8  A    between atoms: N_16  and  N_17
REMARK    9  A    between atoms: N_25  and  C_28
REMARK   10  A    between atoms: C_28  and  N_58
REMARK   11  A    between atoms: C_29  and  N_58
REMARK   12  A    between atoms: C_30  and  N_58
REMARK                            x       y       z     vdW  Elec       q    Type
REMARK                         _______ _______ _______ _____ _____    ______ ____
ROOT
ATOM      1  C   UNL     1      -1.593  -2.995   2.412  0.00  0.00    +0.270 C 
ATOM      2  O   UNL     1      -0.818  -3.197   1.502  0.00  0.00    -0.270 OA
ATOM      3  N   UNL     1      -2.027  -4.022   3.169  0.00  0.00    -0.203 N 
ATOM      4  H   UNL     1      -2.647  -3.860   3.897  0.00  0.00    +0.177 HD
ENDROOT
BRANCH   3   5
ATOM      5  N   UNL     1      -1.582  -5.324   2.904  0.00  0.00    -0.174 NA
ATOM      6  C   UNL     1      -1.911  -6.306   3.708  0.00  0.00    +0.153 C 
ATOM      7  C   UNL     1      -2.619  -6.210   5.006  0.00  0.00    +0.028 A 
ATOM      8  C   UNL     1      -3.124  -5.142   5.739  0.00  0.00    +0.012 A 
ATOM      9  C   UNL     1      -3.748  -5.375   6.948  0.00  0.00    +0.001 A 
ATOM     10  C   UNL     1      -3.872  -6.668   7.427  0.00  0.00    +0.002 A 
ATOM     11  C   UNL     1      -3.381  -7.736   6.703  0.00  0.00    +0.024 A 
ATOM     12  C   UNL     1      -2.744  -7.520   5.486  0.00  0.00    +0.044 A 
ATOM     13  N   UNL     1      -2.158  -8.399   4.581  0.00  0.00    -0.282 N 
ATOM     14  C   UNL     1      -1.653  -7.748   3.520  0.00  0.00    +0.270 C 
ATOM     15  O   UNL     1      -1.083  -8.256   2.572  0.00  0.00    -0.268 OA
BRANCH  13  16
ATOM     16  C   UNL     1      -2.100  -9.852   4.762  0.00  0.00    +0.038 C 
BRANCH  16  19
ATOM     17  C   UNL     1      -1.026 -10.006   6.927  0.00  0.00    -0.094 C 
ATOM     18  C   UNL     1      -0.463 -11.586   5.181  0.00  0.00    -0.094 C 
ATOM     19  N   UNL     1      -0.847 -10.189   5.471  0.00  0.00    +0.387 N 
ATOM     20  H   UNL     1      -0.101  -9.563   5.146  0.00  0.00    -0.080 HD
ENDBRANCH  16  19
ENDBRANCH  13  16
ENDBRANCH   3   5
BRANCH   1  21
ATOM     21  C   UNL     1      -2.072  -1.595   2.697  0.00  0.00    +0.326 C 
BRANCH  21  22
ATOM     22  O   UNL     1      -1.476  -0.689   1.766  0.00  0.00    -0.482 OA
BRANCH  22  26
ATOM     23  C   UNL     1      -3.970   2.812   4.079  0.00  0.00    +0.045 C 
ATOM     24  C   UNL     1      -3.017   2.368   3.000  0.00  0.00    -0.029 A 
ATOM     25  C   UNL     1      -2.683   1.032   2.880  0.00  0.00    +0.050 A 
ATOM     26  C   UNL     1      -1.805   0.625   1.886  0.00  0.00    +0.125 A 
ATOM     27  C   UNL     1      -1.263   1.559   1.016  0.00  0.00    -0.002 A 
ATOM     28  C   UNL     1      -1.595   2.894   1.143  0.00  0.00    +0.027 A 
ATOM     29  C   UNL     1      -2.475   3.298   2.131  0.00  0.00    +0.044 A 
ATOM     30 CL   UNL     1      -2.895   4.975   2.284  0.00  0.00    -0.083 Cl
BRANCH  27  31
ATOM     31  C   UNL     1      -0.309   1.118  -0.064  0.00  0.00    +0.016 C 
ATOM     32  C   UNL     1       1.037   1.822   0.126  0.00  0.00    +0.012 C 
ATOM     33  C   UNL     1      -0.885   1.482  -1.434  0.00  0.00    +0.012 C 
ENDBRANCH  27  31
ENDBRANCH  22  26
ENDBRANCH  21  22
ENDBRANCH   1  21
TORSDOF 7
