REMARK  Name = ZINC17090946
REMARK  3 active torsions:
REMARK  status: ('A' for Active; 'I' for Inactive)
REMARK    1  A    between atoms: C_3  and  N_9
REMARK    2  A    between atoms: C_10  and  C_12
REMARK    3  A    between atoms: C_20  and  C_22
REMARK                            x       y       z     vdW  Elec       q    Type
REMARK                         _______ _______ _______ _____ _____    ______ ____
ROOT
ATOM      1  N   UNL     1       3.707   2.825  -1.554  0.00  0.00    -0.284 N 
ATOM      2  C   UNL     1       2.500   3.418  -1.643  0.00  0.00    +0.224 C 
ATOM      3  O   UNL     1       2.423   4.601  -1.900  0.00  0.00    -0.275 OA
ATOM      4  H   UNL     1       3.772   1.895  -1.285  0.00  0.00    +0.155 HD
ENDROOT
BRANCH   1   7
ATOM      5  C   UNL     1       6.087   5.614  -1.833  0.00  0.00    +0.017 A 
ATOM      6  C   UNL     1       4.941   4.901  -1.539  0.00  0.00    +0.025 A 
ATOM      7  C   UNL     1       4.867   3.550  -1.851  0.00  0.00    +0.048 A 
ATOM      8  C   UNL     1       5.949   2.918  -2.452  0.00  0.00    +0.040 A 
ATOM      9  C   UNL     1       7.090   3.638  -2.749  0.00  0.00    +0.032 A 
ATOM     10  C   UNL     1       7.160   4.984  -2.437  0.00  0.00    +0.019 A 
ATOM     11 BR   UNL     1       8.727   5.965  -2.838  0.00  0.00    -0.050 Br
ATOM     12 BR   UNL     1       5.856   1.076  -2.871  0.00  0.00    -0.048 Br
ENDBRANCH   1   7
BRANCH   2  13
ATOM     13  C   UNL     1       1.246   2.612  -1.422  0.00  0.00    +0.124 C 
ATOM     14  C   UNL     1       1.210   2.018   0.021  0.00  0.00    +0.154 C 
ATOM     15  C   UNL     1      -0.005   1.088   0.039  0.00  0.00    +0.003 C 
ATOM     16  C   UNL     1      -1.074   1.867   0.052  0.00  0.00    +0.003 C 
ATOM     17  C   UNL     1      -0.561   3.309   0.022  0.00  0.00    +0.156 C 
ATOM     18  C   UNL     1      -0.009   3.526  -1.422  0.00  0.00    +0.149 C 
ATOM     19  O   UNL     1       0.693   3.152   0.797  0.00  0.00    -0.364 OA
BRANCH  18  20
ATOM     20  C   UNL     1      -1.007   3.071  -2.455  0.00  0.00    +0.363 C 
ATOM     21  O   UNL     1      -0.767   2.108  -3.145  0.00  0.00    -0.246 OA
ATOM     22  O   UNL     1      -2.163   3.736  -2.609  0.00  0.00    -0.246 OA
ENDBRANCH  18  20
ENDBRANCH   2  13
TORSDOF 3
