REMARK  Name = ZINC39675488
REMARK  9 active torsions:
REMARK  status: ('A' for Active; 'I' for Inactive)
REMARK    1  A    between atoms: C_1  and  C_2
REMARK    2  A    between atoms: C_2  and  C_4
REMARK    3  A    between atoms: C_2  and  N_14
REMARK    4  A    between atoms: C_4  and  C_5
REMARK    5  A    between atoms: C_5  and  C_6
REMARK    6  A    between atoms: C_9  and  O_12
REMARK    7  A    between atoms: O_12  and  C_13
REMARK    8  A    between atoms: C_15  and  C_17
REMARK    9  A    between atoms: C_28  and  C_30
REMARK                            x       y       z     vdW  Elec       q    Type
REMARK                         _______ _______ _______ _____ _____    ______ ____
ROOT
ATOM      1  C   UNL     1       2.726  -1.069  -2.451  0.00  0.00    +0.100 C 
ATOM      2  C   UNL     1       2.405  -0.161  -3.660  0.00  0.00    +0.121 C 
ATOM      3  N   UNL     1       3.518   0.816  -3.700  0.00  0.00    -0.295 N 
ATOM      4  C   UNL     1       4.721   0.018  -3.363  0.00  0.00    +0.115 C 
ATOM      5  C   UNL     1       4.247  -0.951  -2.262  0.00  0.00    -0.004 C 
ATOM      6  C   UNL     1       4.909  -2.314  -2.438  0.00  0.00    -0.010 C 
ATOM      7  C   UNL     1       6.414  -2.183  -2.188  0.00  0.00    -0.082 C 
ATOM      8  N   UNL     1       6.643  -1.677  -0.829  0.00  0.00    +0.379 N 
ATOM      9  C   UNL     1       6.085  -0.326  -0.696  0.00  0.00    -0.082 C 
ATOM     10  C   UNL     1       4.566  -0.379  -0.883  0.00  0.00    -0.010 C 
ATOM     11  C   UNL     1       3.451   2.133  -3.980  0.00  0.00    +0.265 C 
ATOM     12  O   UNL     1       2.371   2.666  -4.141  0.00  0.00    -0.268 OA
ATOM     13  H   UNL     1       6.198  -2.291  -0.163  0.00  0.00    -0.086 HD
ATOM     14  H   UNL     1       7.635  -1.649  -0.645  0.00  0.00    -0.086 HD
ENDROOT
BRANCH  11  15
ATOM     15  C   UNL     1       4.696   2.931  -4.092  0.00  0.00    +0.126 A 
ATOM     16  C   UNL     1       4.606   4.320  -4.268  0.00  0.00    +0.033 A 
ATOM     17  C   UNL     1       5.745   5.066  -4.372  0.00  0.00    +0.012 A 
ATOM     18  C   UNL     1       6.984   4.403  -4.298  0.00  0.00    +0.000 A 
ATOM     19  C   UNL     1       8.195   5.108  -4.397  0.00  0.00    +0.010 A 
ATOM     20  C   UNL     1       9.375   4.434  -4.321  0.00  0.00    +0.001 A 
ATOM     21  C   UNL     1       9.400   3.050  -4.146  0.00  0.00    +0.002 A 
ATOM     22  C   UNL     1       8.248   2.335  -4.046  0.00  0.00    +0.028 A 
ATOM     23  C   UNL     1       7.006   2.995  -4.120  0.00  0.00    +0.072 A 
ATOM     24  N   UNL     1       5.862   2.319  -4.020  0.00  0.00    -0.242 NA
ENDBRANCH  11  15
BRANCH   1  26
ATOM     25  N   UNL     1       1.622  -1.456  -0.271  0.00  0.00    -0.312 N 
ATOM     26  C   UNL     1       2.005  -0.580  -1.221  0.00  0.00    +0.218 C 
ATOM     27  O   UNL     1       1.769   0.602  -1.087  0.00  0.00    -0.275 OA
ATOM     28  H   UNL     1       1.811  -2.401  -0.379  0.00  0.00    +0.149 HD
BRANCH  25  30
ATOM     29  C   UNL     1      -0.576  -0.872   0.628  0.00  0.00    +0.028 C 
ATOM     30  C   UNL     1       0.921  -0.980   0.924  0.00  0.00    +0.070 C 
BRANCH  30  31
ATOM     31  C   UNL     1       1.144  -1.967   2.072  0.00  0.00    +0.026 C 
BRANCH  31  32
ATOM     32  C   UNL     1       2.626  -1.982   2.451  0.00  0.00    +0.037 C 
BRANCH  32  33
ATOM     33  C   UNL     1       2.846  -2.953   3.582  0.00  0.00    -0.047 A 
ATOM     34  C   UNL     1       2.747  -2.521   4.892  0.00  0.00    +0.007 A 
ATOM     35  C   UNL     1       2.948  -3.410   5.930  0.00  0.00    +0.046 A 
ATOM     36  C   UNL     1       3.249  -4.737   5.658  0.00  0.00    +0.120 A 
ATOM     37  C   UNL     1       3.347  -5.167   4.343  0.00  0.00    +0.046 A 
ATOM     38  C   UNL     1       3.140  -4.276   3.308  0.00  0.00    +0.007 A 
BRANCH  36  39
ATOM     39  O   UNL     1       3.448  -5.612   6.678  0.00  0.00    -0.495 OA
ATOM     40  C   UNL     1       3.754  -6.962   6.323  0.00  0.00    +0.277 C 
ENDBRANCH  36  39
ENDBRANCH  32  33
ENDBRANCH  31  32
ENDBRANCH  30  31
ENDBRANCH  25  30
ENDBRANCH   1  26
TORSDOF 7
