REMARK  Name = ZINC40064264
REMARK  10 active torsions:
REMARK  status: ('A' for Active; 'I' for Inactive)
REMARK    1  A    between atoms: C_1  and  C_2
REMARK    2  A    between atoms: C_2  and  C_3
REMARK    3  A    between atoms: C_6  and  C_9
REMARK    4  A    between atoms: C_17  and  C_38
REMARK    5  A    between atoms: C_18  and  C_37
REMARK    6  A    between atoms: C_27  and  C_36
REMARK    7  A    between atoms: C_28  and  C_30
REMARK    8  A    between atoms: C_30  and  O_32
REMARK    9  A    between atoms: O_32  and  C_33
REMARK   10  A    between atoms: C_33  and  C_34
REMARK                            x       y       z     vdW  Elec       q    Type
REMARK                         _______ _______ _______ _____ _____    ______ ____
ROOT
ATOM      1  C   UNL     1       2.707  -1.868  -4.752  0.00  0.00    +0.151 C 
ATOM      2  C   UNL     1       2.969  -3.335  -4.653  0.00  0.00    +0.072 A 
ATOM      3  C   UNL     1       2.054  -4.473  -4.511  0.00  0.00    +0.199 A 
ATOM      4  O   UNL     1       0.845  -4.375  -4.625  0.00  0.00    -0.287 OA
ATOM      5  C   UNL     1       2.743  -5.755  -4.215  0.00  0.00    +0.065 A 
ATOM      6  C   UNL     1       2.007  -6.885  -3.856  0.00  0.00    +0.015 A 
ATOM      7  C   UNL     1       2.656  -8.056  -3.582  0.00  0.00    +0.004 A 
ATOM      8  C   UNL     1       4.040  -8.123  -3.659  0.00  0.00    -0.044 A 
ATOM      9  C   UNL     1       4.781  -7.019  -4.013  0.00  0.00    -0.005 A 
ATOM     10  C   UNL     1       4.143  -5.812  -4.300  0.00  0.00    +0.143 A 
ATOM     11  O   UNL     1       4.890  -4.742  -4.656  0.00  0.00    -0.449 OA
ATOM     12  C   UNL     1       4.321  -3.521  -4.712  0.00  0.00    +0.199 A 
ATOM     13  C   UNL     1       4.964  -2.203  -4.843  0.00  0.00    +0.289 C 
ATOM     14  O   UNL     1       6.162  -2.017  -4.917  0.00  0.00    -0.266 OA
ATOM     15  N   UNL     1       4.028  -1.230  -4.869  0.00  0.00    -0.232 N 
ATOM     16  C   UNL     1       4.268   0.126  -4.984  0.00  0.00    +0.169 A 
ATOM     17  N   UNL     1       5.430   0.745  -5.096  0.00  0.00    -0.229 NA
ATOM     18  C   UNL     1       5.505   2.047  -5.198  0.00  0.00    +0.062 A 
ATOM     19  C   UNL     1       4.299   2.737  -5.181  0.00  0.00    +0.120 A 
ATOM     20  S   UNL     1       3.147   1.382  -5.022  0.00  0.00    -0.045 S 
ATOM     21  C   UNL     1       6.827   2.759  -5.325  0.00  0.00    +0.067 C 
ATOM     22  C   UNL     1       6.283  -7.113  -4.090  0.00  0.00    +0.048 C 
ATOM     23  C   UNL     1       4.741  -9.422  -3.351  0.00  0.00    +0.044 C 
ENDROOT
BRANCH   1  27
ATOM     24  C   UNL     1       0.707  -0.490  -1.238  0.00  0.00    -0.048 A 
ATOM     25  C   UNL     1      -0.011  -0.719  -2.397  0.00  0.00    +0.004 A 
ATOM     26  C   UNL     1       0.636  -1.164  -3.534  0.00  0.00    +0.006 A 
ATOM     27  C   UNL     1       2.002  -1.381  -3.513  0.00  0.00    -0.022 A 
ATOM     28  C   UNL     1       2.720  -1.152  -2.354  0.00  0.00    +0.006 A 
ATOM     29  C   UNL     1       2.073  -0.702  -1.218  0.00  0.00    +0.004 A 
BRANCH  24  31
ATOM     30  C   UNL     1      -0.019   1.526   0.010  0.00  0.00    +0.009 C 
ATOM     31  C   UNL     1       0.002  -0.004   0.002  0.00  0.00    +0.032 C 
ENDBRANCH  24  31
ENDBRANCH   1  27
BRANCH  19  32
ATOM     32  C   UNL     1       4.044   4.173  -5.274  0.00  0.00    +0.348 C 
ATOM     33  O   UNL     1       4.974   4.950  -5.385  0.00  0.00    -0.244 OA
BRANCH  32  34
ATOM     34  O   UNL     1       2.778   4.637  -5.237  0.00  0.00    -0.457 OA
BRANCH  34  35
ATOM     35  C   UNL     1       2.602   6.052  -5.333  0.00  0.00    +0.259 C 
BRANCH  35  36
ATOM     36  C   UNL     1       1.133   6.381  -5.275  0.00  0.00    +0.006 C 
ATOM     37  C   UNL     1       0.712   7.364  -4.519  0.00  0.00    +0.007 C 
ENDBRANCH  35  36
ENDBRANCH  34  35
ENDBRANCH  32  34
ENDBRANCH  19  32
TORSDOF 6
