REMARK  Name = ZINC63502767
REMARK  8 active torsions:
REMARK  status: ('A' for Active; 'I' for Inactive)
REMARK    1  A    between atoms: C_1  and  C_2
REMARK    2  A    between atoms: C_5  and  C_8
REMARK    3  A    between atoms: C_8  and  N_9
REMARK    4  A    between atoms: C_17  and  N_19
REMARK    5  A    between atoms: C_22  and  C_25
REMARK    6  A    between atoms: N_27  and  C_28
REMARK    7  A    between atoms: C_28  and  C_29
REMARK    8  A    between atoms: C_29  and  C_30
REMARK                            x       y       z     vdW  Elec       q    Type
REMARK                         _______ _______ _______ _____ _____    ______ ____
ROOT
ATOM      1  N   UNL     1       1.668  -6.100   1.948  0.00  0.00    -0.269 NA
ATOM      2  C   UNL     1       2.360  -6.252   3.234  0.00  0.00    +0.088 C 
ATOM      3  C   UNL     1       1.613  -7.268   4.100  0.00  0.00    +0.028 C 
ATOM      4  C   UNL     1       1.557  -8.612   3.368  0.00  0.00    +0.077 C 
ATOM      5  C   UNL     1       0.875  -8.417   2.011  0.00  0.00    +0.028 C 
ATOM      6  C   UNL     1       1.643  -7.367   1.205  0.00  0.00    +0.088 C 
ENDROOT
BRANCH   1  15
ATOM      7  N   UNL     1       1.447  -4.746  -0.032  0.00  0.00    -0.293 N 
ATOM      8  C   UNL     1       2.229  -5.000  -1.167  0.00  0.00    +0.054 A 
ATOM      9  C   UNL     1       1.924  -4.885  -2.518  0.00  0.00    +0.025 A 
ATOM     10  C   UNL     1       2.872  -5.199  -3.473  0.00  0.00    +0.002 A 
ATOM     11  C   UNL     1       4.128  -5.629  -3.088  0.00  0.00    +0.002 A 
ATOM     12  C   UNL     1       4.441  -5.747  -1.747  0.00  0.00    +0.025 A 
ATOM     13  C   UNL     1       3.494  -5.433  -0.780  0.00  0.00    +0.051 A 
ATOM     14  N   UNL     1       3.574  -5.473   0.619  0.00  0.00    -0.312 N 
ATOM     15  C   UNL     1       2.277  -5.031   1.145  0.00  0.00    +0.236 C 
ATOM     16  H   UNL     1       4.346  -5.740   1.143  0.00  0.00    +0.149 HD
BRANCH   7  17
ATOM     17  C   UNL     1       0.059  -4.275  -0.021  0.00  0.00    +0.143 C 
BRANCH  17  22
ATOM     18  C   UNL     1      -0.018   1.503   0.010  0.00  0.00    +0.044 C 
ATOM     19  C   UNL     1       0.002  -0.004   0.002  0.00  0.00    -0.050 A 
ATOM     20  C   UNL     1       0.006  -0.689  -1.199  0.00  0.00    +0.003 A 
ATOM     21  C   UNL     1       0.025  -2.071  -1.206  0.00  0.00    +0.005 A 
ATOM     22  C   UNL     1       0.040  -2.768  -0.013  0.00  0.00    -0.030 A 
ATOM     23  C   UNL     1       0.037  -2.084   1.188  0.00  0.00    +0.005 A 
ATOM     24  C   UNL     1       0.023  -0.702   1.195  0.00  0.00    +0.003 A 
ENDBRANCH  17  22
ENDBRANCH   7  17
ENDBRANCH   1  15
BRANCH   4  25
ATOM     25  C   UNL     1       0.770  -9.600   4.190  0.00  0.00    +0.216 C 
ATOM     26  O   UNL     1       0.300  -9.265   5.256  0.00  0.00    -0.276 OA
ATOM     27  N   UNL     1       0.589 -10.858   3.740  0.00  0.00    -0.315 N 
ATOM     28  H   UNL     1       0.965 -11.126   2.886  0.00  0.00    +0.149 HD
BRANCH  27  29
ATOM     29  C   UNL     1      -0.175 -11.819   4.538  0.00  0.00    +0.108 C 
BRANCH  29  30
ATOM     30  C   UNL     1      -0.231 -13.161   3.806  0.00  0.00    +0.052 C 
BRANCH  30  31
ATOM     31  C   UNL     1      -1.017 -14.150   4.627  0.00  0.00    -0.040 C 
ATOM     32  C   UNL     1      -2.331 -14.445   4.505  0.00  0.00    -0.001 A 
ATOM     33  C   UNL     1      -3.382 -13.952   3.607  0.00  0.00    +0.010 A 
ATOM     34  C   UNL     1      -4.634 -14.448   3.728  0.00  0.00    +0.001 A 
ATOM     35  C   UNL     1      -4.954 -15.418   4.688  0.00  0.00    +0.002 A 
ATOM     36  C   UNL     1      -4.043 -15.919   5.549  0.00  0.00    +0.026 A 
ATOM     37  C   UNL     1      -2.694 -15.470   5.511  0.00  0.00    +0.043 A 
ATOM     38  N   UNL     1      -1.645 -15.795   6.226  0.00  0.00    -0.380 N 
ATOM     39  C   UNL     1      -0.495 -15.017   5.751  0.00  0.00    +0.144 C 
ATOM     40  H   UNL     1      -1.630 -16.445   6.946  0.00  0.00    +0.160 HD
ENDBRANCH  30  31
ENDBRANCH  29  30
ENDBRANCH  27  29
ENDBRANCH   4  25
TORSDOF 7
