REMARK  Name = ZINC12403450
REMARK  9 active torsions:
REMARK  status: ('A' for Active; 'I' for Inactive)
REMARK    1  A    between atoms: C_1  and  C_2
REMARK    2  A    between atoms: C_2  and  C_3
REMARK    3  A    between atoms: C_2  and  C_4
REMARK    4  A    between atoms: C_2  and  C_5
REMARK    5  A    between atoms: C_8  and  O_12
REMARK    6  A    between atoms: O_12  and  C_13
REMARK    7  A    between atoms: C_13  and  C_14
REMARK    8  A    between atoms: N_16  and  N_17
REMARK    9  A    between atoms: C_18  and  C_19
REMARK                            x       y       z     vdW  Elec       q    Type
REMARK                         _______ _______ _______ _____ _____    ______ ____
ROOT
ATOM      1  C   UNL     1       1.031   3.512   0.041  0.00  0.00    +0.270 C 
ATOM      2  O   UNL     1      -0.096   3.960   0.068  0.00  0.00    -0.270 OA
ATOM      3  N   UNL     1       2.088   4.348   0.020  0.00  0.00    -0.204 N 
ATOM      4  H   UNL     1       2.989   3.989  -0.001  0.00  0.00    +0.177 HD
ENDROOT
BRANCH   3   5
ATOM      5  N   UNL     1       1.886   5.734   0.029  0.00  0.00    -0.188 NA
ATOM      6  C   UNL     1       2.907   6.541   0.009  0.00  0.00    +0.139 C 
BRANCH   6   7
ATOM      7  C   UNL     1       2.695   7.991   0.019  0.00  0.00    +0.010 A 
ATOM      8  C   UNL     1       3.792   8.871   0.125  0.00  0.00    -0.009 A 
ATOM      9  C   UNL     1       5.107   8.384   0.212  0.00  0.00    +0.009 A 
ATOM     10  C   UNL     1       6.143   9.260   0.307  0.00  0.00    +0.001 A 
ATOM     11  C   UNL     1       5.937  10.639   0.317  0.00  0.00    +0.001 A 
ATOM     12  C   UNL     1       4.691  11.174   0.231  0.00  0.00    +0.008 A 
ATOM     13  C   UNL     1       3.572  10.319   0.130  0.00  0.00    -0.017 A 
ATOM     14  C   UNL     1       2.280  10.836   0.040  0.00  0.00    +0.017 A 
ATOM     15  C   UNL     1       1.188   9.973  -0.060  0.00  0.00    -0.017 A 
ATOM     16  C   UNL     1       1.392   8.522  -0.071  0.00  0.00    -0.009 A 
ATOM     17  C   UNL     1       0.271   7.681  -0.174  0.00  0.00    +0.009 A 
ATOM     18  C   UNL     1      -0.973   8.226  -0.260  0.00  0.00    +0.001 A 
ATOM     19  C   UNL     1      -1.169   9.605  -0.250  0.00  0.00    +0.001 A 
ATOM     20  C   UNL     1      -0.128  10.473  -0.153  0.00  0.00    +0.008 A 
ENDBRANCH   6   7
ENDBRANCH   3   5
BRANCH   1  21
ATOM     21  C   UNL     1       1.248   2.021   0.031  0.00  0.00    +0.326 C 
BRANCH  21  22
ATOM     22  O   UNL     1      -0.016   1.355   0.057  0.00  0.00    -0.482 OA
BRANCH  22  26
ATOM     23  C   UNL     1       0.041  -2.771   0.043  0.00  0.00    -0.041 A 
ATOM     24  C   UNL     1       1.229  -2.064   0.018  0.00  0.00    +0.008 A 
ATOM     25  C   UNL     1       1.212  -0.683   0.022  0.00  0.00    +0.047 A 
ATOM     26  C   UNL     1       0.003  -0.004   0.052  0.00  0.00    +0.135 A 
ATOM     27  C   UNL     1      -1.188  -0.716   0.082  0.00  0.00    +0.060 A 
ATOM     28  C   UNL     1      -1.167  -2.098   0.072  0.00  0.00    +0.023 A 
ATOM     29 BR   UNL     1      -2.840   0.204   0.129  0.00  0.00    -0.047 Br
BRANCH  23  31
ATOM     30  C   UNL     1       0.819  -4.781   1.269  0.00  0.00    +0.015 C 
ATOM     31  C   UNL     1       0.062  -4.278   0.038  0.00  0.00    -0.013 C 
ATOM     32  C   UNL     1      -1.373  -4.808   0.069  0.00  0.00    +0.015 C 
ATOM     33  C   UNL     1       0.761  -4.774  -1.229  0.00  0.00    +0.015 C 
ENDBRANCH  23  31
ENDBRANCH  22  26
ENDBRANCH  21  22
ENDBRANCH   1  21
TORSDOF 6
