REMARK  Name = ZINC28822847
REMARK  5 active torsions:
REMARK  status: ('A' for Active; 'I' for Inactive)
REMARK    1  A    between atoms: N_4  and  C_8
REMARK    2  A    between atoms: C_11  and  C_14
REMARK    3  A    between atoms: N_16  and  C_17
REMARK    4  A    between atoms: C_22  and  N_24
REMARK    5  A    between atoms: C_25  and  C_27
REMARK                            x       y       z     vdW  Elec       q    Type
REMARK                         _______ _______ _______ _____ _____    ______ ____
ROOT
ATOM      1  C   UNL     1       0.148   1.185  -0.064  0.00  0.00    +0.093 C 
ATOM      2  C   UNL     1       1.634   1.571  -0.217  0.00  0.00    +0.024 C 
ATOM      3  C   UNL     1       2.087   1.920   1.223  0.00  0.00    +0.004 C 
ATOM      4  C   UNL     1       0.847   2.643   1.804  0.00  0.00    +0.024 C 
ATOM      5  C   UNL     1      -0.352   1.867   1.222  0.00  0.00    +0.093 C 
ENDROOT
BRANCH   1   8
ATOM      6  C   UNL     1      -0.730   0.893  -2.318  0.00  0.00    +0.244 C 
ATOM      7  O   UNL     1      -0.199  -0.199  -2.352  0.00  0.00    -0.270 OA
ATOM      8  N   UNL     1      -0.616   1.664  -1.218  0.00  0.00    -0.307 N 
ATOM      9  H   UNL     1      -1.097   2.653  -1.187  0.00  0.00    +0.149 HD
BRANCH   6  13
ATOM     10  C   UNL     1      -2.947   2.282  -5.664  0.00  0.00    +0.049 A 
ATOM     11  C   UNL     1      -2.340   1.032  -5.705  0.00  0.00    +0.027 A 
ATOM     12  C   UNL     1      -1.620   0.579  -4.622  0.00  0.00    +0.015 A 
ATOM     13  C   UNL     1      -1.501   1.377  -3.481  0.00  0.00    +0.037 A 
ATOM     14  C   UNL     1      -2.117   2.630  -3.441  0.00  0.00    +0.015 A 
ATOM     15  C   UNL     1      -2.831   3.079  -4.530  0.00  0.00    +0.027 A 
BRANCH  10  19
ATOM     16  C   UNL     1      -5.116   3.637  -8.925  0.00  0.00    +0.007 A 
ATOM     17  C   UNL     1      -5.753   3.325  -7.716  0.00  0.00    +0.018 A 
ATOM     18  C   UNL     1      -5.026   2.884  -6.663  0.00  0.00    +0.095 A 
ATOM     19  N   UNL     1      -3.677   2.739  -6.764  0.00  0.00    -0.284 N 
ATOM     20  C   UNL     1      -3.037   3.035  -7.911  0.00  0.00    +0.256 A 
ATOM     21  O   UNL     1      -1.826   2.905  -7.985  0.00  0.00    -0.267 OA
ATOM     22  C   UNL     1      -3.763   3.491  -9.024  0.00  0.00    +0.071 A 
ENDBRANCH  10  19
ENDBRANCH   6  13
ENDBRANCH   1   8
BRANCH   5  23
ATOM     23  N   UNL     1      -1.444   2.792   0.906  0.00  0.00    -0.306 N 
ATOM     24  C   UNL     1      -2.715   2.347   0.871  0.00  0.00    +0.261 C 
ATOM     25  O   UNL     1      -2.957   1.177   1.100  0.00  0.00    -0.269 OA
ATOM     26  H   UNL     1      -1.225   3.850   0.698  0.00  0.00    +0.149 HD
BRANCH  24  27
ATOM     27  C   UNL     1      -3.811   3.276   0.554  0.00  0.00    +0.103 A 
ATOM     28  C   UNL     1      -5.127   2.946   0.482  0.00  0.00    +0.041 A 
ATOM     29  C   UNL     1      -5.848   4.120   0.156  0.00  0.00    +0.002 A 
ATOM     30  C   UNL     1      -7.209   4.388  -0.045  0.00  0.00    +0.030 A 
ATOM     31  C   UNL     1      -7.611   5.653  -0.363  0.00  0.00    +0.042 A 
ATOM     32  C   UNL     1      -6.683   6.681  -0.490  0.00  0.00    +0.022 A 
ATOM     33  C   UNL     1      -5.341   6.441  -0.296  0.00  0.00    +0.027 A 
ATOM     34  C   UNL     1      -4.906   5.159   0.029  0.00  0.00    +0.047 A 
ATOM     35  N   UNL     1      -3.665   4.621   0.276  0.00  0.00    -0.351 N 
ATOM     36  H   UNL     1      -2.665   5.079   0.281  0.00  0.00    +0.166 HD
ATOM     37 CL   UNL     1      -9.298   5.982  -0.613  0.00  0.00    -0.084 Cl
ENDBRANCH  24  27
ENDBRANCH   5  23
TORSDOF 5
