REMARK  Name = ZINC09862420
REMARK  6 active torsions:
REMARK  status: ('A' for Active; 'I' for Inactive)
REMARK    1  A    between atoms: C_4  and  C_7
REMARK    2  A    between atoms: C_7  and  C_9
REMARK    3  A    between atoms: C_7  and  N_14
REMARK    4  A    between atoms: C_15  and  C_17
REMARK    5  A    between atoms: C_17  and  N_61
REMARK    6  A    between atoms: C_23  and  C_25
REMARK                            x       y       z     vdW  Elec       q    Type
REMARK                         _______ _______ _______ _____ _____    ______ ____
ROOT
ATOM      1  C   UNL     1       4.147  -0.050   2.812  0.00  0.00    -0.059 C 
ATOM      2  C   UNL     1       5.106  -0.940   3.611  0.00  0.00    +0.089 C 
ATOM      3  N   UNL     1       6.484  -0.511   3.331  0.00  0.00    -0.302 N 
ATOM      4  C   UNL     1       6.900  -0.379   1.926  0.00  0.00    +0.089 C 
ATOM      5  C   UNL     1       5.871   0.488   1.193  0.00  0.00    -0.059 C 
ATOM      6  C   UNL     1       7.345  -0.246   4.334  0.00  0.00    +0.260 C 
ATOM      7  O   UNL     1       8.504   0.012   4.087  0.00  0.00    -0.271 OA
ATOM      8  N   UNL     1       4.529  -0.104   1.384  0.00  0.00    +0.387 N 
ATOM      9  H   UNL     1       4.552  -1.085   1.083  0.00  0.00    -0.081 HD
ENDROOT
BRANCH   6  10
ATOM     10  C   UNL     1       6.866  -0.271   5.763  0.00  0.00    +0.296 C 
ATOM     11  C   UNL     1       5.959   0.939   6.026  0.00  0.00    +0.283 C 
ATOM     12  O   UNL     1       5.535   0.892   7.393  0.00  0.00    -0.484 OA
ATOM     13  C   UNL     1       6.495   0.639   8.323  0.00  0.00    +0.162 A 
ATOM     14  C   UNL     1       6.244   0.927   9.656  0.00  0.00    +0.049 A 
ATOM     15  C   UNL     1       7.207   0.670  10.614  0.00  0.00    +0.004 A 
ATOM     16  C   UNL     1       8.423   0.126  10.245  0.00  0.00    +0.004 A 
ATOM     17  C   UNL     1       8.680  -0.162   8.918  0.00  0.00    +0.049 A 
ATOM     18  C   UNL     1       7.719   0.094   7.952  0.00  0.00    +0.163 A 
ATOM     19  O   UNL     1       7.987  -0.192   6.649  0.00  0.00    -0.473 OA
ENDBRANCH   6  10
BRANCH   8  20
ATOM     20  C   UNL     1       3.535   0.625   0.569  0.00  0.00    +0.019 C 
BRANCH  20  22
ATOM     21  N   UNL     1       1.166   0.334  -0.078  0.00  0.00    -0.306 N 
ATOM     22  C   UNL     1       2.230  -0.126   0.610  0.00  0.00    +0.197 C 
ATOM     23  O   UNL     1       2.136  -1.144   1.262  0.00  0.00    -0.278 OA
ATOM     24  H   UNL     1       1.241   1.149  -0.600  0.00  0.00    +0.150 HD
BRANCH  21  25
ATOM     25  C   UNL     1      -0.104  -0.396  -0.039  0.00  0.00    +0.140 C 
BRANCH  25  29
ATOM     26  C   UNL     1      -2.356   0.472  -3.563  0.00  0.00    +0.000 A 
ATOM     27  C   UNL     1      -2.332  -0.815  -3.057  0.00  0.00    +0.000 A 
ATOM     28  C   UNL     1      -1.603  -1.095  -1.917  0.00  0.00    +0.006 A 
ATOM     29  C   UNL     1      -0.898  -0.090  -1.282  0.00  0.00    -0.022 A 
ATOM     30  C   UNL     1      -0.926   1.198  -1.785  0.00  0.00    +0.006 A 
ATOM     31  C   UNL     1      -1.652   1.478  -2.928  0.00  0.00    +0.000 A 
ENDBRANCH  25  29
BRANCH  25  32
ATOM     32  C   UNL     1      -0.889   0.027   1.176  0.00  0.00    +0.014 A 
ATOM     33  C   UNL     1      -1.637  -0.730   2.015  0.00  0.00    +0.013 A 
ATOM     34  C   UNL     1      -2.274  -0.121   3.080  0.00  0.00    +0.008 A 
ATOM     35  C   UNL     1      -2.140   1.218   3.247  0.00  0.00    +0.045 A 
ATOM     36  S   UNL     1      -1.081   1.657   1.879  0.00  0.00    -0.099 S 
ENDBRANCH  25  32
ENDBRANCH  21  25
ENDBRANCH  20  22
ENDBRANCH   8  20
TORSDOF 6
