REMARK  Name = ZINC27645491
REMARK  22 active torsions:
REMARK  status: ('A' for Active; 'I' for Inactive)
REMARK    1  A    between atoms: C_1  and  C_2
REMARK    2  A    between atoms: C_2  and  O_3
REMARK    3  A    between atoms: O_3  and  C_4
REMARK    4  A    between atoms: C_4  and  C_6
REMARK    5  A    between atoms: C_7  and  C_8
REMARK    6  A    between atoms: C_8  and  C_10
REMARK    7  A    between atoms: C_8  and  N_14
REMARK    8  A    between atoms: C_10  and  C_11
REMARK    9  A    between atoms: C_11  and  C_12
REMARK   10  A    between atoms: C_11  and  C_13
REMARK   11  A    between atoms: C_15  and  C_17
REMARK   12  A    between atoms: C_17  and  C_19
REMARK   13  A    between atoms: C_17  and  N_21
REMARK   14  A    between atoms: C_19  and  O_20
REMARK   15  A    between atoms: C_22  and  C_24
REMARK   16  A    between atoms: C_24  and  C_26
REMARK   17  A    between atoms: C_24  and  N_29
REMARK   18  A    between atoms: C_26  and  C_27
REMARK   19  A    between atoms: C_26  and  C_28
REMARK   20  A    between atoms: C_30  and  C_32
REMARK   21  A    between atoms: C_36  and  O_39
REMARK   22  A    between atoms: C_37  and  C_38
REMARK                            x       y       z     vdW  Elec       q    Type
REMARK                         _______ _______ _______ _____ _____    ______ ____
ROOT
ATOM      1  N   UNK A   1       1.440   4.425   1.659  0.00  0.00    -0.301 N 
ATOM      2  C   UNK A   1       1.340   3.472   0.711  0.00  0.00    +0.234 C 
ATOM      3  O   UNK A   1       1.167   2.315   1.030  0.00  0.00    -0.274 OA
ATOM      4  H   UNK A   1       1.518   5.483   1.369  0.00  0.00    +0.150 HD
ENDROOT
BRANCH   1   5
ATOM      5  C   UNK A   1       1.445   4.051   3.075  0.00  0.00    +0.184 C 
BRANCH   5   7
ATOM      6  N   UNK A   1       0.875   5.098   5.243  0.00  0.00    -0.307 N 
ATOM      7  C   UNK A   1       0.956   5.212   3.902  0.00  0.00    +0.236 C 
ATOM      8  O   UNK A   1       0.635   6.249   3.362  0.00  0.00    -0.274 OA
ATOM      9  H   UNK A   1       1.242   4.188   5.740  0.00  0.00    +0.149 HD
BRANCH   6  10
ATOM     10  C   UNK A   1       0.298   6.185   6.037  0.00  0.00    +0.097 C 
BRANCH  10  12
ATOM     11  C   UNK A   1       1.819   7.016   7.782  0.00  0.00    +0.089 C 
ATOM     12  C   UNK A   1       0.873   6.149   7.430  0.00  0.00    +0.002 C 
BRANCH  11  13
ATOM     13  C   UNK A   1       2.429   7.889   6.769  0.00  0.00    +0.332 C 
ATOM     14  O   UNK A   1       2.180   7.719   5.591  0.00  0.00    -0.246 OA
BRANCH  13  15
ATOM     15  O   UNK A   1       3.265   8.877   7.146  0.00  0.00    -0.462 OA
BRANCH  15  17
ATOM     16  C   UNK A   1       4.747  10.758   6.708  0.00  0.00    +0.048 C 
ATOM     17  C   UNK A   1       3.831   9.699   6.092  0.00  0.00    +0.229 C 
ENDBRANCH  15  17
ENDBRANCH  13  15
ENDBRANCH  11  13
ENDBRANCH  10  12
BRANCH  10  18
ATOM     18  C   UNK A   1      -1.221   6.014   6.108  0.00  0.00    +0.029 C 
BRANCH  18  19
ATOM     19  C   UNK A   1      -1.844   7.252   6.758  0.00  0.00    -0.015 C 
ATOM     20  C   UNK A   1      -2.122   8.306   5.684  0.00  0.00    +0.007 C 
ATOM     21  C   UNK A   1      -3.155   6.862   7.443  0.00  0.00    +0.007 C 
ENDBRANCH  18  19
ENDBRANCH  10  18
ENDBRANCH   6  10
ENDBRANCH   5   7
BRANCH   5  22
ATOM     22  C   UNK A   1       2.868   3.685   3.501  0.00  0.00    +0.187 C 
BRANCH  22  23
ATOM     23  O   UNK A   1       3.704   4.840   3.412  0.00  0.00    -0.393 OA
ATOM     24  H   UNK A   1       4.768   4.771   3.681  0.00  0.00    +0.209 HD
ENDBRANCH  22  23
ENDBRANCH   5  22
ENDBRANCH   1   5
BRANCH   2  25
ATOM     25  C   UNK A   1       1.444   3.844  -0.746  0.00  0.00    +0.162 C 
BRANCH  25  26
ATOM     26  N   UNK A   1       2.015   2.724  -1.497  0.00  0.00    -0.300 N 
ATOM     27  C   UNK A   0       2.662   2.951  -2.658  0.00  0.00    +0.245 C 
ATOM     28  O   UNK A   0       2.771   4.085  -3.081  0.00  0.00    -0.270 OA
ATOM     29  H   UNK A   1       1.917   1.698  -1.114  0.00  0.00    +0.150 HD
BRANCH  27  30
ATOM     30  C   UNK A   0       3.239   1.820  -3.416  0.00  0.00    +0.043 A 
ATOM     31  C   UNK A   0       3.238   0.536  -2.868  0.00  0.00    +0.013 A 
ATOM     32  C   UNK A   0       3.777  -0.516  -3.578  0.00  0.00    +0.004 A 
ATOM     33  C   UNK A   0       4.320  -0.304  -4.832  0.00  0.00    +0.046 A 
ATOM     34  C   UNK A   0       4.326   0.969  -5.385  0.00  0.00    +0.120 A 
ATOM     35  C   UNK A   0       3.782   2.032  -4.683  0.00  0.00    +0.003 A 
ATOM     36  C   UNK A   0       3.782   3.414  -5.284  0.00  0.00    +0.048 C 
BRANCH  34  37
ATOM     37  O   UNK A   0       4.861   1.172  -6.618  0.00  0.00    -0.506 OA
ATOM     38  H   UNK A   0       4.866   2.180  -7.056  0.00  0.00    +0.292 HD
ENDBRANCH  34  37
ENDBRANCH  27  30
ENDBRANCH  25  26
BRANCH  25  39
ATOM     39  C   UNK A   1       0.050   4.165  -1.290  0.00  0.00    +0.012 C 
ATOM     40  C   UNK A   1       0.165   4.626  -2.745  0.00  0.00    +0.009 C 
ATOM     41  C   UNK A   1      -0.581   5.278  -0.452  0.00  0.00    +0.009 C 
ENDBRANCH  25  39
ENDBRANCH   2  25
TORSDOF 16
