REMARK  Name = ZINC12476085
REMARK  8 active torsions:
REMARK  status: ('A' for Active; 'I' for Inactive)
REMARK    1  A    between atoms: C_1  and  C_2
REMARK    2  A    between atoms: C_5  and  C_8
REMARK    3  A    between atoms: C_8  and  C_10
REMARK    4  A    between atoms: C_8  and  N_19
REMARK    5  A    between atoms: N_12  and  C_13
REMARK    6  A    between atoms: N_19  and  C_20
REMARK    7  A    between atoms: C_29  and  C_31
REMARK    8  A    between atoms: C_31  and  C_32
REMARK                            x       y       z     vdW  Elec       q    Type
REMARK                         _______ _______ _______ _____ _____    ______ ____
ROOT
ATOM      1  C   UNL     1       4.656   0.331  -3.107  0.00  0.00    +0.197 C 
ENDROOT
BRANCH   1   6
ATOM      2  C   UNL     1       9.976   2.322  -4.172  0.00  0.00    +0.044 C 
ATOM      3  C   UNL     1       8.588   1.803  -3.894  0.00  0.00    -0.050 A 
ATOM      4  C   UNL     1       7.596   1.938  -4.847  0.00  0.00    +0.004 A 
ATOM      5  C   UNL     1       6.324   1.461  -4.592  0.00  0.00    +0.006 A 
ATOM      6  C   UNL     1       6.044   0.850  -3.385  0.00  0.00    -0.018 A 
ATOM      7  C   UNL     1       7.034   0.720  -2.429  0.00  0.00    +0.006 A 
ATOM      8  C   UNL     1       8.308   1.192  -2.686  0.00  0.00    +0.004 A 
ENDBRANCH   1   6
BRANCH   1   9
ATOM      9  C   UNL     1       4.720  -1.149  -2.831  0.00  0.00    +0.239 C 
ATOM     10  O   UNL     1       4.338  -1.584  -1.765  0.00  0.00    -0.273 OA
ATOM     11  N   UNL     1       5.200  -1.989  -3.769  0.00  0.00    -0.311 N 
ATOM     12  H   UNL     1       5.505  -1.641  -4.622  0.00  0.00    +0.149 HD
BRANCH  11  13
ATOM     13  C   UNL     1       5.261  -3.428  -3.501  0.00  0.00    +0.073 C 
ATOM     14  C   UNL     1       6.558  -3.753  -2.756  0.00  0.00    +0.022 C 
ATOM     15  C   UNL     1       6.622  -5.256  -2.477  0.00  0.00    +0.002 C 
ATOM     16  C   UNL     1       6.588  -6.023  -3.800  0.00  0.00    +0.000 C 
ATOM     17  C   UNL     1       5.292  -5.698  -4.545  0.00  0.00    +0.002 C 
ATOM     18  C   UNL     1       5.228  -4.195  -4.825  0.00  0.00    +0.022 C 
ENDBRANCH  11  13
ENDBRANCH   1   9
BRANCH   1  19
ATOM     19  N   UNL     1       4.101   1.022  -1.940  0.00  0.00    -0.255 N 
ATOM     20  C   UNL     1       2.823   0.804  -1.573  0.00  0.00    +0.226 C 
ATOM     21  O   UNL     1       2.160  -0.033  -2.151  0.00  0.00    -0.275 OA
BRANCH  19  22
ATOM     22  C   UNL     1       4.899   1.909  -1.206  0.00  0.00    +0.041 A 
ATOM     23  C   UNL     1       5.287   3.119  -1.765  0.00  0.00    +0.027 A 
ATOM     24  C   UNL     1       6.073   3.995  -1.042  0.00  0.00    +0.051 A 
ATOM     25  C   UNL     1       6.479   3.668   0.242  0.00  0.00    +0.166 A 
ATOM     26  C   UNL     1       6.091   2.454   0.806  0.00  0.00    +0.168 A 
ATOM     27  C   UNL     1       5.298   1.580   0.082  0.00  0.00    +0.073 A 
ATOM     28  O   UNL     1       6.613   2.371   2.064  0.00  0.00    -0.453 OA
ATOM     29  C   UNL     1       6.981   3.717   2.418  0.00  0.00    +0.466 C 
ATOM     30  O   UNL     1       7.243   4.345   1.149  0.00  0.00    -0.453 OA
ENDBRANCH  19  22
BRANCH  20  31
ATOM     31  C   UNL     1       2.216   1.599  -0.446  0.00  0.00    +0.138 C 
BRANCH  31  32
ATOM     32  C   UNL     1       0.751   1.267  -0.329  0.00  0.00    -0.001 A 
ATOM     33  C   UNL     1       0.151   0.302   0.410  0.00  0.00    +0.011 A 
ATOM     34  C   UNL     1      -1.225   0.176   0.358  0.00  0.00    +0.008 A 
ATOM     35  C   UNL     1      -1.934   1.029  -0.421  0.00  0.00    +0.045 A 
ATOM     36  S   UNL     1      -0.645   2.043  -1.126  0.00  0.00    -0.101 S 
ENDBRANCH  31  32
ENDBRANCH  20  31
ENDBRANCH   1  19
TORSDOF 7
