REMARK  Name = ZINC20051652
REMARK  7 active torsions:
REMARK  status: ('A' for Active; 'I' for Inactive)
REMARK    1  A    between atoms: C_1  and  C_2
REMARK    2  A    between atoms: C_2  and  C_23
REMARK    3  A    between atoms: N_5  and  C_9
REMARK    4  A    between atoms: C_9  and  C_10
REMARK    5  A    between atoms: N_15  and  C_16
REMARK    6  A    between atoms: C_16  and  C_17
REMARK    7  A    between atoms: C_17  and  C_18
REMARK                            x       y       z     vdW  Elec       q    Type
REMARK                         _______ _______ _______ _____ _____    ______ ____
ROOT
ATOM      1  C   UNL     1       8.239   8.068   1.079  0.00  0.00    +0.047 C 
ATOM      2  C   UNL     1       7.113   8.995   0.617  0.00  0.00    +0.135 C 
ATOM      3  C   UNL     1       5.768   8.499   1.108  0.00  0.00    +0.251 C 
ATOM      4  O   UNL     1       5.413   8.364   2.259  0.00  0.00    -0.272 OA
ATOM      5  N   UNL     1       5.049   8.238  -0.002  0.00  0.00    -0.215 N 
ATOM      6  C   UNL     1       5.743   8.505  -1.114  0.00  0.00    +0.310 C 
ATOM      7  O   UNL     1       5.304   8.353  -2.237  0.00  0.00    -0.252 OA
ATOM      8  N   UNL     1       6.981   8.960  -0.850  0.00  0.00    -0.281 N 
ATOM      9  H   UNL     1       7.821   9.276  -1.486  0.00  0.00    +0.152 HD
ENDROOT
BRANCH   2  10
ATOM     10  C   UNL     1       7.360  10.404   1.093  0.00  0.00    -0.014 A 
ATOM     11  C   UNL     1       8.055  11.292   0.292  0.00  0.00    +0.006 A 
ATOM     12  C   UNL     1       8.281  12.584   0.728  0.00  0.00    +0.001 A 
ATOM     13  C   UNL     1       7.813  12.989   1.964  0.00  0.00    +0.015 A 
ATOM     14  C   UNL     1       7.119  12.100   2.765  0.00  0.00    +0.018 A 
ATOM     15  C   UNL     1       6.888  10.809   2.326  0.00  0.00    +0.021 A 
ATOM     16 BR   UNL     1       6.479  12.653   4.457  0.00  0.00    -0.050 Br
ENDBRANCH   2  10
BRANCH   5  17
ATOM     17  C   UNL     1       3.674   7.731   0.009  0.00  0.00    +0.214 C 
BRANCH  17  18
ATOM     18  C   UNL     1       3.695   6.224   0.000  0.00  0.00    +0.238 C 
ATOM     19  O   UNL     1       4.753   5.632  -0.013  0.00  0.00    -0.274 OA
ATOM     20  N   UNL     1       2.537   5.535   0.008  0.00  0.00    -0.239 N 
ATOM     21  C   UNL     1       2.555   4.187   0.000  0.00  0.00    +0.306 C 
ATOM     22  O   UNL     1       3.616   3.594  -0.013  0.00  0.00    -0.252 OA
ATOM     23  N   UNL     1       1.397   3.497   0.007  0.00  0.00    -0.299 N 
ATOM     24  H   UNL     1       1.577   6.072   0.020  0.00  0.00    +0.159 HD
ATOM     25  H   UNL     1       0.437   4.034   0.020  0.00  0.00    +0.150 HD
BRANCH  23  26
ATOM     26  C   UNL     1       1.417   2.032  -0.001  0.00  0.00    +0.111 C 
BRANCH  26  27
ATOM     27  C   UNL     1      -0.018   1.503   0.010  0.00  0.00    +0.061 C 
BRANCH  27  28
ATOM     28  C   UNL     1       0.002  -0.004   0.002  0.00  0.00    -0.009 A 
ATOM     29  C   UNL     1       0.029  -0.863   1.050  0.00  0.00    +0.011 A 
ATOM     30  C   UNL     1       0.040  -2.223   0.802  0.00  0.00    +0.008 A 
ATOM     31  C   UNL     1       0.035  -2.657  -0.482  0.00  0.00    +0.045 A 
ATOM     32  S   UNL     1       0.005  -1.121  -1.391  0.00  0.00    -0.102 S 
ENDBRANCH  27  28
ENDBRANCH  26  27
ENDBRANCH  23  26
ENDBRANCH  17  18
ENDBRANCH   5  17
TORSDOF 6
