REMARK  Name = ZINC13033341
REMARK  11 active torsions:
REMARK  status: ('A' for Active; 'I' for Inactive)
REMARK    1  A    between atoms: C_1  and  C_2
REMARK    2  A    between atoms: C_5  and  C_8
REMARK    3  A    between atoms: C_8  and  N_66
REMARK    4  A    between atoms: C_9  and  C_10
REMARK    5  A    between atoms: C_9  and  N_66
REMARK    6  A    between atoms: C_15  and  C_23
REMARK    7  A    between atoms: C_16  and  C_22
REMARK    8  A    between atoms: C_24  and  C_25
REMARK    9  A    between atoms: C_24  and  N_66
REMARK   10  A    between atoms: N_29  and  C_30
REMARK   11  A    between atoms: C_30  and  C_31
REMARK                            x       y       z     vdW  Elec       q    Type
REMARK                         _______ _______ _______ _____ _____    ______ ____
ROOT
ATOM      1  N   UNL     1       1.563  -2.059  -1.358  0.00  0.00    +0.390 N 
ATOM      2  H   UNL     1       0.842  -1.831  -2.052  0.00  0.00    -0.080 HD
ENDROOT
BRANCH   1   3
ATOM      3  C   UNL     1       2.896  -1.876  -1.971  0.00  0.00    -0.042 C 
BRANCH   3   8
ATOM      4  C   UNL     1       2.896  -4.362  -7.188  0.00  0.00    +0.044 C 
ATOM      5  C   UNL     1       2.896  -3.713  -5.827  0.00  0.00    -0.050 A 
ATOM      6  C   UNL     1       2.403  -2.432  -5.673  0.00  0.00    +0.003 A 
ATOM      7  C   UNL     1       2.403  -1.837  -4.425  0.00  0.00    +0.002 A 
ATOM      8  C   UNL     1       2.896  -2.524  -3.332  0.00  0.00    -0.064 A 
ATOM      9  C   UNL     1       3.393  -3.804  -3.487  0.00  0.00    +0.002 A 
ATOM     10  C   UNL     1       3.389  -4.401  -4.734  0.00  0.00    +0.003 A 
ENDBRANCH   3   8
ENDBRANCH   1   3
BRANCH   1  11
ATOM     11  C   UNL     1       1.392  -3.464  -0.932  0.00  0.00    -0.036 C 
BRANCH  11  12
ATOM     12  C   UNL     1      -0.079  -3.741  -0.762  0.00  0.00    +0.001 A 
ATOM     13  C   UNL     1      -0.793  -4.258  -1.792  0.00  0.00    +0.017 A 
ATOM     14  C   UNL     1      -2.220  -4.519  -1.592  0.00  0.00    -0.001 A 
ATOM     15  C   UNL     1      -3.007  -5.058  -2.615  0.00  0.00    +0.010 A 
ATOM     16  C   UNL     1      -4.337  -5.285  -2.399  0.00  0.00    +0.004 A 
ATOM     17  C   UNL     1      -4.914  -4.987  -1.172  0.00  0.00    -0.046 A 
ATOM     18  C   UNL     1      -4.157  -4.457  -0.149  0.00  0.00    -0.024 A 
ATOM     19  C   UNL     1      -2.801  -4.216  -0.347  0.00  0.00    +0.052 A 
ATOM     20  N   UNL     1      -2.021  -3.687   0.659  0.00  0.00    -0.322 N 
ATOM     21  H   UNL     1      -2.423  -3.479   1.517  0.00  0.00    +0.169 HD
ATOM     22  C   UNL     1      -0.711  -3.455   0.468  0.00  0.00    +0.251 A 
ATOM     23  O   UNL     1      -0.051  -2.986   1.379  0.00  0.00    -0.268 OA
ATOM     24  C   UNL     1      -4.797  -4.139   1.178  0.00  0.00    +0.046 C 
ATOM     25  C   UNL     1      -6.383  -5.247  -0.956  0.00  0.00    +0.044 C 
ENDBRANCH  11  12
ENDBRANCH   1  11
BRANCH   1  26
ATOM     26  C   UNL     1       1.414  -1.158  -0.196  0.00  0.00    +0.001 C 
BRANCH  26  27
ATOM     27  C   UNL     1       1.439   0.269  -0.680  0.00  0.00    +0.135 A 
ATOM     28  N   UNL     1       2.502   1.007  -0.888  0.00  0.00    -0.115 NA
ATOM     29  N   UNL     1       2.110   2.164  -1.298  0.00  0.00    -0.023 NA
ATOM     30  N   UNL     1       0.824   2.183  -1.356  0.00  0.00    -0.044 NA
ATOM     31  N   UNL     1       0.373   1.034  -0.983  0.00  0.00    -0.227 N 
BRANCH  31  32
ATOM     32  C   UNL     1      -1.034   0.635  -0.904  0.00  0.00    +0.182 C 
BRANCH  32  33
ATOM     33  C   UNL     1      -1.510   0.198  -2.265  0.00  0.00    -0.026 A 
ATOM     34  C   UNL     1      -1.962   1.138  -3.173  0.00  0.00    +0.008 A 
ATOM     35  C   UNL     1      -2.394   0.739  -4.424  0.00  0.00    +0.038 A 
ATOM     36  C   UNL     1      -2.384  -0.603  -4.764  0.00  0.00    +0.123 A 
ATOM     37  C   UNL     1      -1.937  -1.544  -3.851  0.00  0.00    +0.038 A 
ATOM     38  C   UNL     1      -1.500  -1.142  -2.603  0.00  0.00    +0.008 A 
ATOM     39  F   UNL     1      -2.811  -0.995  -5.984  0.00  0.00    -0.205 F 
ENDBRANCH  32  33
ENDBRANCH  31  32
ENDBRANCH  26  27
ENDBRANCH   1  26
TORSDOF 8
