REMARK  Name = ZINC13494574
REMARK  18 active torsions:
REMARK  status: ('A' for Active; 'I' for Inactive)
REMARK    1  A    between atoms: C_1  and  C_2
REMARK    2  A    between atoms: C_2  and  C_3
REMARK    3  A    between atoms: C_3  and  C_5
REMARK    4  A    between atoms: C_3  and  N_76
REMARK    5  A    between atoms: N_9  and  C_10
REMARK    6  A    between atoms: C_10  and  C_11
REMARK    7  A    between atoms: C_10  and  C_12
REMARK    8  A    between atoms: C_10  and  C_13
REMARK    9  A    between atoms: C_14  and  C_15
REMARK   10  A    between atoms: C_14  and  N_76
REMARK   11  A    between atoms: C_15  and  C_16
REMARK   12  A    between atoms: C_19  and  O_24
REMARK   13  A    between atoms: C_20  and  O_22
REMARK   14  A    between atoms: O_22  and  C_23
REMARK   15  A    between atoms: O_24  and  C_25
REMARK   16  A    between atoms: C_26  and  C_27
REMARK   17  A    between atoms: C_26  and  N_76
REMARK   18  A    between atoms: C_31  and  C_39
REMARK                            x       y       z     vdW  Elec       q    Type
REMARK                         _______ _______ _______ _____ _____    ______ ____
ROOT
ATOM      1  N   UNL     1      -3.774   4.358  -1.038  0.00  0.00    +0.389 N 
ATOM      2  H   UNL     1      -3.735   5.313  -0.662  0.00  0.00    -0.080 HD
ENDROOT
BRANCH   1   3
ATOM      3  C   UNL     1      -4.972   3.679  -0.501  0.00  0.00    +0.003 C 
BRANCH   3   4
ATOM      4  C   UNL     1      -5.280   4.254   0.857  0.00  0.00    +0.139 A 
ATOM      5  N   UNL     1      -4.412   4.660   1.751  0.00  0.00    -0.115 NA
ATOM      6  N   UNL     1      -5.066   5.086   2.776  0.00  0.00    -0.023 NA
ATOM      7  N   UNL     1      -6.329   4.954   2.563  0.00  0.00    -0.043 NA
ATOM      8  N   UNL     1      -6.502   4.444   1.391  0.00  0.00    -0.226 N 
BRANCH   8   9
ATOM      9  C   UNL     1      -7.786   4.132   0.758  0.00  0.00    +0.059 C 
ATOM     10  C   UNL     1      -7.780   2.677   0.284  0.00  0.00    +0.036 C 
ATOM     11  C   UNL     1      -8.915   4.334   1.771  0.00  0.00    +0.036 C 
ATOM     12  C   UNL     1      -8.003   5.058  -0.440  0.00  0.00    +0.036 C 
ENDBRANCH   8   9
ENDBRANCH   3   4
BRANCH   3  14
ATOM     13  C   UNL     1      -4.569   1.563  -1.767  0.00  0.00    +0.002 C 
ATOM     14  C   UNL     1      -4.719   2.175  -0.373  0.00  0.00    -0.011 C 
ENDBRANCH   3  14
ENDBRANCH   1   3
BRANCH   1  15
ATOM     15  C   UNL     1      -2.554   3.631  -0.628  0.00  0.00    -0.073 C 
BRANCH  15  16
ATOM     16  C   UNL     1      -2.368   3.791   0.882  0.00  0.00    +0.017 C 
BRANCH  16  17
ATOM     17  C   UNL     1      -1.046   3.195   1.291  0.00  0.00    -0.045 A 
ATOM     18  C   UNL     1      -0.988   1.891   1.747  0.00  0.00    +0.007 A 
ATOM     19  C   UNL     1       0.222   1.342   2.129  0.00  0.00    +0.049 A 
ATOM     20  C   UNL     1       1.382   2.095   2.043  0.00  0.00    +0.161 A 
ATOM     21  C   UNL     1       1.325   3.406   1.578  0.00  0.00    +0.162 A 
ATOM     22  C   UNL     1       0.108   3.952   1.203  0.00  0.00    +0.053 A 
BRANCH  21  23
ATOM     23  O   UNL     1       2.461   4.149   1.493  0.00  0.00    -0.491 OA
ATOM     24  C   UNL     1       2.326   5.486   1.007  0.00  0.00    +0.277 C 
ENDBRANCH  21  23
BRANCH  20  25
ATOM     25  O   UNL     1       2.574   1.555   2.413  0.00  0.00    -0.491 OA
ATOM     26  C   UNL     1       2.557   0.204   2.880  0.00  0.00    +0.277 C 
ENDBRANCH  20  25
ENDBRANCH  16  17
ENDBRANCH  15  16
ENDBRANCH   1  15
BRANCH   1  27
ATOM     27  C   UNL     1      -3.850   4.426  -2.513  0.00  0.00    -0.037 C 
BRANCH  27  28
ATOM     28  C   UNL     1      -4.923   5.412  -2.897  0.00  0.00    +0.001 A 
ATOM     29  C   UNL     1      -4.602   6.712  -3.110  0.00  0.00    +0.017 A 
ATOM     30  C   UNL     1      -5.667   7.644  -3.482  0.00  0.00    -0.001 A 
ATOM     31  C   UNL     1      -5.397   8.997  -3.715  0.00  0.00    +0.013 A 
ATOM     32  C   UNL     1      -6.413   9.841  -4.061  0.00  0.00    -0.050 A 
ATOM     33  C   UNL     1      -7.713   9.368  -4.185  0.00  0.00    +0.005 A 
ATOM     34  C   UNL     1      -8.002   8.040  -3.962  0.00  0.00    +0.026 A 
ATOM     35  C   UNL     1      -6.983   7.162  -3.607  0.00  0.00    +0.049 A 
ATOM     36  N   UNL     1      -7.244   5.827  -3.378  0.00  0.00    -0.322 N 
ATOM     37  H   UNL     1      -8.152   5.496  -3.465  0.00  0.00    +0.169 HD
ATOM     38  C   UNL     1      -6.258   4.978  -3.042  0.00  0.00    +0.251 A 
ATOM     39  O   UNL     1      -6.525   3.804  -2.851  0.00  0.00    -0.268 OA
ATOM     40  C   UNL     1      -6.122  11.298  -4.311  0.00  0.00    +0.044 C 
ENDBRANCH  27  28
ENDBRANCH   1  27
TORSDOF 11
