REMARK  Name = ZINC02886824
REMARK  8 active torsions:
REMARK  status: ('A' for Active; 'I' for Inactive)
REMARK    1  A    between atoms: C_3  and  O_12
REMARK    2  A    between atoms: O_12  and  C_13
REMARK    3  A    between atoms: C_13  and  C_14
REMARK    4  A    between atoms: C_14  and  C_16
REMARK    5  A    between atoms: C_14  and  O_31
REMARK    6  A    between atoms: C_16  and  N_61
REMARK    7  A    between atoms: N_19  and  S_22
REMARK    8  A    between atoms: S_22  and  N_25
REMARK                            x       y       z     vdW  Elec       q    Type
REMARK                         _______ _______ _______ _____ _____    ______ ____
ROOT
ATOM      1  C   UNL     1      -0.170   0.981  -2.406  0.00  0.00    -0.044 C 
ENDROOT
BRANCH   1   7
ATOM      2  C   UNL     1      -0.013   1.086   0.008  0.00  0.00    -0.061 C 
ATOM      3  C   UNL     1      -0.731   1.581   1.268  0.00  0.00    +0.092 C 
ATOM      4  N   UNL     1      -0.872   3.042   1.182  0.00  0.00    -0.170 NA
ATOM      5  C   UNL     1      -1.452   3.615  -0.042  0.00  0.00    +0.092 C 
ATOM      6  C   UNL     1      -0.705   3.040  -1.250  0.00  0.00    -0.061 C 
ATOM      7  N   UNL     1      -0.753   1.564  -1.180  0.00  0.00    +0.383 N 
ATOM      8  H   UNL     1      -1.733   1.266  -1.103  0.00  0.00    -0.082 HD
BRANCH   4   9
ATOM      9  S   UNL     1      -0.389   4.017   2.430  0.00  0.00    +0.099 S 
ATOM     10  O   UNL     1       0.588   3.287   3.161  0.00  0.00    -0.141 OA
ATOM     11  O   UNL     1      -0.122   5.295   1.868  0.00  0.00    -0.141 OA
BRANCH   9  12
ATOM     12  N   UNL     1      -1.690   4.205   3.437  0.00  0.00    -0.166 NA
ATOM     13  C   UNL     1      -2.635   5.312   3.240  0.00  0.00    +0.110 C 
ATOM     14  C   UNL     1      -4.055   4.732   3.145  0.00  0.00    +0.017 C 
ATOM     15  C   UNL     1      -4.335   3.880   4.385  0.00  0.00    +0.003 C 
ATOM     16  C   UNL     1      -3.342   2.717   4.442  0.00  0.00    +0.017 C 
ATOM     17  C   UNL     1      -1.918   3.271   4.548  0.00  0.00    +0.110 C 
ENDBRANCH   9  12
ENDBRANCH   4   9
ENDBRANCH   1   7
BRANCH   1  18
ATOM     18  C   UNL     1      -1.081   1.309  -3.590  0.00  0.00    +0.135 C 
BRANCH  18  19
ATOM     19  O   UNL     1      -2.385   0.774  -3.350  0.00  0.00    -0.390 OA
ATOM     20  H   UNL     1      -2.401  -0.186  -3.235  0.00  0.00    +0.210 HD
ENDBRANCH  18  19
BRANCH  18  21
ATOM     21  C   UNL     1      -0.504   0.693  -4.865  0.00  0.00    +0.258 C 
BRANCH  21  22
ATOM     22  O   UNL     1      -1.291   1.096  -5.988  0.00  0.00    -0.489 OA
BRANCH  22  25
ATOM     23  C   UNL     1       0.615  -0.681  -8.515  0.00  0.00    +0.012 A 
ATOM     24  C   UNL     1       0.212  -0.196  -7.310  0.00  0.00    +0.046 A 
ATOM     25  C   UNL     1      -0.910   0.632  -7.207  0.00  0.00    +0.121 A 
ATOM     26  C   UNL     1      -1.625   0.985  -8.316  0.00  0.00    +0.054 A 
ATOM     27  C   UNL     1      -1.232   0.505  -9.576  0.00  0.00    -0.014 A 
ATOM     28  C   UNL     1      -0.097  -0.339  -9.678  0.00  0.00    -0.017 A 
ATOM     29  C   UNL     1       0.295  -0.817 -10.939  0.00  0.00    +0.023 A 
ATOM     30  C   UNL     1      -0.418  -0.465 -12.045  0.00  0.00    +0.018 A 
ATOM     31  C   UNL     1      -1.534   0.366 -11.945  0.00  0.00    +0.016 A 
ATOM     32  C   UNL     1      -1.943   0.848 -10.740  0.00  0.00    +0.010 A 
ATOM     33 BR   UNL     1       0.113  -1.111 -13.741  0.00  0.00    -0.050 Br
ENDBRANCH  22  25
ENDBRANCH  21  22
ENDBRANCH  18  21
ENDBRANCH   1  18
TORSDOF 8
