REMARK  Name = ZINC12151146
REMARK  11 active torsions:
REMARK  status: ('A' for Active; 'I' for Inactive)
REMARK    1  A    between atoms: C_1  and  C_2
REMARK    2  A    between atoms: C_2  and  C_4
REMARK    3  A    between atoms: C_2  and  O_17
REMARK    4  A    between atoms: C_4  and  N_5
REMARK    5  A    between atoms: C_6  and  C_8
REMARK    6  A    between atoms: O_17  and  C_18
REMARK    7  A    between atoms: C_21  and  C_24
REMARK    8  A    between atoms: C_24  and  N_65
REMARK    9  A    between atoms: C_25  and  N_65
REMARK   10  A    between atoms: C_26  and  C_27
REMARK   11  A    between atoms: C_26  and  N_65
REMARK                            x       y       z     vdW  Elec       q    Type
REMARK                         _______ _______ _______ _____ _____    ______ ____
ROOT
ATOM      1  C   UNL     1      -0.752  10.490   1.218  0.00  0.00    +0.121 A 
ATOM      2  C   UNL     1      -1.318  10.864   0.008  0.00  0.00    +0.046 A 
ATOM      3  C   UNL     1      -2.649  11.229  -0.047  0.00  0.00    +0.005 A 
ATOM      4  C   UNL     1      -3.414  11.234   1.104  0.00  0.00    -0.064 A 
ATOM      5  C   UNL     1      -2.851  10.867   2.313  0.00  0.00    +0.005 A 
ATOM      6  C   UNL     1      -1.522  10.495   2.372  0.00  0.00    +0.046 A 
ENDROOT
BRANCH   1   7
ATOM      7  O   UNL     1       0.555  10.124   1.274  0.00  0.00    -0.488 OA
BRANCH   7   9
ATOM      8  C   UNL     1       0.805   8.431   2.980  0.00  0.00    +0.053 C 
ATOM      9  C   UNL     1       1.104   9.874   2.569  0.00  0.00    +0.187 C 
BRANCH   9  10
ATOM     10  C   UNL     1       2.618  10.090   2.532  0.00  0.00    +0.148 C 
BRANCH  10  11
ATOM     11  N   UNL     1       2.904  11.500   2.256  0.00  0.00    -0.307 N 
ATOM     12  C   UNL     1       4.180  11.927   2.177  0.00  0.00    +0.264 C 
ATOM     13  O   UNL     1       5.094  11.141   2.335  0.00  0.00    -0.268 OA
ATOM     14  H   UNL     1       2.174  12.127   2.131  0.00  0.00    +0.149 HD
BRANCH  12  15
ATOM     15  C   UNL     1       4.467  13.348   1.900  0.00  0.00    +0.144 A 
ATOM     16  C   UNL     1       5.708  13.908   1.794  0.00  0.00    +0.125 A 
ATOM     17  N   UNL     1       5.528  15.232   1.532  0.00  0.00    -0.306 N 
ATOM     18  C   UNL     1       6.409  16.259   1.334  0.00  0.00    +0.093 A 
ATOM     19  C   UNL     1       5.964  17.508   1.086  0.00  0.00    +0.018 A 
ATOM     20  C   UNL     1       4.585  17.773   1.035  0.00  0.00    +0.005 A 
ATOM     21  C   UNL     1       3.696  16.763   1.226  0.00  0.00    +0.047 A 
ATOM     22  C   UNL     1       4.175  15.460   1.483  0.00  0.00    +0.138 A 
ATOM     23  N   UNL     1       3.552  14.315   1.706  0.00  0.00    -0.223 NA
ENDBRANCH  12  15
ENDBRANCH  10  11
ENDBRANCH   9  10
ENDBRANCH   7   9
ENDBRANCH   1   7
BRANCH   4  24
ATOM     24  C   UNL     1      -4.865  11.639   1.042  0.00  0.00    -0.043 C 
BRANCH  24  26
ATOM     25  C   UNL     1      -4.359  13.832   0.149  0.00  0.00    -0.095 C 
ATOM     26  N   UNL     1      -4.963  13.095   1.279  0.00  0.00    +0.383 N 
ATOM     27  H   UNL     1      -4.455  13.328   2.140  0.00  0.00    -0.081 HD
BRANCH  26  28
ATOM     28  C   UNL     1      -6.380  13.486   1.438  0.00  0.00    -0.043 C 
BRANCH  28  29
ATOM     29  C   UNL     1      -6.440  14.921   1.894  0.00  0.00    -0.063 A 
ATOM     30  C   UNL     1      -6.426  15.211   3.257  0.00  0.00    +0.004 A 
ATOM     31  C   UNL     1      -6.473  16.496   3.702  0.00  0.00    +0.028 A 
ATOM     32  C   UNL     1      -6.549  17.552   2.778  0.00  0.00    +0.071 A 
ATOM     33  C   UNL     1      -6.569  17.255   1.392  0.00  0.00    +0.001 A 
ATOM     34  C   UNL     1      -6.512  15.917   0.969  0.00  0.00    +0.011 A 
ATOM     35  C   UNL     1      -6.645  18.314   0.468  0.00  0.00    +0.011 A 
ATOM     36  C   UNL     1      -6.697  19.590   0.953  0.00  0.00    +0.020 A 
ATOM     37  C   UNL     1      -6.674  19.813   2.328  0.00  0.00    +0.111 A 
ATOM     38  N   UNL     1      -6.603  18.824   3.186  0.00  0.00    -0.255 NA
ENDBRANCH  28  29
ENDBRANCH  26  28
ENDBRANCH  24  26
ENDBRANCH   4  24
TORSDOF 9
