REMARK  Name = ZINC35641287
REMARK  9 active torsions:
REMARK  status: ('A' for Active; 'I' for Inactive)
REMARK    1  A    between atoms: C_1  and  C_2
REMARK    2  A    between atoms: C_2  and  O_3
REMARK    3  A    between atoms: O_3  and  C_4
REMARK    4  A    between atoms: C_4  and  C_6
REMARK    5  A    between atoms: C_7  and  C_25
REMARK    6  A    between atoms: N_8  and  C_22
REMARK    7  A    between atoms: C_12  and  C_14
REMARK    8  A    between atoms: C_22  and  C_23
REMARK    9  A    between atoms: C_25  and  N_26
REMARK                            x       y       z     vdW  Elec       q    Type
REMARK                         _______ _______ _______ _____ _____    ______ ____
ROOT
ATOM      1  C   UNL     1      -3.259  -2.577   0.830  0.00  0.00    +0.077 C 
ATOM      2  C   UNL     1      -3.339  -3.745   0.157  0.00  0.00    +0.011 C 
ATOM      3  N   UNL     1      -4.498  -4.128  -0.454  0.00  0.00    -0.257 N 
ATOM      4  C   UNL     1      -5.622  -3.400  -0.439  0.00  0.00    +0.307 C 
ATOM      5  O   UNL     1      -6.606  -3.824  -1.012  0.00  0.00    -0.252 OA
ATOM      6  N   UNL     1      -5.697  -2.211   0.192  0.00  0.00    -0.288 N 
ATOM      7  C   UNL     1      -4.500  -1.710   0.888  0.00  0.00    +0.145 C 
ATOM      8  H   UNL     1      -6.521  -1.699   0.190  0.00  0.00    +0.151 HD
ENDROOT
BRANCH   7   9
ATOM      9  C   UNL     1      -4.854  -1.501   2.338  0.00  0.00    -0.004 A 
ATOM     10  C   UNL     1      -5.726  -2.369   2.969  0.00  0.00    +0.008 A 
ATOM     11  C   UNL     1      -6.051  -2.178   4.298  0.00  0.00    +0.020 A 
ATOM     12  C   UNL     1      -5.502  -1.119   5.000  0.00  0.00    +0.042 A 
ATOM     13  C   UNL     1      -4.629  -0.251   4.370  0.00  0.00    +0.040 A 
ATOM     14  C   UNL     1      -4.301  -0.445   3.040  0.00  0.00    +0.048 A 
ATOM     15 CL   UNL     1      -3.200   0.640   2.250  0.00  0.00    -0.083 Cl
ATOM     16 CL   UNL     1      -5.911  -0.880   6.670  0.00  0.00    -0.083 Cl
ENDBRANCH   7   9
BRANCH   1  17
ATOM     17  C   UNL     1      -2.058  -2.179   1.464  0.00  0.00    +0.339 C 
ATOM     18  O   UNL     1      -1.370  -1.306   0.969  0.00  0.00    -0.245 OA
BRANCH  17  19
ATOM     19  O   UNL     1      -1.677  -2.767   2.617  0.00  0.00    -0.462 OA
BRANCH  19  21
ATOM     20  C   UNL     1      -0.189  -3.092   4.493  0.00  0.00    +0.048 C 
ATOM     21  C   UNL     1      -0.454  -2.316   3.202  0.00  0.00    +0.229 C 
ENDBRANCH  19  21
ENDBRANCH  17  19
ENDBRANCH   1  17
BRANCH   3  22
ATOM     22  C   UNL     1      -4.514  -5.408  -1.166  0.00  0.00    +0.141 C 
BRANCH  22  23
ATOM     23  C   UNL     1      -5.059  -6.481  -0.259  0.00  0.00    -0.015 C 
ATOM     24  C   UNL     1      -6.089  -7.197  -0.635  0.00  0.00    +0.005 C 
ENDBRANCH  22  23
ENDBRANCH   3  22
BRANCH   2  25
ATOM     25  C   UNL     1      -2.129  -4.640   0.079  0.00  0.00    -0.026 C 
BRANCH  25  26
ATOM     26  N   UNL     1      -1.549  -4.562  -1.268  0.00  0.00    +0.383 N 
ATOM     27  C   UNL     1      -0.925  -3.231  -1.481  0.00  0.00    -0.078 C 
ATOM     28  C   UNL     1       0.082  -3.491  -2.630  0.00  0.00    -0.020 C 
ATOM     29  C   UNL     1       0.620  -4.904  -2.305  0.00  0.00    -0.020 C 
ATOM     30  C   UNL     1      -0.455  -5.548  -1.410  0.00  0.00    -0.078 C 
ATOM     31  H   UNL     1      -2.260  -4.730  -1.964  0.00  0.00    -0.081 HD
ENDBRANCH  25  26
ENDBRANCH   2  25
TORSDOF 8
