REMARK  Name = ZINC01821825
REMARK  8 active torsions:
REMARK  status: ('A' for Active; 'I' for Inactive)
REMARK    1  A    between atoms: C_1  and  C_2
REMARK    2  A    between atoms: C_2  and  O_3
REMARK    3  A    between atoms: O_3  and  C_4
REMARK    4  A    between atoms: N_15  and  C_16
REMARK    5  A    between atoms: C_19  and  S_22
REMARK    6  A    between atoms: S_22  and  N_25
REMARK    7  A    between atoms: C_31  and  C_33
REMARK    8  A    between atoms: C_31  and  C_34
REMARK                            x       y       z     vdW  Elec       q    Type
REMARK                         _______ _______ _______ _____ _____    ______ ____
ROOT
ATOM      1  C   UNL     1       1.268   1.710   0.506  0.00  0.00    +0.121 A 
ATOM      2  C   UNL     1       1.192   3.089   0.646  0.00  0.00    +0.047 A 
ATOM      3  C   UNL     1      -0.029   3.737   0.593  0.00  0.00    +0.027 A 
ATOM      4  C   UNL     1      -1.189   3.004   0.393  0.00  0.00    +0.036 A 
ATOM      5  C   UNL     1      -1.107   1.620   0.233  0.00  0.00    +0.010 A 
ATOM      6  C   UNL     1       0.113   0.967   0.303  0.00  0.00    +0.056 A 
ATOM      7  C   UNL     1      -2.381   0.832   0.012  0.00  0.00    +0.029 A 
ATOM      8  C   UNL     1      -3.501   1.562  -0.286  0.00  0.00    +0.030 A 
ATOM      9  S   UNL     1      -4.903   0.556  -0.450  0.00  0.00    -0.052 S 
ATOM     10  S   UNL     1      -3.943  -1.268  -0.096  0.00  0.00    -0.032 S 
ATOM     11  C   UNL     1      -2.309  -0.585   0.146  0.00  0.00    +0.117 A 
ATOM     12  N   UNL     1      -1.209  -1.283   0.408  0.00  0.00    -0.240 NA
ATOM     13  C   UNL     1      -3.515   3.066  -0.452  0.00  0.00    +0.059 C 
ATOM     14  N   UNL     1      -2.436   3.641   0.361  0.00  0.00    -0.334 N 
ATOM     15  C   UNL     1      -4.862   3.621   0.017  0.00  0.00    +0.037 C 
ATOM     16  C   UNL     1      -3.297   3.425  -1.923  0.00  0.00    +0.037 C 
ATOM     17  H   UNL     1      -2.585   4.453   0.871  0.00  0.00    +0.147 HD
ENDROOT
BRANCH  12  18
ATOM     18  C   UNL     1      -0.468  -0.998   1.516  0.00  0.00    +0.065 A 
ATOM     19  C   UNL     1       0.765  -1.626   1.718  0.00  0.00    +0.030 A 
ATOM     20  C   UNL     1       1.511  -1.327   2.839  0.00  0.00    +0.031 A 
ATOM     21  C   UNL     1       1.038  -0.418   3.768  0.00  0.00    +0.109 A 
ATOM     22  C   UNL     1      -0.185   0.203   3.579  0.00  0.00    +0.031 A 
ATOM     23  C   UNL     1      -0.940  -0.080   2.460  0.00  0.00    +0.030 A 
BRANCH  21  24
ATOM     24  S   UNL     1       1.995  -0.050   5.201  0.00  0.00    +0.074 S 
ATOM     25  O   UNL     1       3.324  -0.466   4.919  0.00  0.00    -0.150 OA
ATOM     26  O   UNL     1       1.676   1.285   5.570  0.00  0.00    -0.150 OA
BRANCH  24  27
ATOM     27  N   UNL     1       1.443  -1.023   6.422  0.00  0.00    -0.194 N 
ATOM     28  C   UNL     1       1.632  -2.395   6.354  0.00  0.00    +0.177 A 
ATOM     29  N   UNL     1       1.191  -3.333   7.169  0.00  0.00    -0.232 NA
ATOM     30  C   UNL     1       1.465  -4.607   6.956  0.00  0.00    +0.120 A 
ATOM     31  C   UNL     1       2.214  -4.934   5.876  0.00  0.00    +0.068 A 
ATOM     32  S   UNL     1       2.502  -3.319   5.169  0.00  0.00    -0.059 S 
ATOM     33  H   UNL     1       0.988  -0.633   7.185  0.00  0.00    +0.176 HD
ENDBRANCH  24  27
ENDBRANCH  21  24
ENDBRANCH  12  18
BRANCH   1  34
ATOM     34  O   UNL     1       2.475   1.086   0.570  0.00  0.00    -0.492 OA
BRANCH  34  36
ATOM     35  C   UNL     1       4.891   1.054   0.604  0.00  0.00    +0.048 C 
ATOM     36  C   UNL     1       3.632   1.920   0.669  0.00  0.00    +0.225 C 
ENDBRANCH  34  36
ENDBRANCH   1  34
TORSDOF 5
