REMARK  Name = ZINC63119625
REMARK  5 active torsions:
REMARK  status: ('A' for Active; 'I' for Inactive)
REMARK    1  A    between atoms: C_4  and  C_7
REMARK    2  A    between atoms: C_8  and  C_23
REMARK    3  A    between atoms: N_24  and  C_25
REMARK    4  A    between atoms: C_25  and  C_26
REMARK    5  A    between atoms: C_26  and  C_27
REMARK                            x       y       z     vdW  Elec       q    Type
REMARK                         _______ _______ _______ _____ _____    ______ ____
ROOT
ATOM      1  C   UNL     1       3.695  -0.707  -0.235  0.00  0.00    +0.077 A 
ATOM      2  C   UNL     1       3.865  -2.063   0.045  0.00  0.00    +0.084 A 
ATOM      3  C   UNL     1       5.309  -2.280   0.195  0.00  0.00    +0.283 A 
ATOM      4  O   UNL     1       5.861  -3.336   0.443  0.00  0.00    -0.265 OA
ATOM      5  N   UNL     1       5.909  -1.088   0.004  0.00  0.00    -0.194 N 
ATOM      6  N   UNL     1       4.931  -0.125  -0.264  0.00  0.00    -0.287 N 
ATOM      7  H   UNL     1       5.103   0.813  -0.441  0.00  0.00    +0.188 HD
ATOM      8  C   UNL     1       7.272  -0.855   0.059  0.00  0.00    +0.196 A 
ATOM      9  N   UNL     1       7.922   0.273  -0.109  0.00  0.00    -0.221 NA
ATOM     10  C   UNL     1       9.268   0.354  -0.026  0.00  0.00    +0.081 A 
ATOM     11  C   UNL     1      10.085   1.497  -0.185  0.00  0.00    +0.029 A 
ATOM     12  C   UNL     1      11.447   1.406  -0.069  0.00  0.00    +0.002 A 
ATOM     13  C   UNL     1      12.072   0.198   0.206  0.00  0.00    +0.001 A 
ATOM     14  C   UNL     1      11.304  -0.940   0.368  0.00  0.00    +0.017 A 
ATOM     15  C   UNL     1       9.938  -0.858   0.254  0.00  0.00    +0.041 A 
ATOM     16  S   UNL     1       8.594  -2.013   0.384  0.00  0.00    -0.048 S 
ENDROOT
BRANCH   1  20
ATOM     17  C   UNL     1      -0.006   1.261  -0.899  0.00  0.00    +0.000 A 
ATOM     18  C   UNL     1       0.929   1.823  -0.048  0.00  0.00    +0.001 A 
ATOM     19  C   UNL     1       2.134   1.189   0.173  0.00  0.00    +0.010 A 
ATOM     20  C   UNL     1       2.409  -0.024  -0.465  0.00  0.00    +0.000 A 
ATOM     21  C   UNL     1       1.459  -0.585  -1.323  0.00  0.00    +0.010 A 
ATOM     22  C   UNL     1       0.259   0.060  -1.534  0.00  0.00    +0.001 A 
ENDBRANCH   1  20
BRANCH   2  23
ATOM     23  C   UNL     1       2.810  -3.073   0.166  0.00  0.00    +0.120 C 
ATOM     24  N   UNL     1       3.123  -4.322   0.332  0.00  0.00    -0.290 NA
BRANCH  24  25
ATOM     25  C   UNL     1       2.067  -5.332   0.453  0.00  0.00    +0.146 C 
BRANCH  25  26
ATOM     26  C   UNL     1       2.136  -6.287  -0.740  0.00  0.00    +0.056 C 
BRANCH  26  27
ATOM     27  C   UNL     1       1.051  -7.325  -0.616  0.00  0.00    -0.040 C 
ATOM     28  C   UNL     1      -0.177  -7.290  -1.183  0.00  0.00    -0.001 A 
ATOM     29  C   UNL     1      -0.844  -6.311  -2.050  0.00  0.00    +0.010 A 
ATOM     30  C   UNL     1      -2.107  -6.558  -2.467  0.00  0.00    +0.001 A 
ATOM     31  C   UNL     1      -2.793  -7.721  -2.092  0.00  0.00    +0.002 A 
ATOM     32  C   UNL     1      -2.246  -8.666  -1.297  0.00  0.00    +0.026 A 
ATOM     33  C   UNL     1      -0.923  -8.510  -0.801  0.00  0.00    +0.043 A 
ATOM     34  N   UNL     1      -0.185  -9.270  -0.029  0.00  0.00    -0.380 N 
ATOM     35  C   UNL     1       1.116  -8.620   0.162  0.00  0.00    +0.144 C 
ATOM     36  H   UNL     1      -0.453 -10.122   0.350  0.00  0.00    +0.160 HD
ENDBRANCH  26  27
ENDBRANCH  25  26
ENDBRANCH  24  25
ENDBRANCH   2  23
TORSDOF 5
