REMARK  Name = ZINC09847274
REMARK  11 active torsions:
REMARK  status: ('A' for Active; 'I' for Inactive)
REMARK    1  A    between atoms: C_1  and  C_2
REMARK    2  A    between atoms: C_2  and  C_4
REMARK    3  A    between atoms: C_2  and  N_66
REMARK    4  A    between atoms: C_7  and  S_16
REMARK    5  A    between atoms: N_8  and  C_9
REMARK    6  A    between atoms: S_16  and  C_17
REMARK    7  A    between atoms: C_17  and  C_18
REMARK    8  A    between atoms: N_20  and  C_21
REMARK    9  A    between atoms: N_20  and  C_27
REMARK   10  A    between atoms: C_33  and  N_66
REMARK   11  A    between atoms: C_34  and  N_66
REMARK                            x       y       z     vdW  Elec       q    Type
REMARK                         _______ _______ _______ _____ _____    ______ ____
ROOT
ATOM      1  C   UNL     1       1.774   2.175  -0.194  0.00  0.00    +0.125 A 
ATOM      2  N   UNL     1       0.751   2.975  -0.082  0.00  0.00    -0.135 NA
ATOM      3  N   UNL     1      -0.341   2.297  -0.069  0.00  0.00    -0.122 NA
ATOM      4  C   UNL     1      -0.073   1.016  -0.172  0.00  0.00    +0.197 A 
ATOM      5  N   UNL     1       1.287   0.897  -0.255  0.00  0.00    -0.275 N 
ENDROOT
BRANCH   5   6
ATOM      6  C   UNL     1       2.029  -0.288  -0.378  0.00  0.00    +0.050 A 
ATOM      7  C   UNL     1       2.890  -0.677   0.638  0.00  0.00    +0.029 A 
ATOM      8  C   UNL     1       3.616  -1.846   0.517  0.00  0.00    +0.040 A 
ATOM      9  C   UNL     1       3.492  -2.624  -0.621  0.00  0.00    +0.124 A 
ATOM     10  C   UNL     1       2.637  -2.235  -1.638  0.00  0.00    +0.040 A 
ATOM     11  C   UNL     1       1.906  -1.070  -1.518  0.00  0.00    +0.029 A 
ATOM     12  F   UNL     1       4.207  -3.765  -0.740  0.00  0.00    -0.205 F 
ENDBRANCH   5   6
BRANCH   1  14
ATOM     13  C   UNL     1       3.692   2.983   1.156  0.00  0.00    -0.005 C 
ATOM     14  C   UNL     1       3.224   2.582  -0.245  0.00  0.00    -0.003 C 
BRANCH  14  17
ATOM     15  C   UNL     1       2.702   4.914  -0.633  0.00  0.00    -0.096 C 
ATOM     16  C   UNL     1       4.801   3.997  -1.419  0.00  0.00    -0.096 C 
ATOM     17  N   UNL     1       3.369   3.715  -1.183  0.00  0.00    +0.382 N 
ATOM     18  H   UNL     1       2.926   3.467  -2.076  0.00  0.00    -0.082 HD
ENDBRANCH  14  17
ENDBRANCH   1  14
BRANCH   4  19
ATOM     19  S   UNL     1      -1.244  -0.301  -0.199  0.00  0.00    -0.076 S 
BRANCH  19  20
ATOM     20  C   UNL     1      -2.781   0.643  -0.049  0.00  0.00    +0.173 C 
BRANCH  20  21
ATOM     21  C   UNL     1      -3.954  -0.304  -0.050  0.00  0.00    +0.230 C 
ATOM     22  O   UNL     1      -3.776  -1.489  -0.234  0.00  0.00    -0.274 OA
ATOM     23  N   UNL     1      -5.200   0.167   0.154  0.00  0.00    -0.268 N 
BRANCH  23  24
ATOM     24  C   UNL     1      -6.271  -0.723   0.284  0.00  0.00    +0.037 A 
ATOM     25  C   UNL     1      -7.574  -0.243   0.333  0.00  0.00    +0.023 A 
ATOM     26  C   UNL     1      -8.629  -1.124   0.458  0.00  0.00    +0.002 A 
ATOM     27  C   UNL     1      -8.390  -2.484   0.544  0.00  0.00    +0.000 A 
ATOM     28  C   UNL     1      -7.095  -2.965   0.500  0.00  0.00    +0.002 A 
ATOM     29  C   UNL     1      -6.035  -2.089   0.371  0.00  0.00    +0.023 A 
ENDBRANCH  23  24
BRANCH  23  30
ATOM     30  C   UNL     1      -5.433   1.611   0.238  0.00  0.00    +0.082 C 
ATOM     31  C   UNL     1      -6.167   1.934   1.542  0.00  0.00    +0.023 C 
ATOM     32  C   UNL     1      -6.410   3.442   1.630  0.00  0.00    +0.002 C 
ATOM     33  C   UNL     1      -7.261   3.892   0.441  0.00  0.00    +0.000 C 
ATOM     34  C   UNL     1      -6.527   3.569  -0.862  0.00  0.00    +0.002 C 
ATOM     35  C   UNL     1      -6.284   2.061  -0.951  0.00  0.00    +0.023 C 
ENDBRANCH  23  30
ENDBRANCH  20  21
ENDBRANCH  19  20
ENDBRANCH   4  19
TORSDOF 8
