REMARK  Name = ZINC34026933
REMARK  16 active torsions:
REMARK  status: ('A' for Active; 'I' for Inactive)
REMARK    1  A    between atoms: C_1  and  C_2
REMARK    2  A    between atoms: C_2  and  C_4
REMARK    3  A    between atoms: C_2  and  N_13
REMARK    4  A    between atoms: C_4  and  C_5
REMARK    5  A    between atoms: C_8  and  O_11
REMARK    6  A    between atoms: O_11  and  C_12
REMARK    7  A    between atoms: N_13  and  C_14
REMARK    8  A    between atoms: N_13  and  C_21
REMARK    9  A    between atoms: C_14  and  C_15
REMARK   10  A    between atoms: C_21  and  C_22
REMARK   11  A    between atoms: C_22  and  C_24
REMARK   12  A    between atoms: C_22  and  O_41
REMARK   13  A    between atoms: C_27  and  O_33
REMARK   14  A    between atoms: C_28  and  N_30
REMARK   15  A    between atoms: O_33  and  C_34
REMARK   16  A    between atoms: C_34  and  C_35
REMARK                            x       y       z     vdW  Elec       q    Type
REMARK                         _______ _______ _______ _____ _____    ______ ____
ROOT
ATOM      1  C   UNL     1       2.159   1.278   1.460  0.00  0.00    -0.041 C 
ENDROOT
BRANCH   1   2
ATOM      2  N   UNL     1       1.588   1.807   2.706  0.00  0.00    +0.386 N 
ATOM      3  H   UNL     1       1.522   2.900   2.610  0.00  0.00    -0.081 HD
BRANCH   2   5
ATOM      4  C   UNL     1       3.671   2.437   3.829  0.00  0.00    -0.013 C 
ATOM      5  C   UNL     1       2.457   1.506   3.852  0.00  0.00    -0.067 C 
BRANCH   5   6
ATOM      6  C   UNL     1       2.927   0.052   3.768  0.00  0.00    +0.019 C 
BRANCH   6   7
ATOM      7  C   UNL     1       1.758  -0.868   4.011  0.00  0.00    -0.049 A 
ATOM      8  C   UNL     1       1.270  -1.040   5.293  0.00  0.00    +0.007 A 
ATOM      9  C   UNL     1       0.196  -1.878   5.518  0.00  0.00    +0.046 A 
ATOM     10  C   UNL     1      -0.386  -2.558   4.458  0.00  0.00    +0.120 A 
ATOM     11  C   UNL     1       0.109  -2.388   3.173  0.00  0.00    +0.046 A 
ATOM     12  C   UNL     1       1.180  -1.544   2.953  0.00  0.00    +0.007 A 
BRANCH  10  13
ATOM     13  O   UNL     1      -1.440  -3.387   4.677  0.00  0.00    -0.495 OA
ATOM     14  C   UNL     1      -1.897  -3.513   6.026  0.00  0.00    +0.277 C 
ENDBRANCH  10  13
ENDBRANCH   6   7
ENDBRANCH   5   6
ENDBRANCH   2   5
BRANCH   2  15
ATOM     15  C   UNL     1       0.231   1.289   2.924  0.00  0.00    -0.042 C 
BRANCH  15  16
ATOM     16  C   UNL     1      -0.474   2.143   3.946  0.00  0.00    -0.064 A 
ATOM     17  C   UNL     1      -0.332   1.868   5.293  0.00  0.00    +0.002 A 
ATOM     18  C   UNL     1      -0.974   2.654   6.231  0.00  0.00    +0.000 A 
ATOM     19  C   UNL     1      -1.767   3.709   5.822  0.00  0.00    +0.000 A 
ATOM     20  C   UNL     1      -1.914   3.981   4.474  0.00  0.00    +0.000 A 
ATOM     21  C   UNL     1      -1.268   3.198   3.537  0.00  0.00    +0.002 A 
ENDBRANCH  15  16
ENDBRANCH   2  15
ENDBRANCH   1   2
BRANCH   1  22
ATOM     22  C   UNL     1       1.581   2.045   0.268  0.00  0.00    +0.128 C 
BRANCH  22  23
ATOM     23  C   UNL     1       2.287   1.620  -0.993  0.00  0.00    -0.019 A 
ATOM     24  C   UNL     1       1.863   0.493  -1.675  0.00  0.00    +0.010 A 
ATOM     25  C   UNL     1       2.505   0.105  -2.835  0.00  0.00    +0.048 A 
ATOM     26  C   UNL     1       3.582   0.839  -3.309  0.00  0.00    +0.151 A 
ATOM     27  C   UNL     1       4.009   1.965  -2.621  0.00  0.00    +0.168 A 
ATOM     28  C   UNL     1       3.360   2.353  -1.464  0.00  0.00    +0.042 A 
BRANCH  27  29
ATOM     29  N   UNL     1       5.157   2.750  -3.124  0.00  0.00    +0.060 N 
ATOM     30  O   UNL     1       5.531   3.739  -2.520  0.00  0.00    -0.126 OA
ATOM     31  O   UNL     1       5.729   2.408  -4.144  0.00  0.00    -0.126 OA
ENDBRANCH  27  29
BRANCH  26  32
ATOM     32  O   UNL     1       4.219   0.455  -4.447  0.00  0.00    -0.485 OA
BRANCH  32  33
ATOM     33  C   UNL     1       3.726  -0.714  -5.104  0.00  0.00    +0.264 C 
BRANCH  33  34
ATOM     34  C   UNL     1       4.549  -0.983  -6.337  0.00  0.00    -0.010 A 
ATOM     35  C   UNL     1       4.178  -0.434  -7.549  0.00  0.00    +0.007 A 
ATOM     36  C   UNL     1       4.937  -0.676  -8.679  0.00  0.00    +0.000 A 
ATOM     37  C   UNL     1       6.060  -1.477  -8.599  0.00  0.00    +0.000 A 
ATOM     38  C   UNL     1       6.428  -2.032  -7.387  0.00  0.00    +0.000 A 
ATOM     39  C   UNL     1       5.673  -1.784  -6.256  0.00  0.00    +0.007 A 
ENDBRANCH  33  34
ENDBRANCH  32  33
ENDBRANCH  26  32
ENDBRANCH  22  23
BRANCH  22  40
ATOM     40  O   UNL     1       0.185   1.762   0.152  0.00  0.00    -0.389 OA
ATOM     41  H   UNL     1      -0.405   2.226  -0.652  0.00  0.00    +0.210 HD
ENDBRANCH  22  40
ENDBRANCH   1  22
TORSDOF 14
