REMARK  Name = ZINC08896710
REMARK  8 active torsions:
REMARK  status: ('A' for Active; 'I' for Inactive)
REMARK    1  A    between atoms: C_1  and  C_2
REMARK    2  A    between atoms: C_9  and  N_14
REMARK    3  A    between atoms: C_10  and  C_11
REMARK    4  A    between atoms: N_14  and  C_15
REMARK    5  A    between atoms: C_15  and  N_17
REMARK    6  A    between atoms: C_18  and  C_20
REMARK    7  A    between atoms: C_23  and  N_29
REMARK    8  A    between atoms: C_24  and  N_26
REMARK                            x       y       z     vdW  Elec       q    Type
REMARK                         _______ _______ _______ _____ _____    ______ ____
ROOT
ATOM      1  C   UNL     1       1.166  -0.666   0.063  0.00  0.00    +0.141 C 
ATOM      2  S   UNL     1       2.629   0.215  -0.050  0.00  0.00    -0.018 S 
ENDROOT
BRANCH   1   3
ATOM      3  N   UNL     1       1.188  -2.014   0.057  0.00  0.00    -0.264 N 
ATOM      4  C   UNL     1       2.363  -2.668  -0.037  0.00  0.00    +0.250 C 
ATOM      5  O   UNL     1       3.402  -2.042  -0.117  0.00  0.00    -0.270 OA
ATOM      6  H   UNL     1       0.359  -2.513   0.121  0.00  0.00    +0.157 HD
BRANCH   4   7
ATOM      7  C   UNL     1       2.388  -4.142  -0.044  0.00  0.00    +0.039 A 
ATOM      8  C   UNL     1       1.194  -4.863   0.048  0.00  0.00    +0.015 A 
ATOM      9  C   UNL     1       1.217  -6.229   0.042  0.00  0.00    +0.026 A 
ATOM     10  C   UNL     1       2.429  -6.908  -0.055  0.00  0.00    +0.060 A 
ATOM     11  C   UNL     1       3.623  -6.198  -0.147  0.00  0.00    +0.148 A 
ATOM     12  C   UNL     1       3.606  -4.822  -0.147  0.00  0.00    +0.047 A 
BRANCH  10  13
ATOM     13  N   UNL     1       2.446  -8.298  -0.061  0.00  0.00    -0.328 N 
ATOM     14  C   UNL     1       1.717  -8.845   1.112  0.00  0.00    +0.105 C 
ATOM     15  C   UNL     1       1.385 -10.295   0.679  0.00  0.00    +0.020 C 
ATOM     16  C   UNL     1       1.063 -10.142  -0.825  0.00  0.00    +0.020 C 
ATOM     17  C   UNL     1       1.751  -8.832  -1.252  0.00  0.00    +0.105 C 
ENDBRANCH  10  13
BRANCH  11  18
ATOM     18  N   UNL     1       4.910  -6.923  -0.250  0.00  0.00    +0.058 N 
ATOM     19  O   UNL     1       5.959  -6.305  -0.237  0.00  0.00    -0.126 OA
ATOM     20  O   UNL     1       4.918  -8.137  -0.348  0.00  0.00    -0.126 OA
ENDBRANCH  11  18
ENDBRANCH   4   7
ENDBRANCH   1   3
BRANCH   1  21
ATOM     21  N   UNL     1      -0.009  -0.013   0.157  0.00  0.00    -0.291 N 
ATOM     22  H   UNL     1      -0.838  -0.512   0.221  0.00  0.00    +0.154 HD
BRANCH  21  30
ATOM     23  C   UNL     1       0.298   7.802   0.251  0.00  0.00    +0.008 C 
ATOM     24  C   UNL     1      -0.121   6.365   0.566  0.00  0.00    -0.009 C 
ATOM     25  C   UNL     1      -1.422   6.036  -0.172  0.00  0.00    +0.008 C 
ATOM     26  C   UNL     1      -1.979   4.701   0.325  0.00  0.00    +0.037 C 
ATOM     27  C   UNL     1      -0.881   3.648   0.236  0.00  0.00    -0.023 A 
ATOM     28  C   UNL     1       0.417   4.004   0.135  0.00  0.00    -0.004 A 
ATOM     29  S   UNL     1       1.302   2.473   0.061  0.00  0.00    -0.077 S 
ATOM     30  C   UNL     1      -0.033   1.373   0.163  0.00  0.00    +0.084 A 
ATOM     31  C   UNL     1      -1.132   2.216   0.246  0.00  0.00    +0.068 A 
ATOM     32  C   UNL     1       0.972   5.395   0.097  0.00  0.00    +0.046 C 
BRANCH  31  33
ATOM     33  C   UNL     1      -2.494   1.683   0.344  0.00  0.00    +0.244 C 
ATOM     34  O   UNL     1      -2.982   1.459   1.436  0.00  0.00    -0.270 OA
ATOM     35  N   UNL     1      -3.205   1.442  -0.775  0.00  0.00    -0.325 N 
ATOM     36  H   UNL     1      -2.816   1.620  -1.645  0.00  0.00    +0.145 HD
ATOM     37  H   UNL     1      -4.106   1.089  -0.710  0.00  0.00    +0.145 HD
ENDBRANCH  31  33
ENDBRANCH  21  30
ENDBRANCH   1  21
TORSDOF 7
