REMARK  Name = ZINC01925125
REMARK  7 active torsions:
REMARK  status: ('A' for Active; 'I' for Inactive)
REMARK    1  A    between atoms: C_1  and  C_2
REMARK    2  A    between atoms: C_5  and  C_8
REMARK    3  A    between atoms: C_9  and  O_20
REMARK    4  A    between atoms: O_20  and  C_21
REMARK    5  A    between atoms: C_21  and  C_23
REMARK    6  A    between atoms: C_21  and  C_24
REMARK    7  A    between atoms: N_26  and  C_27
REMARK                            x       y       z     vdW  Elec       q    Type
REMARK                         _______ _______ _______ _____ _____    ______ ____
ROOT
ATOM      1  C   UNL     1       3.724  -7.320   0.446  0.00  0.00    +0.181 A 
ATOM      2  C   UNL     1       3.814  -6.265  -0.413  0.00  0.00    +0.212 A 
ATOM      3  C   UNL     1       3.994  -6.509  -1.799  0.00  0.00    +0.235 A 
ATOM      4  O   UNL     1       4.084  -5.591  -2.598  0.00  0.00    -0.283 OA
ATOM      5  C   UNL     1       4.069  -7.916  -2.236  0.00  0.00    +0.069 A 
ATOM      6  C   UNL     1       4.246  -8.249  -3.578  0.00  0.00    +0.035 A 
ATOM      7  C   UNL     1       4.312  -9.576  -3.947  0.00  0.00    +0.042 A 
ATOM      8  C   UNL     1       4.202 -10.575  -2.988  0.00  0.00    +0.023 A 
ATOM      9  C   UNL     1       4.028 -10.257  -1.658  0.00  0.00    +0.048 A 
ATOM     10  C   UNL     1       3.959  -8.925  -1.266  0.00  0.00    +0.140 A 
ATOM     11  O   UNL     1       3.789  -8.596   0.031  0.00  0.00    -0.451 OA
ATOM     12 CL   UNL     1       4.531 -10.000  -5.616  0.00  0.00    -0.084 Cl
ENDROOT
BRANCH   1  17
ATOM     13  C   UNL     1       3.015  -6.269   6.057  0.00  0.00    +0.044 C 
ATOM     14  C   UNL     1       3.201  -6.544   4.587  0.00  0.00    -0.050 A 
ATOM     15  C   UNL     1       2.390  -5.912   3.660  0.00  0.00    +0.004 A 
ATOM     16  C   UNL     1       2.554  -6.160   2.314  0.00  0.00    +0.012 A 
ATOM     17  C   UNL     1       3.542  -7.050   1.886  0.00  0.00    +0.021 A 
ATOM     18  C   UNL     1       4.354  -7.687   2.827  0.00  0.00    +0.012 A 
ATOM     19  C   UNL     1       4.182  -7.426   4.170  0.00  0.00    +0.004 A 
ENDBRANCH   1  17
BRANCH   2  20
ATOM     20  O   UNL     1       3.737  -4.990   0.056  0.00  0.00    -0.473 OA
BRANCH  20  21
ATOM     21  C   UNL     1       4.951  -4.394   0.515  0.00  0.00    +0.256 C 
ATOM     22  C   UNL     1       5.677  -3.743  -0.664  0.00  0.00    +0.062 C 
BRANCH  21  23
ATOM     23  C   UNL     1       4.636  -3.346   1.551  0.00  0.00    +0.258 C 
ATOM     24  O   UNL     1       3.482  -3.067   1.800  0.00  0.00    -0.271 OA
ATOM     25  N   UNL     1       5.636  -2.718   2.201  0.00  0.00    -0.282 N 
ATOM     26  H   UNL     1       6.558  -2.890   1.954  0.00  0.00    +0.155 HD
BRANCH  25  27
ATOM     27  C   UNL     1       5.344  -1.819   3.233  0.00  0.00    +0.034 A 
ATOM     28  C   UNL     1       4.233  -2.024   4.041  0.00  0.00    +0.024 A 
ATOM     29  C   UNL     1       3.948  -1.136   5.059  0.00  0.00    +0.017 A 
ATOM     30  C   UNL     1       4.767  -0.041   5.274  0.00  0.00    +0.018 A 
ATOM     31  C   UNL     1       5.874   0.166   4.470  0.00  0.00    +0.017 A 
ATOM     32  C   UNL     1       6.164  -0.720   3.451  0.00  0.00    +0.024 A 
ATOM     33 BR   UNL     1       4.372   1.174   6.668  0.00  0.00    -0.050 Br
ENDBRANCH  25  27
ENDBRANCH  21  23
ENDBRANCH  20  21
ENDBRANCH   2  20
TORSDOF 5
