REMARK  Name = ZINC12653082
REMARK  13 active torsions:
REMARK  status: ('A' for Active; 'I' for Inactive)
REMARK    1  A    between atoms: C_1  and  C_2
REMARK    2  A    between atoms: C_3  and  C_33
REMARK    3  A    between atoms: C_8  and  C_32
REMARK    4  A    between atoms: C_21  and  C_31
REMARK    5  A    between atoms: C_24  and  O_27
REMARK    6  A    between atoms: O_27  and  C_28
REMARK    7  A    between atoms: C_28  and  C_30
REMARK    8  A    between atoms: C_33  and  C_34
REMARK    9  A    between atoms: C_34  and  C_35
REMARK   10  A    between atoms: C_35  and  C_37
REMARK   11  A    between atoms: C_35  and  C_38
REMARK   12  A    between atoms: C_38  and  N_39
REMARK   13  A    between atoms: C_40  and  C_42
REMARK                            x       y       z     vdW  Elec       q    Type
REMARK                         _______ _______ _______ _____ _____    ______ ____
ROOT
ATOM      1  C   UNL     1       1.644   3.477   4.692  0.00  0.00    +0.046 C 
ATOM      2  C   UNL     1       1.270   2.200   5.400  0.00  0.00    -0.022 A 
ATOM      3  C   UNL     1       0.387   1.271   4.852  0.00  0.00    +0.067 A 
ATOM      4  N   UNL     1       0.075   0.166   5.497  0.00  0.00    -0.154 NA
ATOM      5  N   UNL     1       0.546  -0.159   6.654  0.00  0.00    -0.154 NA
ATOM      6  C   UNL     1       1.391   0.664   7.253  0.00  0.00    +0.068 A 
ATOM      7  C   UNL     1       1.777   1.861   6.646  0.00  0.00    -0.014 A 
ATOM      8  C   UNL     1       2.737   2.581   7.536  0.00  0.00    -0.002 C 
ATOM      9  C   UNL     1       2.626   4.078   7.449  0.00  0.00    +0.012 C 
ATOM     10  C   UNL     1       1.454   4.630   8.255  0.00  0.00    +0.005 C 
ATOM     11  C   UNL     1       1.603   4.167   9.706  0.00  0.00    +0.003 C 
ATOM     12  C   UNL     1       1.476   2.651   9.752  0.00  0.00    +0.001 C 
ATOM     13  C   UNL     1       2.557   1.973   8.924  0.00  0.00    +0.009 C 
ATOM     14  C   UNL     1       2.069   0.536   8.588  0.00  0.00    +0.062 C 
ATOM     15  C   UNL     1       0.097   2.258   9.210  0.00  0.00    +0.031 C 
ATOM     16  C   UNL     1      -0.963   2.982   9.988  0.00  0.00    -0.027 C 
ATOM     17  C   UNL     1      -0.756   4.118  10.587  0.00  0.00    -0.064 C 
ATOM     18  C   UNL     1       0.563   4.836  10.585  0.00  0.00    -0.008 C 
ATOM     19  C   UNL     1       0.350   6.286  10.143  0.00  0.00    +0.015 C 
ATOM     20  C   UNL     1      -0.714   6.936  11.029  0.00  0.00    +0.046 C 
ATOM     21  C   UNL     1      -2.049   6.211  10.848  0.00  0.00    +0.180 C 
ATOM     22  C   UNL     1      -1.913   4.764  11.330  0.00  0.00    +0.075 C 
ATOM     23  C   UNL     1       1.095   4.862  12.019  0.00  0.00    +0.016 C 
ATOM     24  C   UNL     1       4.145   2.214   7.064  0.00  0.00    +0.016 C 
ENDROOT
BRANCH  21  25
ATOM     25  O   UNL     1      -3.075   6.885  11.624  0.00  0.00    -0.461 OA
BRANCH  25  26
ATOM     26  C   UNL     1      -4.331   6.826  11.155  0.00  0.00    +0.304 C 
ATOM     27  O   UNL     1      -4.566   6.230  10.130  0.00  0.00    -0.251 OA
ATOM     28  C   UNL     1      -5.449   7.502  11.906  0.00  0.00    +0.136 C 
ENDBRANCH  25  26
ENDBRANCH  21  25
BRANCH   3  29
ATOM     29  C   UNL     1      -0.226   1.538   3.502  0.00  0.00    +0.058 C 
BRANCH  29  30
ATOM     30  C   UNL     1       0.673   0.953   2.410  0.00  0.00    +0.011 C 
BRANCH  30  31
ATOM     31  C   UNL     1       0.051   1.224   1.038  0.00  0.00    +0.003 C 
ATOM     32  C   UNL     1      -1.274   0.468   0.921  0.00  0.00    +0.009 C 
BRANCH  31  33
ATOM     33  C   UNL     1       1.008   0.750  -0.058  0.00  0.00    +0.107 C 
BRANCH  33  34
ATOM     34  N   UNL     1       0.467   1.117  -1.369  0.00  0.00    -0.315 N 
ATOM     35  C   UNL     1       1.145   0.799  -2.490  0.00  0.00    +0.210 C 
ATOM     36  O   UNL     1       2.202   0.209  -2.413  0.00  0.00    -0.276 OA
ATOM     37  C   UNL     1       0.589   1.176  -3.839  0.00  0.00    +0.109 C 
ATOM     38  H   UNL     1      -0.378   1.589  -1.431  0.00  0.00    +0.149 HD
ENDBRANCH  33  34
ENDBRANCH  31  33
ENDBRANCH  30  31
ENDBRANCH  29  30
ENDBRANCH   3  29
TORSDOF 7
