REMARK  Name = ZINC63384682
REMARK  9 active torsions:
REMARK  status: ('A' for Active; 'I' for Inactive)
REMARK    1  A    between atoms: C_1  and  C_2
REMARK    2  A    between atoms: C_2  and  C_3
REMARK    3  A    between atoms: C_2  and  C_4
REMARK    4  A    between atoms: C_4  and  C_5
REMARK    5  A    between atoms: C_5  and  C_6
REMARK    6  A    between atoms: C_6  and  N_7
REMARK    7  A    between atoms: C_8  and  O_33
REMARK    8  A    between atoms: C_10  and  C_17
REMARK    9  A    between atoms: N_31  and  C_32
REMARK                            x       y       z     vdW  Elec       q    Type
REMARK                         _______ _______ _______ _____ _____    ______ ____
ROOT
ATOM      1  N   UNL     1      -2.846  -3.991  -0.408  0.00  0.00    -0.259 N 
ATOM      2  C   UNL     1      -2.805  -4.521  -1.773  0.00  0.00    +0.219 C 
ATOM      3  C   UNL     1      -1.958  -5.795  -1.801  0.00  0.00    +0.142 C 
ATOM      4  C   UNL     1      -2.366  -6.687  -0.656  0.00  0.00    +0.229 C 
ATOM      5  O   UNL     1      -2.341  -7.892  -0.787  0.00  0.00    -0.275 OA
ATOM      6  N   UNL     1      -2.757  -6.145   0.512  0.00  0.00    -0.240 N 
ATOM      7  C   UNL     1      -2.871  -4.814   0.652  0.00  0.00    +0.310 C 
ATOM      8  O   UNL     1      -3.005  -4.345   1.765  0.00  0.00    -0.252 OA
ATOM      9  H   UNL     1      -2.957  -6.724   1.264  0.00  0.00    +0.159 HD
ENDROOT
BRANCH   3  10
ATOM     10  C   UNL     1      -0.478  -5.429  -1.662  0.00  0.00    +0.099 C 
ATOM     11  C   UNL     1      -0.225  -4.818  -0.282  0.00  0.00    +0.124 C 
ATOM     12  C   UNL     1       1.218  -4.329  -0.291  0.00  0.00    -0.036 C 
ATOM     13  C   UNL     1       1.809  -4.884   0.758  0.00  0.00    -0.001 A 
ATOM     14  C   UNL     1       3.160  -4.729   1.320  0.00  0.00    +0.010 A 
ATOM     15  C   UNL     1       3.443  -5.477   2.419  0.00  0.00    +0.001 A 
ATOM     16  C   UNL     1       2.527  -6.355   3.008  0.00  0.00    +0.002 A 
ATOM     17  C   UNL     1       1.262  -6.557   2.561  0.00  0.00    +0.026 A 
ATOM     18  C   UNL     1       0.846  -5.821   1.414  0.00  0.00    +0.043 A 
ATOM     19  N   UNL     1      -0.319  -5.803   0.795  0.00  0.00    -0.376 N 
ATOM     20  C   UNL     1       1.754  -3.463  -1.405  0.00  0.00    +0.049 C 
ATOM     21  C   UNL     1       1.318  -4.135  -2.720  0.00  0.00    +0.089 C 
ATOM     22  N   UNL     1      -0.117  -4.432  -2.683  0.00  0.00    -0.299 NA
ATOM     23  C   UNL     1      -0.605  -4.836  -4.009  0.00  0.00    +0.105 C 
ATOM     24  H   UNL     1      -1.097  -6.343   1.004  0.00  0.00    +0.160 HD
ENDBRANCH   3  10
BRANCH   2  25
ATOM     25  O   UNL     1      -2.228  -3.547  -2.645  0.00  0.00    -0.373 OA
ATOM     26  H   UNL     1      -2.715  -2.712  -2.678  0.00  0.00    +0.212 HD
ENDBRANCH   2  25
BRANCH   1  27
ATOM     27  C   UNL     1      -2.853  -2.541  -0.197  0.00  0.00    +0.112 C 
BRANCH  27  28
ATOM     28  C   UNL     1      -1.416  -2.016  -0.215  0.00  0.00    +0.019 C 
BRANCH  28  29
ATOM     29  C   UNL     1      -1.430  -0.488  -0.132  0.00  0.00    +0.004 C 
BRANCH  29  31
ATOM     30  C   UNL     1      -0.009   1.566  -0.193  0.00  0.00    +0.007 C 
ATOM     31  C   UNL     1       0.007   0.037  -0.150  0.00  0.00    -0.017 C 
ATOM     32  C   UNL     1       0.736  -0.430   1.112  0.00  0.00    +0.007 C 
ENDBRANCH  29  31
ENDBRANCH  28  29
ENDBRANCH  27  28
ENDBRANCH   1  27
TORSDOF 6
