REMARK  Name = ZINC49776898
REMARK  5 active torsions:
REMARK  status: ('A' for Active; 'I' for Inactive)
REMARK    1  A    between atoms: C_1  and  C_2
REMARK    2  A    between atoms: C_5  and  N_9
REMARK    3  A    between atoms: N_9  and  C_10
REMARK    4  A    between atoms: N_9  and  C_11
REMARK    5  A    between atoms: C_17  and  C_19
REMARK                            x       y       z     vdW  Elec       q    Type
REMARK                         _______ _______ _______ _____ _____    ______ ____
ROOT
ATOM      1  C   UNL     1      -2.231   5.136  -1.736  0.00  0.00    +0.085 C 
ATOM      2  C   UNL     1      -2.119   3.724  -2.251  0.00  0.00    +0.102 C 
ATOM      3  N   UNL     1      -1.027   3.230  -2.743  0.00  0.00    -0.245 NA
ATOM      4  C   UNL     1      -1.333   1.839  -3.125  0.00  0.00    +0.238 C 
ATOM      5  C   UNL     1      -2.794   1.693  -2.742  0.00  0.00    +0.111 C 
ATOM      6  N   UNL     1      -3.134   2.854  -2.240  0.00  0.00    -0.333 N 
ATOM      7  N   UNL     1      -3.579   0.593  -2.884  0.00  0.00    -0.345 N 
ATOM      8  H   UNL     1      -3.188  -0.248  -3.168  0.00  0.00    +0.143 HD
ATOM      9  H   UNL     1      -4.530   0.648  -2.700  0.00  0.00    +0.143 HD
ATOM     10  H   UNL     1      -4.020   3.060  -1.902  0.00  0.00    +0.168 HD
ENDROOT
BRANCH   4  11
ATOM     11  N   UNL     1      -1.150   1.646  -4.570  0.00  0.00    -0.275 NA
ATOM     12  C   UNL     1      -2.010   2.558  -5.337  0.00  0.00    +0.107 C 
BRANCH  11  13
ATOM     13  C   UNL     1      -1.396   0.248  -4.949  0.00  0.00    +0.062 C 
ATOM     14  C   UNL     1      -0.535  -0.674  -4.083  0.00  0.00    +0.019 C 
ATOM     15  C   UNL     1      -0.791  -2.130  -4.478  0.00  0.00    +0.002 C 
ATOM     16  C   UNL     1      -0.430  -2.330  -5.951  0.00  0.00    +0.000 C 
ATOM     17  C   UNL     1      -1.291  -1.408  -6.817  0.00  0.00    +0.005 C 
ATOM     18  C   UNL     1      -1.035   0.048  -6.422  0.00  0.00    +0.003 C 
ATOM     19  C   UNL     1       0.443   0.382  -6.635  0.00  0.00    +0.009 C 
ENDBRANCH  11  13
ENDBRANCH   4  11
TORSDOF 2
