REMARK  Name = ZINC27533928
REMARK  10 active torsions:
REMARK  status: ('A' for Active; 'I' for Inactive)
REMARK    1  A    between atoms: C_1  and  C_2
REMARK    2  A    between atoms: C_2  and  O_3
REMARK    3  A    between atoms: O_3  and  C_4
REMARK    4  A    between atoms: C_6  and  C_20
REMARK    5  A    between atoms: C_9  and  O_10
REMARK    6  A    between atoms: O_10  and  C_11
REMARK    7  A    between atoms: C_11  and  C_12
REMARK    8  A    between atoms: C_30  and  C_32
REMARK    9  A    between atoms: C_32  and  C_33
REMARK   10  A    between atoms: C_32  and  C_34
REMARK                            x       y       z     vdW  Elec       q    Type
REMARK                         _______ _______ _______ _____ _____    ______ ____
ROOT
ATOM      1  C   UNL     1       1.328  -2.069  -1.384  0.00  0.00    +0.164 A 
ATOM      2  C   UNL     1       0.552  -2.790  -0.499  0.00  0.00    +0.057 A 
ATOM      3  C   UNL     1       0.614  -4.191  -0.498  0.00  0.00    -0.019 A 
ATOM      4  C   UNL     1       1.465  -4.851  -1.396  0.00  0.00    +0.032 A 
ATOM      5  C   UNL     1       2.235  -4.122  -2.276  0.00  0.00    +0.087 A 
ATOM      6  C   UNL     1       2.167  -2.733  -2.279  0.00  0.00    +0.181 A 
ATOM      7 CL   UNL     1       3.287  -4.940  -3.388  0.00  0.00    -0.080 Cl
ENDROOT
BRANCH   3   8
ATOM      8  C   UNL     1      -0.206  -4.962   0.439  0.00  0.00    +0.024 C 
ATOM      9  C   UNL     1      -0.757  -6.160   0.046  0.00  0.00    +0.081 C 
ATOM     10  C   UNL     1      -1.443  -7.064   1.013  0.00  0.00    +0.152 C 
ATOM     11  N   UNL     1      -2.119  -6.631   2.044  0.00  0.00    -0.283 NA
ATOM     12  N   UNL     1      -1.291  -8.433   0.705  0.00  0.00    -0.152 N 
ATOM     13  C   UNL     1      -1.010  -8.763  -0.604  0.00  0.00    +0.181 C 
ATOM     14  N   UNL     1      -0.768  -7.947  -1.599  0.00  0.00    -0.152 NA
ATOM     15  C   UNL     1      -0.707  -6.619  -1.364  0.00  0.00    +0.273 C 
ATOM     16  O   UNL     1      -0.608  -5.821  -2.282  0.00  0.00    -0.268 OA
ATOM     17  S   UNL     1      -1.043 -10.535  -0.555  0.00  0.00    -0.038 S 
ATOM     18  C   UNL     1      -1.324 -10.716   1.201  0.00  0.00    +0.102 C 
ATOM     19  N   UNL     1      -1.410  -9.478   1.596  0.00  0.00    -0.169 NA
ATOM     20  H   UNL     1      -2.546  -7.263   2.643  0.00  0.00    +0.188 HD
BRANCH  18  21
ATOM     21  C   UNL     1      -1.434 -11.978   2.017  0.00  0.00    +0.040 C 
ATOM     22  C   UNL     1      -0.034 -12.449   2.419  0.00  0.00    +0.014 C 
ATOM     23  C   UNL     1      -2.260 -11.703   3.275  0.00  0.00    +0.014 C 
ENDBRANCH  18  21
ENDBRANCH   3   8
BRANCH   1  24
ATOM     24  O   UNL     1       1.270  -0.710  -1.388  0.00  0.00    -0.489 OA
BRANCH  24  26
ATOM     25  C   UNL     1       0.459   1.425  -0.599  0.00  0.00    +0.048 C 
ATOM     26  C   UNL     1       0.389  -0.096  -0.445  0.00  0.00    +0.226 C 
ENDBRANCH  24  26
ENDBRANCH   1  24
BRANCH   6  27
ATOM     27  O   UNL     1       2.925  -2.021  -3.152  0.00  0.00    -0.482 OA
BRANCH  27  28
ATOM     28  C   UNL     1       4.230  -1.638  -2.716  0.00  0.00    +0.267 C 
BRANCH  28  29
ATOM     29  C   UNL     1       4.918  -0.861  -3.809  0.00  0.00    +0.025 A 
ATOM     30  C   UNL     1       4.264  -0.622  -5.003  0.00  0.00    +0.010 A 
ATOM     31  C   UNL     1       4.894   0.091  -6.006  0.00  0.00    +0.001 A 
ATOM     32  C   UNL     1       6.178   0.566  -5.816  0.00  0.00    +0.003 A 
ATOM     33  C   UNL     1       6.834   0.328  -4.623  0.00  0.00    +0.039 A 
ATOM     34  C   UNL     1       6.202  -0.381  -3.615  0.00  0.00    +0.130 A 
ATOM     35  F   UNL     1       6.840  -0.610  -2.447  0.00  0.00    -0.205 F 
ENDBRANCH  28  29
ENDBRANCH  27  28
ENDBRANCH   6  27
TORSDOF 7
