REMARK  Name = ZINC12152968
REMARK  12 active torsions:
REMARK  status: ('A' for Active; 'I' for Inactive)
REMARK    1  A    between atoms: C_1  and  C_2
REMARK    2  A    between atoms: C_2  and  C_4
REMARK    3  A    between atoms: C_2  and  N_58
REMARK    4  A    between atoms: C_9  and  N_58
REMARK    5  A    between atoms: C_10  and  C_11
REMARK    6  A    between atoms: C_10  and  N_58
REMARK    7  A    between atoms: C_15  and  N_24
REMARK    8  A    between atoms: C_16  and  C_20
REMARK    9  A    between atoms: C_20  and  O_22
REMARK   10  A    between atoms: O_22  and  C_23
REMARK   11  A    between atoms: C_25  and  C_27
REMARK   12  A    between atoms: C_27  and  C_28
REMARK                            x       y       z     vdW  Elec       q    Type
REMARK                         _______ _______ _______ _____ _____    ______ ____
ROOT
ATOM      1  C   UNL     1       3.209  -5.391   0.461  0.00  0.00    +0.026 A 
ATOM      2  C   UNL     1       3.916  -4.931  -0.640  0.00  0.00    +0.022 A 
ATOM      3  C   UNL     1       3.321  -4.083  -1.544  0.00  0.00    +0.014 A 
ATOM      4  C   UNL     1       1.976  -3.686  -1.331  0.00  0.00    +0.030 A 
ATOM      5  C   UNL     1       1.150  -2.806  -2.143  0.00  0.00    +0.064 A 
ATOM      6  C   UNL     1      -0.142  -2.562  -1.734  0.00  0.00    +0.120 A 
ATOM      7  S   UNL     1      -0.285  -3.509  -0.231  0.00  0.00    -0.060 S 
ATOM      8  C   UNL     1       1.345  -4.209  -0.180  0.00  0.00    +0.111 A 
ATOM      9  N   UNL     1       1.959  -5.020   0.656  0.00  0.00    -0.246 NA
ENDROOT
BRANCH   5  10
ATOM     10  N   UNL     1       1.653  -2.226  -3.303  0.00  0.00    -0.284 N 
ATOM     11  C   UNL     1       1.741  -2.951  -4.435  0.00  0.00    +0.222 C 
ATOM     12  O   UNL     1       1.288  -4.075  -4.472  0.00  0.00    -0.275 OA
ATOM     13  H   UNL     1       1.940  -1.299  -3.296  0.00  0.00    +0.155 HD
BRANCH  11  14
ATOM     14  C   UNL     1       2.403  -2.365  -5.656  0.00  0.00    +0.134 C 
BRANCH  14  15
ATOM     15  C   UNL     1       2.371  -3.371  -6.777  0.00  0.00    -0.003 A 
ATOM     16  C   UNL     1       3.458  -4.196  -6.997  0.00  0.00    +0.007 A 
ATOM     17  C   UNL     1       3.427  -5.124  -8.021  0.00  0.00    +0.000 A 
ATOM     18  C   UNL     1       2.313  -5.219  -8.835  0.00  0.00    +0.003 A 
ATOM     19  C   UNL     1       1.227  -4.391  -8.621  0.00  0.00    +0.038 A 
ATOM     20  C   UNL     1       1.256  -3.466  -7.591  0.00  0.00    +0.127 A 
ATOM     21  F   UNL     1       0.195  -2.655  -7.381  0.00  0.00    -0.205 F 
ENDBRANCH  14  15
ENDBRANCH  11  14
ENDBRANCH   5  10
BRANCH   6  22
ATOM     22  C   UNL     1      -1.122  -1.748  -2.357  0.00  0.00    +0.348 C 
ATOM     23  O   UNL     1      -0.875  -1.201  -3.415  0.00  0.00    -0.244 OA
BRANCH  22  24
ATOM     24  O   UNL     1      -2.328  -1.580  -1.776  0.00  0.00    -0.464 OA
ATOM     25  C   UNL     1      -3.267  -0.747  -2.459  0.00  0.00    +0.280 C 
ENDBRANCH  22  24
ENDBRANCH   6  22
BRANCH   1  26
ATOM     26  C   UNL     1       3.875  -6.320   1.443  0.00  0.00    -0.022 C 
BRANCH  26  28
ATOM     27  C   UNL     1       3.353  -4.914   3.344  0.00  0.00    -0.095 C 
ATOM     28  N   UNL     1       4.442  -5.519   2.549  0.00  0.00    +0.386 N 
ATOM     29  H   UNL     1       5.023  -4.770   2.154  0.00  0.00    -0.081 HD
BRANCH  28  31
ATOM     30  C   UNL     1       6.443  -6.929   2.583  0.00  0.00    -0.008 C 
ATOM     31  C   UNL     1       5.283  -6.374   3.412  0.00  0.00    -0.034 C 
BRANCH  31  32
ATOM     32  C   UNL     1       5.828  -5.541   4.544  0.00  0.00    -0.024 A 
ATOM     33  C   UNL     1       5.997  -5.877   5.846  0.00  0.00    +0.009 A 
ATOM     34  C   UNL     1       6.522  -4.941   6.717  0.00  0.00    +0.008 A 
ATOM     35  C   UNL     1       6.853  -3.715   6.243  0.00  0.00    +0.045 A 
ATOM     36  S   UNL     1       6.427  -3.860   4.516  0.00  0.00    -0.103 S 
ENDBRANCH  31  32
ENDBRANCH  28  31
ENDBRANCH  26  28
ENDBRANCH   1  26
TORSDOF 9
