REMARK  Name = ZINC01936459
REMARK  6 active torsions:
REMARK  status: ('A' for Active; 'I' for Inactive)
REMARK    1  A    between atoms: C_4  and  C_7
REMARK    2  A    between atoms: C_7  and  C_9
REMARK    3  A    between atoms: C_14  and  N_15
REMARK    4  A    between atoms: C_16  and  C_18
REMARK    5  A    between atoms: C_18  and  O_19
REMARK    6  A    between atoms: O_19  and  C_20
REMARK                            x       y       z     vdW  Elec       q    Type
REMARK                         _______ _______ _______ _____ _____    ______ ____
ROOT
ATOM      1  N   UNL     1       7.240   5.497  -0.077  0.00  0.00    -0.282 N 
ATOM      2  C   UNL     1       5.998   6.020  -0.090  0.00  0.00    +0.255 C 
ATOM      3  O   UNL     1       5.846   7.223  -0.074  0.00  0.00    -0.272 OA
ATOM      4  H   UNL     1       7.362   4.538  -0.003  0.00  0.00    +0.155 HD
ENDROOT
BRANCH   1  10
ATOM      5  C   UNL     1       9.590   5.922   0.340  0.00  0.00    +0.045 A 
ATOM      6  C   UNL     1      10.695   6.772   0.240  0.00  0.00    +0.033 A 
ATOM      7  C   UNL     1      10.560   8.008  -0.355  0.00  0.00    +0.042 A 
ATOM      8  C   UNL     1       9.332   8.413  -0.857  0.00  0.00    +0.022 A 
ATOM      9  C   UNL     1       8.233   7.581  -0.771  0.00  0.00    +0.025 A 
ATOM     10  C   UNL     1       8.349   6.335  -0.169  0.00  0.00    +0.044 A 
ATOM     11 CL   UNL     1      11.933   9.063  -0.478  0.00  0.00    -0.084 Cl
BRANCH   5  12
ATOM     12  C   UNL     1       9.727   4.599   0.976  0.00  0.00    +0.195 C 
ATOM     13  O   UNL     1      10.345   3.715   0.413  0.00  0.00    -0.287 OA
BRANCH  12  17
ATOM     14  C   UNL     1       7.967   3.875   4.772  0.00  0.00    +0.000 A 
ATOM     15  C   UNL     1       8.577   2.839   4.087  0.00  0.00    +0.001 A 
ATOM     16  C   UNL     1       9.151   3.067   2.854  0.00  0.00    +0.012 A 
ATOM     17  C   UNL     1       9.115   4.347   2.297  0.00  0.00    +0.022 A 
ATOM     18  C   UNL     1       8.503   5.389   2.996  0.00  0.00    +0.012 A 
ATOM     19  C   UNL     1       7.928   5.146   4.226  0.00  0.00    +0.001 A 
ENDBRANCH  12  17
ENDBRANCH   5  12
ENDBRANCH   1  10
BRANCH   2  20
ATOM     20  C   UNL     1       4.798   5.109  -0.123  0.00  0.00    +0.325 C 
BRANCH  20  21
ATOM     21  O   UNL     1       3.604   5.894  -0.131  0.00  0.00    -0.481 OA
BRANCH  21  22
ATOM     22  C   UNL     1       2.425   5.222  -0.161  0.00  0.00    +0.143 A 
ATOM     23  C   UNL     1       2.424   3.837  -0.182  0.00  0.00    +0.094 A 
ATOM     24  C   UNL     1       1.220   3.150  -0.212  0.00  0.00    +0.143 A 
ATOM     25  C   UNL     1       0.011   3.871  -0.220  0.00  0.00    +0.023 A 
ATOM     26  C   UNL     1       0.030   5.270  -0.199  0.00  0.00    +0.035 A 
ATOM     27  C   UNL     1       1.225   5.932  -0.170  0.00  0.00    +0.083 A 
ATOM     28 CL   UNL     1       1.249   7.668  -0.144  0.00  0.00    -0.080 Cl
ATOM     29  C   UNL     1      -1.255   3.135  -0.250  0.00  0.00    -0.027 A 
ATOM     30  C   UNL     1      -1.213   1.779  -0.276  0.00  0.00    +0.041 A 
ATOM     31  C   UNL     1       0.038   1.121  -0.262  0.00  0.00    +0.341 A 
ATOM     32  O   UNL     1       0.067  -0.096  -0.283  0.00  0.00    -0.245 OA
ATOM     33  O   UNL     1       1.194   1.800  -0.233  0.00  0.00    -0.422 OA
ATOM     34  C   UNL     1      -2.618   1.218  -0.302  0.00  0.00    +0.043 C 
ATOM     35  C   UNL     1      -3.527   2.385   0.140  0.00  0.00    +0.010 C 
ATOM     36  C   UNL     1      -2.687   3.617  -0.262  0.00  0.00    +0.036 C 
ENDBRANCH  21  22
ENDBRANCH  20  21
ENDBRANCH   2  20
TORSDOF 6
