REMARK  Name = ZINC09613120
REMARK  8 active torsions:
REMARK  status: ('A' for Active; 'I' for Inactive)
REMARK    1  A    between atoms: C_1  and  C_2
REMARK    2  A    between atoms: C_2  and  C_4
REMARK    3  A    between atoms: C_2  and  N_71
REMARK    4  A    between atoms: C_7  and  S_16
REMARK    5  A    between atoms: N_8  and  C_9
REMARK    6  A    between atoms: S_16  and  C_17
REMARK    7  A    between atoms: C_17  and  C_18
REMARK    8  A    between atoms: N_20  and  C_21
REMARK                            x       y       z     vdW  Elec       q    Type
REMARK                         _______ _______ _______ _____ _____    ______ ____
ROOT
ATOM      1  C   UNL     1     -10.945  -0.009   2.810  0.00  0.00    +0.125 A 
ATOM      2  N   UNL     1     -10.316  -0.472   1.767  0.00  0.00    -0.135 NA
ATOM      3  N   UNL     1      -9.067  -0.175   1.835  0.00  0.00    -0.122 NA
ATOM      4  C   UNL     1      -8.828   0.500   2.936  0.00  0.00    +0.197 A 
ATOM      5  N   UNL     1     -10.019   0.624   3.596  0.00  0.00    -0.275 N 
ENDROOT
BRANCH   5   6
ATOM      6  C   UNL     1     -10.246   1.267   4.823  0.00  0.00    +0.050 A 
ATOM      7  C   UNL     1     -10.661   0.533   5.926  0.00  0.00    +0.029 A 
ATOM      8  C   UNL     1     -10.878   1.167   7.133  0.00  0.00    +0.040 A 
ATOM      9  C   UNL     1     -10.693   2.535   7.242  0.00  0.00    +0.124 A 
ATOM     10  C   UNL     1     -10.284   3.269   6.141  0.00  0.00    +0.040 A 
ATOM     11  C   UNL     1     -10.061   2.638   4.933  0.00  0.00    +0.029 A 
ATOM     12  F   UNL     1     -10.911   3.154   8.422  0.00  0.00    -0.205 F 
ENDBRANCH   5   6
BRANCH   1  14
ATOM     13  C   UNL     1     -13.209   0.782   2.179  0.00  0.00    -0.005 C 
ATOM     14  C   UNL     1     -12.417  -0.148   3.100  0.00  0.00    -0.002 C 
BRANCH  14  20
ATOM     15  C   UNL     1     -14.259  -1.718   3.168  0.00  0.00    -0.078 C 
ATOM     16  C   UNL     1     -14.689  -3.134   2.777  0.00  0.00    -0.019 C 
ATOM     17  C   UNL     1     -13.850  -4.151   3.556  0.00  0.00    -0.004 C 
ATOM     18  C   UNL     1     -12.367  -3.910   3.262  0.00  0.00    -0.019 C 
ATOM     19  C   UNL     1     -12.004  -2.472   3.639  0.00  0.00    -0.078 C 
ATOM     20  N   UNL     1     -12.829  -1.543   2.837  0.00  0.00    +0.386 N 
ATOM     21  H   UNL     1     -12.689  -1.750   1.841  0.00  0.00    -0.081 HD
ENDBRANCH  14  20
ENDBRANCH   1  14
BRANCH   4  22
ATOM     22  S   UNL     1      -7.267   1.123   3.464  0.00  0.00    -0.076 S 
BRANCH  22  23
ATOM     23  C   UNL     1      -6.224   0.560   2.096  0.00  0.00    +0.173 C 
BRANCH  23  24
ATOM     24  C   UNL     1      -4.801   0.991   2.339  0.00  0.00    +0.224 C 
ATOM     25  O   UNL     1      -4.519   1.617   3.338  0.00  0.00    -0.275 OA
ATOM     26  N   UNL     1      -3.841   0.681   1.445  0.00  0.00    -0.309 N 
ATOM     27  H   UNL     1      -4.066   0.180   0.645  0.00  0.00    +0.149 HD
BRANCH  26  28
ATOM     28  C   UNL     1      -2.457   1.100   1.681  0.00  0.00    +0.035 C 
ATOM     29  C   UNL     1      -1.576   0.625   0.524  0.00  0.00    +0.029 C 
ATOM     30  C   UNL     1      -0.131   1.063   0.771  0.00  0.00    -0.008 C 
ATOM     31  C   UNL     1       0.372   0.450   2.080  0.00  0.00    +0.007 C 
ATOM     32  C   UNL     1      -0.510   0.926   3.236  0.00  0.00    -0.008 C 
ATOM     33  C   UNL     1      -1.955   0.488   2.990  0.00  0.00    +0.029 C 
ATOM     34  C   UNL     1      -0.448   2.452   3.330  0.00  0.00    +0.007 C 
ATOM     35  C   UNL     1      -0.950   3.064   2.021  0.00  0.00    -0.008 C 
ATOM     36  C   UNL     1      -0.069   2.588   0.865  0.00  0.00    +0.007 C 
ATOM     37  C   UNL     1      -2.396   2.626   1.775  0.00  0.00    +0.029 C 
ENDBRANCH  26  28
ENDBRANCH  23  24
ENDBRANCH  22  23
ENDBRANCH   4  22
TORSDOF 7
