REMARK  Name = ZINC20897364
REMARK  7 active torsions:
REMARK  status: ('A' for Active; 'I' for Inactive)
REMARK    1  A    between atoms: C_1  and  O_2
REMARK    2  A    between atoms: O_2  and  C_3
REMARK    3  A    between atoms: C_3  and  C_5
REMARK    4  A    between atoms: C_11  and  C_13
REMARK    5  A    between atoms: C_13  and  O_14
REMARK    6  A    between atoms: O_14  and  C_15
REMARK    7  A    between atoms: C_15  and  C_17
REMARK                            x       y       z     vdW  Elec       q    Type
REMARK                         _______ _______ _______ _____ _____    ______ ____
ROOT
ATOM      1  C   UNL     1       9.780   2.069   0.990  0.00  0.00    +0.101 C 
ATOM      2  C   UNL     1       9.163   3.465   1.100  0.00  0.00    +0.033 C 
ATOM      3  C   UNL     1       8.182   3.678  -0.057  0.00  0.00    +0.108 C 
ATOM      4  N   UNL     1       7.202   2.582  -0.054  0.00  0.00    -0.299 N 
ATOM      5  C   UNL     1       7.692   1.197  -0.060  0.00  0.00    +0.108 C 
ATOM      6  C   UNL     1       8.678   1.012   1.091  0.00  0.00    +0.033 C 
ATOM      7  C   UNL     1       5.880   2.843  -0.040  0.00  0.00    +0.253 C 
ATOM      8  O   UNL     1       5.489   3.991  -0.029  0.00  0.00    -0.272 OA
ENDROOT
BRANCH   1   9
ATOM      9  C   UNL     1      10.772   1.869   2.108  0.00  0.00    +0.310 C 
ATOM     10  O   UNL     1      10.964   2.753   2.909  0.00  0.00    -0.251 OA
BRANCH   9  12
ATOM     11  C   UNL     1      12.379   0.588   3.313  0.00  0.00    +0.280 C 
ATOM     12  O   UNL     1      11.441   0.710   2.212  0.00  0.00    -0.468 OA
ENDBRANCH   9  12
ENDBRANCH   1   9
BRANCH   7  13
ATOM     13  C   UNL     1       4.888   1.709  -0.036  0.00  0.00    +0.328 C 
BRANCH  13  14
ATOM     14  O   UNL     1       3.560   2.237  -0.020  0.00  0.00    -0.451 OA
BRANCH  14  15
ATOM     15  C   UNL     1       2.547   1.347  -0.015  0.00  0.00    +0.346 C 
ATOM     16  O   UNL     1       2.785   0.154  -0.025  0.00  0.00    -0.244 OA
BRANCH  15  17
ATOM     17  C   UNL     1       1.161   1.816   0.001  0.00  0.00    +0.098 A 
ATOM     18  C   UNL     1      -0.013   1.076   0.008  0.00  0.00    +0.039 A 
ATOM     19  C   UNL     1      -1.192   1.776   0.017  0.00  0.00    +0.040 A 
ATOM     20  C   UNL     1      -1.157   3.136   0.030  0.00  0.00    +0.070 A 
ATOM     21  S   UNL     1       0.540   3.489   0.016  0.00  0.00    -0.074 S 
ATOM     22 BR   UNL     1      -2.608   4.349   0.050  0.00  0.00    -0.041 Br
ATOM     23 BR   UNL     1      -2.848   0.861   0.020  0.00  0.00    -0.049 Br
ENDBRANCH  15  17
ENDBRANCH  14  15
ENDBRANCH  13  14
ENDBRANCH   7  13
TORSDOF 6
