REMARK  Name = ZINC09812647
REMARK  11 active torsions:
REMARK  status: ('A' for Active; 'I' for Inactive)
REMARK    1  A    between atoms: C_1  and  C_2
REMARK    2  A    between atoms: C_4  and  C_14
REMARK    3  A    between atoms: C_5  and  C_13
REMARK    4  A    between atoms: C_9  and  C_12
REMARK    5  A    between atoms: C_14  and  C_16
REMARK    6  A    between atoms: C_16  and  S_17
REMARK    7  A    between atoms: S_17  and  C_18
REMARK    8  A    between atoms: C_21  and  C_30
REMARK    9  A    between atoms: N_22  and  C_23
REMARK   10  A    between atoms: C_23  and  C_24
REMARK   11  A    between atoms: C_30  and  N_65
REMARK                            x       y       z     vdW  Elec       q    Type
REMARK                         _______ _______ _______ _____ _____    ______ ____
ROOT
ATOM      1  C   UNL     1      -0.887   0.664   2.685  0.00  0.00    +0.192 A 
ATOM      2  N   UNL     1       0.228   0.164   2.206  0.00  0.00    -0.123 NA
ATOM      3  N   UNL     1       1.046  -0.080   3.167  0.00  0.00    -0.135 NA
ATOM      4  C   UNL     1       0.507   0.248   4.307  0.00  0.00    +0.118 A 
ATOM      5  N   UNL     1      -0.742   0.739   4.041  0.00  0.00    -0.303 N 
ENDROOT
BRANCH   1   6
ATOM      6  S   UNL     1      -2.301   1.153   1.754  0.00  0.00    -0.078 S 
BRANCH   6   7
ATOM      7  C   UNL     1      -1.728   0.760   0.083  0.00  0.00    +0.157 C 
BRANCH   7   8
ATOM      8  C   UNL     1      -2.805   1.106  -0.912  0.00  0.00    +0.175 C 
ATOM      9  O   UNL     1      -3.858   1.573  -0.529  0.00  0.00    -0.291 OA
BRANCH   8  13
ATOM     10  C   UNL     1      -0.656  -0.191  -5.346  0.00  0.00    +0.064 C 
ATOM     11  C   UNL     1      -1.616   0.300  -4.293  0.00  0.00    +0.023 A 
ATOM     12  C   UNL     1      -1.373   0.333  -2.973  0.00  0.00    +0.034 A 
ATOM     13  C   UNL     1      -2.583   0.879  -2.342  0.00  0.00    +0.039 A 
ATOM     14  C   UNL     1      -3.464   1.142  -3.373  0.00  0.00    +0.033 A 
ATOM     15  N   UNL     1      -2.871   0.790  -4.531  0.00  0.00    -0.299 N 
ATOM     16  C   UNL     1      -3.455   0.909  -5.796  0.00  0.00    +0.181 A 
ATOM     17  C   UNL     1      -2.841   1.409  -6.975  0.00  0.00    +0.094 A 
ATOM     18  C   UNL     1      -3.812   1.316  -7.913  0.00  0.00    +0.136 A 
ATOM     19  O   UNL     1      -4.888   0.802  -7.301  0.00  0.00    -0.358 OA
ATOM     20  N   UNL     1      -4.674   0.578  -6.132  0.00  0.00    -0.060 NA
ATOM     21  C   UNL     1      -3.704   1.714  -9.362  0.00  0.00    +0.089 C 
ATOM     22  C   UNL     1      -4.848   1.720  -3.228  0.00  0.00    +0.064 C 
ENDBRANCH   8  13
ENDBRANCH   7   8
ENDBRANCH   6   7
ENDBRANCH   1   6
BRANCH   5  23
ATOM     23  C   UNL     1      -1.721   1.239   5.009  0.00  0.00    +0.160 C 
BRANCH  23  24
ATOM     24  C   UNL     1      -2.648   0.120   5.408  0.00  0.00    -0.028 A 
ATOM     25  C   UNL     1      -3.814  -0.099   4.698  0.00  0.00    +0.005 A 
ATOM     26  C   UNL     1      -4.662  -1.128   5.062  0.00  0.00    +0.000 A 
ATOM     27  C   UNL     1      -4.350  -1.933   6.141  0.00  0.00    +0.000 A 
ATOM     28  C   UNL     1      -3.186  -1.711   6.855  0.00  0.00    +0.000 A 
ATOM     29  C   UNL     1      -2.336  -0.685   6.488  0.00  0.00    +0.005 A 
ENDBRANCH  23  24
ENDBRANCH   5  23
BRANCH   4  30
ATOM     30  C   UNL     1       1.143   0.117   5.667  0.00  0.00    -0.001 C 
BRANCH  30  35
ATOM     31  C   UNL     1       1.509  -2.252   5.239  0.00  0.00    -0.078 C 
ATOM     32  C   UNL     1       1.685  -3.506   6.132  0.00  0.00    -0.020 C 
ATOM     33  C   UNL     1       2.129  -2.907   7.486  0.00  0.00    -0.020 C 
ATOM     34  C   UNL     1       1.644  -1.446   7.458  0.00  0.00    -0.078 C 
ATOM     35  N   UNL     1       0.948  -1.272   6.183  0.00  0.00    +0.384 N 
ATOM     36  H   UNL     1      -0.056  -1.446   6.308  0.00  0.00    -0.081 HD
ENDBRANCH  30  35
ENDBRANCH   4  30
TORSDOF 8
