REMARK  Name = ZINC65419224
REMARK  6 active torsions:
REMARK  status: ('A' for Active; 'I' for Inactive)
REMARK    1  A    between atoms: C_1  and  C_2
REMARK    2  A    between atoms: C_3  and  C_16
REMARK    3  A    between atoms: C_4  and  O_8
REMARK    4  A    between atoms: N_5  and  C_7
REMARK    5  A    between atoms: O_8  and  C_9
REMARK    6  A    between atoms: C_26  and  O_28
REMARK                            x       y       z     vdW  Elec       q    Type
REMARK                         _______ _______ _______ _____ _____    ______ ____
ROOT
ATOM      1  C   UNL     1      -0.258   1.206   0.689  0.00  0.00    +0.068 C 
ATOM      2  C   UNL     1      -0.164  -0.281   0.464  0.00  0.00    +0.067 A 
ATOM      3  C   UNL     1      -0.130  -0.920  -0.779  0.00  0.00    +0.045 A 
ATOM      4  C   UNL     1      -0.043  -2.259  -0.556  0.00  0.00    +0.223 A 
ATOM      5  N   UNL     1      -0.022  -2.450   0.782  0.00  0.00    -0.235 N 
ATOM      6  N   UNL     1      -0.094  -1.194   1.398  0.00  0.00    -0.173 NA
ATOM      7  C   UNL     1       0.066  -3.742   1.466  0.00  0.00    +0.176 C 
ENDROOT
BRANCH   3   8
ATOM      8  C   UNL     1      -0.182  -0.246  -2.126  0.00  0.00    +0.066 C 
ATOM      9  C   UNL     1      -1.493  -0.608  -2.826  0.00  0.00    +0.109 C 
ATOM     10  C   UNL     1      -1.459  -2.048  -3.263  0.00  0.00    +0.218 C 
ATOM     11  O   UNL     1      -2.477  -2.707  -3.233  0.00  0.00    -0.275 OA
ATOM     12  N   UNL     1      -0.314  -2.613  -3.686  0.00  0.00    -0.285 N 
ATOM     13  C   UNL     1       0.873  -1.874  -3.712  0.00  0.00    +0.041 A 
ATOM     14  C   UNL     1       0.981  -0.709  -2.964  0.00  0.00    -0.018 A 
ATOM     15  C   UNL     1       2.152   0.023  -2.989  0.00  0.00    +0.009 A 
ATOM     16  C   UNL     1       3.219  -0.402  -3.758  0.00  0.00    +0.046 A 
ATOM     17  C   UNL     1       3.117  -1.565  -4.507  0.00  0.00    +0.119 A 
ATOM     18  C   UNL     1       1.943  -2.302  -4.485  0.00  0.00    +0.069 A 
ATOM     19  H   UNL     1      -0.311  -3.539  -3.975  0.00  0.00    +0.155 HD
BRANCH  17  20
ATOM     20  O   UNL     1       4.167  -1.982  -5.263  0.00  0.00    -0.507 OA
ATOM     21  H   UNL     1       4.777  -2.570  -4.797  0.00  0.00    +0.292 HD
ENDBRANCH  17  20
ENDBRANCH   3   8
BRANCH   4  22
ATOM     22  O   UNL     1       0.013  -3.228  -1.506  0.00  0.00    -0.438 OA
BRANCH  22  23
ATOM     23  C   UNL     1       1.212  -3.825  -1.737  0.00  0.00    +0.130 A 
ATOM     24  C   UNL     1       2.352  -3.369  -1.091  0.00  0.00    +0.048 A 
ATOM     25  C   UNL     1       3.569  -3.978  -1.327  0.00  0.00    +0.023 A 
ATOM     26  C   UNL     1       3.652  -5.042  -2.209  0.00  0.00    +0.041 A 
ATOM     27  C   UNL     1       2.516  -5.498  -2.855  0.00  0.00    +0.023 A 
ATOM     28  C   UNL     1       1.296  -4.895  -2.616  0.00  0.00    +0.048 A 
ATOM     29 CL   UNL     1       5.183  -5.805  -2.505  0.00  0.00    -0.084 Cl
ENDBRANCH  22  23
ENDBRANCH   4  22
TORSDOF 4
