REMARK  Name = ZINC66908890
REMARK  7 active torsions:
REMARK  status: ('A' for Active; 'I' for Inactive)
REMARK    1  A    between atoms: C_1  and  C_2
REMARK    2  A    between atoms: C_2  and  C_4
REMARK    3  A    between atoms: C_2  and  N_10
REMARK    4  A    between atoms: C_4  and  C_5
REMARK    5  A    between atoms: N_13  and  C_14
REMARK    6  A    between atoms: C_14  and  C_15
REMARK    7  A    between atoms: C_15  and  O_25
REMARK                            x       y       z     vdW  Elec       q    Type
REMARK                         _______ _______ _______ _____ _____    ______ ____
ROOT
ATOM      1  N   UNL     1      -1.603  -0.023   0.058  0.00  0.00    -0.296 N 
ATOM      2  C   UNL     1      -2.220  -0.285  -1.112  0.00  0.00    +0.300 C 
ATOM      3  O   UNL     1      -1.728   0.095  -2.157  0.00  0.00    -0.253 OA
ATOM      4  N   UNL     1      -3.382  -0.968  -1.122  0.00  0.00    -0.296 N 
ATOM      5  H   UNL     1      -1.994  -0.326   0.891  0.00  0.00    +0.151 HD
ATOM      6  H   UNL     1      -3.774  -1.270  -0.288  0.00  0.00    +0.150 HD
ENDROOT
BRANCH   1   8
ATOM      7  C   UNL     1      -0.630   2.221   0.054  0.00  0.00    +0.028 C 
ATOM      8  C   UNL     1      -0.339   0.719   0.069  0.00  0.00    +0.079 C 
BRANCH   8   9
ATOM      9  C   UNL     1       0.449   0.364   1.331  0.00  0.00    +0.096 C 
BRANCH   9  10
ATOM     10  C   UNL     1       0.842  -1.090   1.286  0.00  0.00    +0.107 A 
ATOM     11  C   UNL     1       1.978  -1.582   0.762  0.00  0.00    +0.045 A 
ATOM     12  C   UNL     1       1.935  -2.985   0.933  0.00  0.00    +0.041 A 
ATOM     13  C   UNL     1       0.774  -3.266   1.551  0.00  0.00    +0.195 A 
ATOM     14  O   UNL     1       0.118  -2.114   1.768  0.00  0.00    -0.468 OA
ENDBRANCH   9  10
ENDBRANCH   8   9
ENDBRANCH   1   8
BRANCH   4  15
ATOM     15  C   UNL     1      -4.053  -1.252  -2.393  0.00  0.00    +0.145 C 
BRANCH  15  16
ATOM     16  C   UNL     1      -5.405  -1.913  -2.119  0.00  0.00    +0.107 C 
ATOM     17  C   UNL     1      -6.243  -0.995  -1.230  0.00  0.00    +0.041 C 
ATOM     18  C   UNL     1      -7.663  -1.567  -1.147  0.00  0.00    +0.008 C 
ATOM     19  C   UNL     1      -8.333  -1.394  -2.509  0.00  0.00    +0.035 C 
ATOM     20  C   UNL     1      -7.452  -1.935  -3.604  0.00  0.00    -0.041 A 
ATOM     21  C   UNL     1      -6.107  -2.169  -3.426  0.00  0.00    -0.011 A 
ATOM     22  C   UNL     1      -5.350  -2.663  -4.481  0.00  0.00    +0.007 A 
ATOM     23  C   UNL     1      -5.935  -2.923  -5.703  0.00  0.00    +0.000 A 
ATOM     24  C   UNL     1      -7.286  -2.691  -5.880  0.00  0.00    +0.000 A 
ATOM     25  C   UNL     1      -8.040  -2.199  -4.835  0.00  0.00    +0.004 A 
BRANCH  16  26
ATOM     26  O   UNL     1      -5.195  -3.155  -1.445  0.00  0.00    -0.382 OA
ATOM     27  H   UNL     1      -4.662  -3.789  -1.946  0.00  0.00    +0.211 HD
ENDBRANCH  16  26
ENDBRANCH  15  16
ENDBRANCH   4  15
TORSDOF 6
