REMARK  Name = ZINC14742167
REMARK  12 active torsions:
REMARK  status: ('A' for Active; 'I' for Inactive)
REMARK    1  A    between atoms: C_1  and  C_2
REMARK    2  A    between atoms: C_2  and  C_3
REMARK    3  A    between atoms: C_2  and  C_4
REMARK    4  A    between atoms: C_4  and  N_5
REMARK    5  A    between atoms: C_7  and  O_26
REMARK    6  A    between atoms: C_13  and  C_14
REMARK    7  A    between atoms: C_13  and  N_64
REMARK    8  A    between atoms: C_17  and  S_19
REMARK    9  A    between atoms: S_19  and  C_20
REMARK   10  A    between atoms: N_24  and  C_25
REMARK   11  A    between atoms: O_26  and  C_27
REMARK   12  A    between atoms: C_27  and  C_28
REMARK                            x       y       z     vdW  Elec       q    Type
REMARK                         _______ _______ _______ _____ _____    ______ ____
ROOT
ATOM      1  N   UNL     1      -6.513   0.293   1.013  0.00  0.00    -0.300 N 
ATOM      2  C   UNL     1      -5.312   0.982   1.516  0.00  0.00    +0.137 C 
ATOM      3  C   UNL     1      -4.140  -0.002   1.481  0.00  0.00    +0.120 C 
ATOM      4  C   UNL     1      -4.105  -0.841   2.744  0.00  0.00    -0.044 C 
ATOM      5  C   UNL     1      -6.503  -1.044   3.093  0.00  0.00    +0.019 C 
ATOM      6  C   UNL     1      -7.082  -0.669   1.745  0.00  0.00    +0.199 C 
ATOM      7  O   UNL     1      -8.065  -1.244   1.328  0.00  0.00    -0.278 OA
ATOM      8  N   UNL     1      -5.238  -1.781   2.853  0.00  0.00    +0.392 N 
ATOM      9  H   UNL     1      -5.322  -2.301   1.971  0.00  0.00    -0.080 HD
ENDROOT
BRANCH   1  10
ATOM     10  C   UNL     1      -7.082   0.662  -0.285  0.00  0.00    +0.110 C 
BRANCH  10  12
ATOM     11  C   UNL     1      -7.416   3.036   0.417  0.00  0.00    +0.009 C 
ATOM     12  C   UNL     1      -8.115   1.774  -0.092  0.00  0.00    +0.000 C 
ATOM     13  C   UNL     1      -8.799   2.072  -1.427  0.00  0.00    +0.009 C 
ENDBRANCH  10  12
ENDBRANCH   1  10
BRANCH   8  14
ATOM     14  C   UNL     1      -4.993  -2.733   3.946  0.00  0.00    -0.002 C 
BRANCH  14  15
ATOM     15  C   UNL     1      -6.263  -3.495   4.224  0.00  0.00    +0.090 A 
ATOM     16  C   UNL     1      -6.643  -4.635   3.621  0.00  0.00    +0.044 A 
ATOM     17  C   UNL     1      -7.888  -5.002   4.181  0.00  0.00    +0.057 A 
ATOM     18  C   UNL     1      -8.198  -4.057   5.099  0.00  0.00    +0.169 A 
ATOM     19  O   UNL     1      -7.205  -3.151   5.123  0.00  0.00    -0.455 OA
BRANCH  18  20
ATOM     20  S   UNL     1      -9.649  -4.023   6.098  0.00  0.00    -0.012 S 
BRANCH  20  21
ATOM     21  C   UNL     1      -9.357  -2.546   7.013  0.00  0.00    +0.199 A 
ATOM     22  N   UNL     1      -8.311  -1.760   6.912  0.00  0.00    -0.122 NA
ATOM     23  N   UNL     1      -8.428  -0.772   7.726  0.00  0.00    -0.137 NA
ATOM     24  C   UNL     1      -9.541  -0.873   8.396  0.00  0.00    +0.225 A 
ATOM     25  N   UNL     1     -10.173  -2.007   7.966  0.00  0.00    -0.311 N 
ATOM     26  C   UNL     1     -11.459  -2.533   8.431  0.00  0.00    +0.152 C 
ENDBRANCH  20  21
ENDBRANCH  18  20
ENDBRANCH  14  15
ENDBRANCH   8  14
BRANCH   3  27
ATOM     27  O   UNL     1      -2.916   0.728   1.366  0.00  0.00    -0.372 OA
BRANCH  27  28
ATOM     28  C   UNL     1      -2.513   0.980   0.019  0.00  0.00    +0.195 C 
BRANCH  28  29
ATOM     29  C   UNL     1      -1.218   1.751   0.017  0.00  0.00    -0.019 A 
ATOM     30  C   UNL     1      -1.237   3.133   0.030  0.00  0.00    +0.006 A 
ATOM     31  C   UNL     1      -0.051   3.842   0.023  0.00  0.00    +0.003 A 
ATOM     32  C   UNL     1       1.157   3.169   0.008  0.00  0.00    +0.038 A 
ATOM     33  C   UNL     1       1.177   1.785   0.000  0.00  0.00    +0.124 A 
ATOM     34  C   UNL     1      -0.013   1.076   0.008  0.00  0.00    +0.044 A 
ATOM     35  F   UNL     1       2.356   1.126  -0.015  0.00  0.00    -0.205 F 
ENDBRANCH  28  29
ENDBRANCH  27  28
ENDBRANCH   3  27
TORSDOF 9
