REMARK  Name = ZINC35705362
REMARK  15 active torsions:
REMARK  status: ('A' for Active; 'I' for Inactive)
REMARK    1  A    between atoms: C_1  and  C_2
REMARK    2  A    between atoms: C_3  and  C_33
REMARK    3  A    between atoms: C_4  and  C_23
REMARK    4  A    between atoms: C_7  and  C_12
REMARK    5  A    between atoms: C_13  and  N_15
REMARK    6  A    between atoms: N_15  and  C_16
REMARK    7  A    between atoms: C_16  and  C_17
REMARK    8  A    between atoms: C_26  and  O_31
REMARK    9  A    between atoms: C_27  and  O_29
REMARK   10  A    between atoms: O_29  and  C_30
REMARK   11  A    between atoms: O_31  and  C_32
REMARK   12  A    between atoms: C_33  and  O_35
REMARK   13  A    between atoms: O_35  and  C_36
REMARK   14  A    between atoms: C_36  and  C_37
REMARK   15  A    between atoms: C_36  and  C_38
REMARK                            x       y       z     vdW  Elec       q    Type
REMARK                         _______ _______ _______ _____ _____    ______ ____
ROOT
ATOM      1  C   UNL     1      -0.925   1.328  -0.626  0.00  0.00    +0.066 C 
ATOM      2  C   UNL     1      -0.654  -0.151  -0.525  0.00  0.00    +0.053 C 
ATOM      3  C   UNL     1      -1.710  -1.043  -0.515  0.00  0.00    +0.082 C 
ATOM      4  C   UNL     1      -1.386  -2.517  -0.414  0.00  0.00    +0.150 C 
ATOM      5  N   UNL     1       0.051  -2.890  -0.333  0.00  0.00    -0.267 N 
ATOM      6  C   UNL     1       0.574  -4.165  -0.236  0.00  0.00    +0.048 C 
ATOM      7  C   UNL     1       1.919  -4.287  -0.174  0.00  0.00    +0.072 C 
ATOM      8  S   UNL     1       2.447  -2.587  -0.253  0.00  0.00    -0.060 S 
ATOM      9  C   UNL     1       0.942  -1.854  -0.358  0.00  0.00    +0.166 C 
ATOM     10  N   UNL     1       0.593  -0.587  -0.454  0.00  0.00    -0.230 NA
ENDROOT
BRANCH   4  11
ATOM     11  C   UNL     1      -2.076  -3.060   0.811  0.00  0.00    -0.018 A 
ATOM     12  C   UNL     1      -3.196  -3.858   0.675  0.00  0.00    +0.009 A 
ATOM     13  C   UNL     1      -3.833  -4.359   1.796  0.00  0.00    +0.050 A 
ATOM     14  C   UNL     1      -3.347  -4.061   3.059  0.00  0.00    +0.162 A 
ATOM     15  C   UNL     1      -2.219  -3.258   3.196  0.00  0.00    +0.162 A 
ATOM     16  C   UNL     1      -1.583  -2.763   2.068  0.00  0.00    +0.055 A 
BRANCH  15  17
ATOM     17  O   UNL     1      -1.739  -2.962   4.434  0.00  0.00    -0.491 OA
ATOM     18  C   UNL     1      -0.643  -2.047   4.503  0.00  0.00    +0.277 C 
ENDBRANCH  15  17
BRANCH  14  19
ATOM     19  O   UNL     1      -3.972  -4.552   4.162  0.00  0.00    -0.491 OA
ATOM     20  C   UNL     1      -5.124  -5.369   3.946  0.00  0.00    +0.277 C 
ENDBRANCH  14  19
ENDBRANCH   4  11
BRANCH   6  21
ATOM     21  C   UNL     1      -0.300  -5.346  -0.200  0.00  0.00    +0.091 C 
ATOM     22  C   UNL     1       0.224  -6.564   0.034  0.00  0.00    +0.239 C 
ATOM     23  O   UNL     1       1.567  -6.718   0.126  0.00  0.00    -0.271 OA
BRANCH  22  24
ATOM     24  N   UNL     1      -0.611  -7.660   0.181  0.00  0.00    -0.309 N 
ATOM     25  H   UNL     1      -1.566  -7.564   0.043  0.00  0.00    +0.149 HD
BRANCH  24  26
ATOM     26  C   UNL     1      -0.050  -8.963   0.545  0.00  0.00    +0.136 C 
BRANCH  26  27
ATOM     27  C   UNL     1      -1.157 -10.019   0.520  0.00  0.00    +0.135 C 
ATOM     28  C   UNL     1      -0.579 -11.394   0.919  0.00  0.00    +0.035 C 
ATOM     29  C   UNL     1      -1.324 -12.357  -0.045  0.00  0.00    +0.031 C 
ATOM     30  C   UNL     1      -1.456 -11.467  -1.306  0.00  0.00    +0.160 C 
ATOM     31  O   UNL     1      -1.686 -10.138  -0.806  0.00  0.00    -0.375 OA
ENDBRANCH  26  27
ENDBRANCH  24  26
ENDBRANCH  22  24
ENDBRANCH   6  21
BRANCH   3  32
ATOM     32  C   UNL     1      -3.034  -0.597  -0.596  0.00  0.00    +0.339 C 
ATOM     33  O   UNL     1      -3.278   0.597  -0.572  0.00  0.00    -0.245 OA
BRANCH  32  34
ATOM     34  O   UNL     1      -4.043  -1.490  -0.700  0.00  0.00    -0.459 OA
BRANCH  34  35
ATOM     35  C   UNL     1      -5.358  -0.965  -0.891  0.00  0.00    +0.171 C 
ATOM     36  C   UNL     1      -5.676  -0.917  -2.387  0.00  0.00    +0.052 C 
ATOM     37  C   UNL     1      -6.374  -1.862  -0.182  0.00  0.00    +0.052 C 
ENDBRANCH  34  35
ENDBRANCH  32  34
ENDBRANCH   3  32
TORSDOF 10
