REMARK  Name = ZINC09448870
REMARK  11 active torsions:
REMARK  status: ('A' for Active; 'I' for Inactive)
REMARK    1  A    between atoms: C_1  and  C_2
REMARK    2  A    between atoms: C_2  and  O_3
REMARK    3  A    between atoms: O_3  and  C_4
REMARK    4  A    between atoms: C_4  and  C_6
REMARK    5  A    between atoms: C_7  and  C_25
REMARK    6  A    between atoms: C_10  and  N_11
REMARK    7  A    between atoms: C_12  and  C_14
REMARK    8  A    between atoms: C_14  and  N_57
REMARK    9  A    between atoms: C_18  and  C_20
REMARK   10  A    between atoms: N_22  and  C_23
REMARK   11  A    between atoms: N_22  and  C_24
REMARK                            x       y       z     vdW  Elec       q    Type
REMARK                         _______ _______ _______ _____ _____    ______ ____
ROOT
ATOM      1  C   UNL     1      -1.232   1.859  -0.348  0.00  0.00    +0.095 A 
ATOM      2  C   UNL     1      -0.936   2.192   1.033  0.00  0.00    +0.005 A 
ATOM      3  C   UNL     1       0.247   2.813   1.270  0.00  0.00    +0.056 A 
ATOM      4  S   UNL     1       0.963   2.966  -0.353  0.00  0.00    -0.080 S 
ATOM      5  C   UNL     1      -0.282   2.217  -1.295  0.00  0.00    +0.086 A 
ENDROOT
BRANCH   2   6
ATOM      6  C   UNL     1      -1.876   1.865   2.131  0.00  0.00    -0.016 A 
ATOM      7  C   UNL     1      -3.220   2.221   2.030  0.00  0.00    +0.010 A 
ATOM      8  C   UNL     1      -4.093   1.910   3.053  0.00  0.00    +0.020 A 
ATOM      9  C   UNL     1      -3.633   1.255   4.183  0.00  0.00    +0.041 A 
ATOM     10  C   UNL     1      -2.298   0.905   4.290  0.00  0.00    +0.020 A 
ATOM     11  C   UNL     1      -1.419   1.206   3.271  0.00  0.00    +0.010 A 
ATOM     12 CL   UNL     1      -4.735   0.873   5.469  0.00  0.00    -0.084 Cl
ENDBRANCH   2   6
BRANCH   5  13
ATOM     13  N   UNL     1      -0.321   2.022  -2.666  0.00  0.00    -0.281 N 
ATOM     14  C   UNL     1       0.703   2.440  -3.436  0.00  0.00    +0.201 C 
ATOM     15  O   UNL     1       1.659   2.988  -2.928  0.00  0.00    -0.278 OA
ATOM     16  H   UNL     1      -1.085   1.584  -3.072  0.00  0.00    +0.155 HD
BRANCH  14  17
ATOM     17  C   UNL     1       0.661   2.228  -4.927  0.00  0.00    +0.020 C 
BRANCH  17  22
ATOM     18  C   UNL     1       3.058   1.948  -5.177  0.00  0.00    -0.077 C 
ATOM     19  C   UNL     1       3.711   1.485  -6.496  0.00  0.00    -0.020 C 
ATOM     20  C   UNL     1       3.206   2.534  -7.522  0.00  0.00    -0.008 C 
ATOM     21  C   UNL     1       1.772   2.811  -7.007  0.00  0.00    +0.020 C 
ATOM     22  N   UNL     1       1.898   2.781  -5.536  0.00  0.00    +0.393 N 
ATOM     23  H   UNL     1       2.045   3.736  -5.188  0.00  0.00    -0.080 HD
BRANCH  21  24
ATOM     24  C   UNL     1       1.306   4.172  -7.458  0.00  0.00    +0.202 C 
ATOM     25  O   UNL     1       1.501   5.142  -6.757  0.00  0.00    -0.277 OA
ATOM     26  N   UNL     1       0.673   4.310  -8.639  0.00  0.00    -0.309 N 
ATOM     27  C   UNL     1       0.318   5.644  -9.128  0.00  0.00    +0.131 C 
ATOM     28  C   UNL     1       0.340   3.126  -9.435  0.00  0.00    +0.131 C 
ENDBRANCH  21  24
ENDBRANCH  17  22
ENDBRANCH  14  17
ENDBRANCH   5  13
BRANCH   1  29
ATOM     29  C   UNL     1      -2.474   1.184  -0.724  0.00  0.00    +0.342 C 
ATOM     30  O   UNL     1      -2.519  -0.031  -0.761  0.00  0.00    -0.245 OA
BRANCH  29  31
ATOM     31  O   UNL     1      -3.568   1.909  -1.036  0.00  0.00    -0.461 OA
BRANCH  31  33
ATOM     32  C   UNL     1      -5.891   2.157  -1.724  0.00  0.00    +0.048 C 
ATOM     33  C   UNL     1      -4.764   1.173  -1.406  0.00  0.00    +0.229 C 
ENDBRANCH  31  33
ENDBRANCH  29  31
ENDBRANCH   1  29
TORSDOF 8
