REMARK  Name = ZINC20722887
REMARK  4 active torsions:
REMARK  status: ('A' for Active; 'I' for Inactive)
REMARK    1  A    between atoms: C_1  and  C_2
REMARK    2  A    between atoms: C_2  and  C_3
REMARK    3  A    between atoms: C_2  and  C_4
REMARK    4  A    between atoms: C_12  and  O_20
REMARK                            x       y       z     vdW  Elec       q    Type
REMARK                         _______ _______ _______ _____ _____    ______ ____
ROOT
ATOM      1  C   UNL     1      -1.412  -0.526   0.013  0.00  0.00    -0.044 A 
ATOM      2  C   UNL     1      -2.245  -0.196   1.062  0.00  0.00    +0.006 A 
ATOM      3  C   UNL     1      -3.555  -0.645   1.127  0.00  0.00    +0.024 A 
ATOM      4  C   UNL     1      -4.007  -1.452   0.082  0.00  0.00    +0.038 A 
ATOM      5  C   UNL     1      -3.150  -1.780  -0.977  0.00  0.00    -0.006 A 
ATOM      6  C   UNL     1      -1.851  -1.325  -1.038  0.00  0.00    +0.010 A 
ATOM      7  C   UNL     1      -3.944  -2.644  -1.902  0.00  0.00    +0.112 C 
ATOM      8  C   UNL     1      -4.072  -2.008  -3.285  0.00  0.00    +0.121 C 
ATOM      9  C   UNL     1      -2.853  -2.268  -4.124  0.00  0.00    +0.191 C 
ATOM     10  N   UNL     1      -2.136  -3.347  -4.034  0.00  0.00    -0.198 NA
ATOM     11  C   UNL     1      -2.456  -4.290  -3.101  0.00  0.00    +0.156 A 
ATOM     12  C   UNL     1      -3.322  -4.004  -2.051  0.00  0.00    +0.036 A 
ATOM     13  C   UNL     1      -3.447  -5.146  -1.283  0.00  0.00    +0.141 A 
ATOM     14  N   UNL     1      -2.696  -6.086  -1.810  0.00  0.00    -0.180 NA
ATOM     15  N   UNL     1      -2.055  -5.570  -2.949  0.00  0.00    -0.260 N 
ATOM     16  H   UNL     1      -1.436  -6.048  -3.522  0.00  0.00    +0.191 HD
ATOM     17  C   UNL     1      -5.303  -2.753  -1.247  0.00  0.00    +0.233 C 
ATOM     18  O   UNL     1      -6.259  -3.371  -1.666  0.00  0.00    -0.274 OA
ATOM     19  N   UNL     1      -5.249  -2.033  -0.107  0.00  0.00    -0.284 N 
ATOM     20  H   UNL     1      -5.993  -1.933   0.508  0.00  0.00    +0.155 HD
ENDROOT
BRANCH   1  22
ATOM     21  C   UNL     1      -0.019   1.526   0.010  0.00  0.00    +0.012 C 
ATOM     22  C   UNL     1       0.002  -0.004   0.002  0.00  0.00    +0.013 C 
ATOM     23  C   UNL     1       0.742  -0.511   1.242  0.00  0.00    +0.012 C 
ENDBRANCH   1  22
BRANCH   9  24
ATOM     24  O   UNL     1      -2.484  -1.330  -5.020  0.00  0.00    -0.495 OA
ATOM     25  H   UNL     1      -1.692  -1.560  -5.526  0.00  0.00    +0.293 HD
ENDBRANCH   9  24
TORSDOF 2
