REMARK  Name = ZINC38685263
REMARK  12 active torsions:
REMARK  status: ('A' for Active; 'I' for Inactive)
REMARK    1  A    between atoms: C_1  and  C_2
REMARK    2  A    between atoms: C_2  and  C_3
REMARK    3  A    between atoms: C_3  and  C_4
REMARK    4  A    between atoms: C_4  and  O_5
REMARK    5  A    between atoms: O_5  and  C_6
REMARK    6  A    between atoms: C_10  and  C_12
REMARK    7  A    between atoms: C_17  and  O_26
REMARK    8  A    between atoms: C_21  and  N_25
REMARK    9  A    between atoms: C_22  and  C_23
REMARK   10  A    between atoms: O_26  and  C_27
REMARK   11  A    between atoms: C_27  and  C_29
REMARK   12  A    between atoms: C_31  and  N_36
REMARK                            x       y       z     vdW  Elec       q    Type
REMARK                         _______ _______ _______ _____ _____    ______ ____
ROOT
ATOM      1  C   UNL     1      -5.708  -6.376   0.048  0.00  0.00    +0.098 C 
ATOM      2  C   UNL     1      -5.889  -7.239   1.269  0.00  0.00    +0.008 A 
ATOM      3  C   UNL     1      -6.013  -6.642   2.511  0.00  0.00    +0.012 A 
ATOM      4  C   UNL     1      -6.180  -7.417   3.642  0.00  0.00    +0.047 A 
ATOM      5  C   UNL     1      -6.222  -8.800   3.535  0.00  0.00    +0.135 A 
ATOM      6  C   UNL     1      -6.098  -9.400   2.293  0.00  0.00    +0.093 A 
ATOM      7  C   UNL     1      -5.930  -8.620   1.156  0.00  0.00    +0.138 A 
ATOM      8  O   UNL     1      -5.809  -9.223  -0.052  0.00  0.00    -0.441 OA
ATOM      9  C   UNL     1      -6.033  -8.522  -1.176  0.00  0.00    +0.199 C 
ATOM     10  C   UNL     1      -5.999  -7.172  -1.194  0.00  0.00    +0.098 C 
ENDROOT
BRANCH   1  15
ATOM     11  C   UNL     1      -2.728  -4.053  -0.025  0.00  0.00    +0.121 A 
ATOM     12  C   UNL     1      -1.678  -4.957  -0.097  0.00  0.00    +0.045 A 
ATOM     13  C   UNL     1      -1.936  -6.314  -0.121  0.00  0.00    +0.004 A 
ATOM     14  C   UNL     1      -3.240  -6.772  -0.074  0.00  0.00    +0.005 A 
ATOM     15  C   UNL     1      -4.288  -5.874  -0.003  0.00  0.00    -0.031 A 
ATOM     16  C   UNL     1      -4.035  -4.516   0.028  0.00  0.00    +0.050 A 
BRANCH  11  17
ATOM     17  O   UNL     1      -2.477  -2.718  -0.000  0.00  0.00    -0.492 OA
BRANCH  17  18
ATOM     18  C   UNL     1      -1.108  -2.314  -0.057  0.00  0.00    +0.229 C 
BRANCH  18  19
ATOM     19  C   UNL     1      -1.024  -0.787  -0.019  0.00  0.00    +0.041 C 
BRANCH  19  21
ATOM     20  C   UNL     1       0.526   1.172  -0.042  0.00  0.00    +0.004 C 
ATOM     21  C   UNL     1       0.442  -0.355  -0.080  0.00  0.00    -0.000 C 
ENDBRANCH  19  21
ENDBRANCH  18  19
ENDBRANCH  17  18
ENDBRANCH  11  17
ENDBRANCH   1  15
BRANCH   9  22
ATOM     22  N   UNL     1      -6.303  -9.199  -2.340  0.00  0.00    -0.328 N 
ATOM     23  H   UNL     1      -6.330 -10.168  -2.342  0.00  0.00    +0.145 HD
ATOM     24  H   UNL     1      -6.468  -8.707  -3.159  0.00  0.00    +0.145 HD
ENDBRANCH   9  22
BRANCH  10  25
ATOM     25  C   UNL     1      -6.246  -6.484  -2.425  0.00  0.00    +0.101 C 
ATOM     26  N   UNL     1      -6.442  -5.939  -3.402  0.00  0.00    -0.191 NA
ENDBRANCH  10  25
BRANCH   5  27
ATOM     27  O   UNL     1      -6.385  -9.564   4.647  0.00  0.00    -0.422 OA
BRANCH  27  28
ATOM     28  C   UNL     1      -7.580  -9.528   5.269  0.00  0.00    +0.346 C 
ATOM     29  O   UNL     1      -8.503  -8.910   4.777  0.00  0.00    -0.244 OA
BRANCH  28  30
ATOM     30  C   UNL     1      -7.767 -10.239   6.550  0.00  0.00    +0.080 A 
ATOM     31  C   UNL     1      -6.706 -10.946   7.121  0.00  0.00    +0.049 A 
ATOM     32  C   UNL     1      -6.887 -11.608   8.317  0.00  0.00    +0.127 A 
ATOM     33  C   UNL     1      -8.117 -11.574   8.952  0.00  0.00    +0.034 A 
ATOM     34  C   UNL     1      -9.173 -10.877   8.392  0.00  0.00    +0.023 A 
ATOM     35  C   UNL     1      -9.004 -10.204   7.198  0.00  0.00    +0.055 A 
ATOM     36 CL   UNL     1     -10.327  -9.322   6.501  0.00  0.00    -0.083 Cl
BRANCH  32  37
ATOM     37  N   UNL     1      -5.764 -12.357   8.924  0.00  0.00    +0.056 N 
ATOM     38  O   UNL     1      -4.689 -12.387   8.371  0.00  0.00    -0.126 OA
ATOM     39  O   UNL     1      -5.921 -12.938   9.972  0.00  0.00    -0.126 OA
ENDBRANCH  32  37
ENDBRANCH  28  30
ENDBRANCH  27  28
ENDBRANCH   5  27
TORSDOF 11
