REMARK  Name = ZINC04453276
REMARK  13 active torsions:
REMARK  status: ('A' for Active; 'I' for Inactive)
REMARK    1  A    between atoms: C_1  and  C_2
REMARK    2  A    between atoms: C_4  and  C_17
REMARK    3  A    between atoms: C_5  and  C_16
REMARK    4  A    between atoms: N_6  and  C_7
REMARK    5  A    between atoms: C_8  and  C_14
REMARK    6  A    between atoms: C_9  and  C_13
REMARK    7  A    between atoms: C_10  and  C_12
REMARK    8  A    between atoms: C_17  and  C_18
REMARK    9  A    between atoms: C_17  and  C_26
REMARK   10  A    between atoms: C_19  and  C_25
REMARK   11  A    between atoms: C_23  and  O_24
REMARK   12  A    between atoms: C_27  and  C_33
REMARK   13  A    between atoms: C_31  and  O_32
REMARK                            x       y       z     vdW  Elec       q    Type
REMARK                         _______ _______ _______ _____ _____    ______ ____
ROOT
ATOM      1  C   UNL     1       0.273  -3.397  -1.392  0.00  0.00    +0.095 C 
ENDROOT
BRANCH   1   5
ATOM      2  C   UNL     1       0.132   1.033   1.124  0.00  0.00    +0.064 C 
ATOM      3  C   UNL     1       0.242  -0.434   0.800  0.00  0.00    +0.024 A 
ATOM      4  C   UNL     1       0.145  -0.983  -0.427  0.00  0.00    +0.027 A 
ATOM      5  C   UNL     1       0.307  -2.376  -0.283  0.00  0.00    -0.014 A 
ATOM      6  C   UNL     1       0.497  -2.629   1.027  0.00  0.00    +0.028 A 
ATOM      7  N   UNL     1       0.465  -1.440   1.700  0.00  0.00    -0.287 N 
ATOM      8  C   UNL     1       0.714  -3.987   1.643  0.00  0.00    +0.064 C 
BRANCH   7   9
ATOM      9  C   UNL     1       0.627  -1.279   3.070  0.00  0.00    +0.223 A 
ATOM     10  C   UNL     1       1.520  -0.422   3.689  0.00  0.00    +0.118 A 
ATOM     11  C   UNL     1       1.311  -0.616   5.132  0.00  0.00    +0.010 A 
ATOM     12  C   UNL     1       0.345  -1.539   5.248  0.00  0.00    +0.109 A 
ATOM     13  O   UNL     1      -0.058  -1.923   4.025  0.00  0.00    -0.442 OA
ATOM     14  C   UNL     1      -0.206  -2.061   6.549  0.00  0.00    +0.086 C 
ATOM     15  C   UNL     1       2.036   0.083   6.254  0.00  0.00    +0.049 C 
BRANCH  10  16
ATOM     16  C   UNL     1       2.451   0.465   3.058  0.00  0.00    +0.105 C 
ATOM     17  N   UNL     1       3.189   1.168   2.557  0.00  0.00    -0.191 NA
ENDBRANCH  10  16
ENDBRANCH   7   9
ENDBRANCH   1   5
BRANCH   1  18
ATOM     18  C   UNL     1      -1.106  -3.434  -1.999  0.00  0.00    +0.048 A 
ATOM     19  C   UNL     1      -1.995  -4.512  -1.957  0.00  0.00    +0.068 A 
ATOM     20  N   UNL     1      -3.087  -4.168  -2.590  0.00  0.00    -0.176 NA
ATOM     21  N   UNL     1      -2.931  -2.857  -3.057  0.00  0.00    -0.247 N 
ATOM     22  H   UNL     1      -3.587  -2.349  -3.560  0.00  0.00    +0.192 HD
ATOM     23  C   UNL     1      -1.709  -2.423  -2.679  0.00  0.00    +0.213 A 
ATOM     24  C   UNL     1      -1.739  -5.842  -1.297  0.00  0.00    +0.068 C 
BRANCH  23  25
ATOM     25  O   UNL     1      -1.178  -1.200  -2.934  0.00  0.00    -0.492 OA
ATOM     26  H   UNL     1      -0.752  -1.128  -3.799  0.00  0.00    +0.294 HD
ENDBRANCH  23  25
ENDBRANCH   1  18
BRANCH   1  27
ATOM     27  C   UNL     1       1.278  -3.021  -2.451  0.00  0.00    +0.048 A 
ATOM     28  C   UNL     1       1.244  -3.398  -3.750  0.00  0.00    +0.041 A 
ATOM     29  N   UNL     1       2.316  -2.856  -4.365  0.00  0.00    -0.278 N 
ATOM     30  N   UNL     1       3.036  -2.121  -3.414  0.00  0.00    -0.136 NA
ATOM     31  H   UNL     1       2.548  -2.958  -5.301  0.00  0.00    +0.189 HD
ATOM     32  C   UNL     1       2.410  -2.214  -2.266  0.00  0.00    +0.236 A 
ATOM     33  C   UNL     1       0.197  -4.268  -4.395  0.00  0.00    +0.065 C 
BRANCH  32  34
ATOM     34  O   UNL     1       2.794  -1.633  -1.098  0.00  0.00    -0.491 OA
ATOM     35  H   UNL     1       3.443  -2.147  -0.597  0.00  0.00    +0.294 HD
ENDBRANCH  32  34
ENDBRANCH   1  27
TORSDOF 7
