REMARK  Name = ZINC09666730
REMARK  8 active torsions:
REMARK  status: ('A' for Active; 'I' for Inactive)
REMARK    1  A    between atoms: C_3  and  N_30
REMARK    2  A    between atoms: C_4  and  N_8
REMARK    3  A    between atoms: C_9  and  C_11
REMARK    4  A    between atoms: C_11  and  O_12
REMARK    5  A    between atoms: O_12  and  C_13
REMARK    6  A    between atoms: C_13  and  C_15
REMARK    7  A    between atoms: N_18  and  C_21
REMARK    8  A    between atoms: C_24  and  C_26
REMARK                            x       y       z     vdW  Elec       q    Type
REMARK                         _______ _______ _______ _____ _____    ______ ____
ROOT
ATOM      1  C   UNL     1      -5.332   3.781   7.905  0.00  0.00    +0.311 C 
ATOM      2  O   UNL     1      -5.886   4.849   7.794  0.00  0.00    -0.251 OA
ENDROOT
BRANCH   1   3
ATOM      3  C   UNL     1      -4.680   3.142   6.706  0.00  0.00    +0.101 C 
ATOM      4  C   UNL     1      -4.862   4.044   5.483  0.00  0.00    +0.033 C 
ATOM      5  C   UNL     1      -4.148   3.418   4.282  0.00  0.00    +0.107 C 
ATOM      6  N   UNL     1      -2.720   3.261   4.588  0.00  0.00    -0.317 N 
ATOM      7  C   UNL     1      -2.518   2.361   5.731  0.00  0.00    +0.107 C 
ATOM      8  C   UNL     1      -3.184   2.954   6.974  0.00  0.00    +0.033 C 
BRANCH   6   9
ATOM      9  C   UNL     1      -2.018   2.817   3.474  0.00  0.00    +0.099 A 
ATOM     10  C   UNL     1      -0.646   2.606   3.563  0.00  0.00    +0.042 A 
ATOM     11  C   UNL     1       0.040   2.164   2.446  0.00  0.00    +0.017 A 
ATOM     12  C   UNL     1      -0.671   1.948   1.274  0.00  0.00    +0.071 A 
ATOM     13  C   UNL     1      -2.031   2.183   1.255  0.00  0.00    +0.096 A 
ATOM     14  N   UNL     1      -2.739   2.611   2.334  0.00  0.00    -0.349 N 
ATOM     15  H   UNL     1      -3.753   2.770   2.293  0.00  0.00    +0.167 HD
BRANCH  12  16
ATOM     16  C   UNL     1       0.035   1.466   0.032  0.00  0.00    +0.419 C 
ATOM     17  F   UNL     1       0.038   0.067   0.010  0.00  0.00    -0.166 F 
ATOM     18  F   UNL     1       1.353   1.935   0.034  0.00  0.00    -0.166 F 
ATOM     19  F   UNL     1      -0.630   1.949  -1.100  0.00  0.00    -0.166 F 
ENDBRANCH  12  16
ENDBRANCH   6   9
ENDBRANCH   1   3
BRANCH   1  20
ATOM     20  O   UNL     1      -5.297   3.164   9.097  0.00  0.00    -0.455 OA
BRANCH  20  21
ATOM     21  C   UNL     1      -5.945   3.838  10.207  0.00  0.00    +0.328 C 
BRANCH  21  23
ATOM     22  N   UNL     1      -6.333   3.433  12.616  0.00  0.00    -0.281 N 
ATOM     23  C   UNL     1      -5.804   3.002  11.453  0.00  0.00    +0.255 C 
ATOM     24  O   UNL     1      -5.216   1.943  11.410  0.00  0.00    -0.272 OA
ATOM     25  H   UNL     1      -6.747   4.308  12.666  0.00  0.00    +0.155 HD
BRANCH  22  29
ATOM     26  C   UNL     1      -6.188   1.001  15.997  0.00  0.00    +0.022 A 
ATOM     27  C   UNL     1      -7.286   1.812  15.776  0.00  0.00    +0.036 A 
ATOM     28  C   UNL     1      -7.337   2.618  14.657  0.00  0.00    +0.147 A 
ATOM     29  C   UNL     1      -6.284   2.616  13.752  0.00  0.00    +0.065 A 
ATOM     30  C   UNL     1      -5.184   1.797  13.972  0.00  0.00    +0.045 A 
ATOM     31  C   UNL     1      -5.136   0.995  15.097  0.00  0.00    +0.043 A 
ATOM     32 CL   UNL     1      -3.759  -0.024  15.379  0.00  0.00    -0.083 Cl
BRANCH  28  33
ATOM     33  N   UNL     1      -8.514   3.485  14.421  0.00  0.00    +0.058 N 
ATOM     34  O   UNL     1      -9.391   3.563  15.263  0.00  0.00    -0.126 OA
ATOM     35  O   UNL     1      -8.605   4.120  13.386  0.00  0.00    -0.126 OA
ENDBRANCH  28  33
ENDBRANCH  22  29
ENDBRANCH  21  23
ENDBRANCH  20  21
ENDBRANCH   1  20
TORSDOF 8
