REMARK  Name = ZINC02977962
REMARK  7 active torsions:
REMARK  status: ('A' for Active; 'I' for Inactive)
REMARK    1  A    between atoms: C_1  and  C_2
REMARK    2  A    between atoms: C_5  and  C_8
REMARK    3  A    between atoms: C_8  and  S_9
REMARK    4  A    between atoms: S_9  and  C_10
REMARK    5  A    between atoms: C_23  and  C_26
REMARK    6  A    between atoms: C_35  and  O_36
REMARK    7  A    between atoms: O_36  and  C_37
REMARK                            x       y       z     vdW  Elec       q    Type
REMARK                         _______ _______ _______ _____ _____    ______ ____
ROOT
ATOM      1  C   UNL     1       1.740   2.138   4.431  0.00  0.00    +0.213 A 
ATOM      2  N   UNL     1       2.098   2.473   3.194  0.00  0.00    -0.184 NA
ATOM      3  C   UNL     1       1.936   1.599   2.215  0.00  0.00    +0.248 A 
ATOM      4  C   UNL     1       1.381   0.335   2.517  0.00  0.00    +0.156 A 
ATOM      5  N   UNL     1       1.047   0.064   3.770  0.00  0.00    -0.141 NA
ATOM      6  N   UNL     1       1.225   0.944   4.694  0.00  0.00    -0.122 NA
ATOM      7  C   UNL     1       1.183  -0.653   1.436  0.00  0.00    +0.028 A 
ATOM      8  C   UNL     1       1.573  -1.978   1.582  0.00  0.00    +0.012 A 
ATOM      9  C   UNL     1       1.341  -2.878   0.560  0.00  0.00    +0.001 A 
ATOM     10  C   UNL     1       0.723  -2.467  -0.609  0.00  0.00    +0.002 A 
ATOM     11  C   UNL     1       0.336  -1.149  -0.770  0.00  0.00    +0.024 A 
ATOM     12  C   UNL     1       0.566  -0.235   0.242  0.00  0.00    +0.039 A 
ATOM     13  N   UNL     1       0.201   1.108   0.108  0.00  0.00    -0.305 N 
ATOM     14  C   UNL     1       1.253   2.114   0.002  0.00  0.00    +0.298 C 
ATOM     15  O   UNL     1       2.296   1.890   0.943  0.00  0.00    -0.449 OA
ATOM     16  H   UNL     1      -0.734   1.365   0.082  0.00  0.00    +0.150 HD
ENDROOT
BRANCH  14  17
ATOM     17  C   UNL     1       1.830   2.076  -1.390  0.00  0.00    +0.060 A 
ATOM     18  C   UNL     1       1.434   3.027  -2.345  0.00  0.00    -0.006 A 
ATOM     19  C   UNL     1       0.499   4.029  -2.032  0.00  0.00    +0.009 A 
ATOM     20  C   UNL     1       0.138   4.934  -2.983  0.00  0.00    +0.001 A 
ATOM     21  C   UNL     1       0.682   4.883  -4.265  0.00  0.00    +0.001 A 
ATOM     22  C   UNL     1       1.590   3.927  -4.604  0.00  0.00    +0.008 A 
ATOM     23  C   UNL     1       1.987   2.976  -3.649  0.00  0.00    -0.017 A 
ATOM     24  C   UNL     1       2.923   1.975  -3.964  0.00  0.00    +0.012 A 
ATOM     25  C   UNL     1       3.286   1.069  -3.017  0.00  0.00    +0.047 A 
ATOM     26  C   UNL     1       2.745   1.121  -1.728  0.00  0.00    +0.129 A 
BRANCH  26  27
ATOM     27  O   UNL     1       3.132   0.205  -0.801  0.00  0.00    -0.495 OA
ATOM     28  C   UNL     1       4.092  -0.770  -1.214  0.00  0.00    +0.277 C 
ENDBRANCH  26  27
ENDBRANCH  14  17
BRANCH   1  29
ATOM     29  S   UNL     1       1.953   3.298   5.739  0.00  0.00    -0.080 S 
BRANCH  29  30
ATOM     30  C   UNL     1       1.318   2.326   7.128  0.00  0.00    +0.112 C 
BRANCH  30  35
ATOM     31  C   UNL     1       1.649   5.450  11.977  0.00  0.00    +0.044 C 
ATOM     32  C   UNL     1       1.563   4.635  10.713  0.00  0.00    -0.050 A 
ATOM     33  C   UNL     1       0.424   4.692   9.931  0.00  0.00    +0.003 A 
ATOM     34  C   UNL     1       0.345   3.944   8.771  0.00  0.00    +0.005 A 
ATOM     35  C   UNL     1       1.405   3.141   8.393  0.00  0.00    -0.037 A 
ATOM     36  C   UNL     1       2.541   3.080   9.177  0.00  0.00    +0.005 A 
ATOM     37  C   UNL     1       2.622   3.831  10.335  0.00  0.00    +0.003 A 
ENDBRANCH  30  35
ENDBRANCH  29  30
ENDBRANCH   1  29
TORSDOF 5
