REMARK  Name = ZINC13065137
REMARK  13 active torsions:
REMARK  status: ('A' for Active; 'I' for Inactive)
REMARK    1  A    between atoms: C_1  and  C_2
REMARK    2  A    between atoms: C_2  and  C_3
REMARK    3  A    between atoms: C_3  and  C_5
REMARK    4  A    between atoms: C_3  and  N_71
REMARK    5  A    between atoms: N_9  and  C_10
REMARK    6  A    between atoms: C_10  and  C_11
REMARK    7  A    between atoms: C_11  and  C_12
REMARK    8  A    between atoms: C_18  and  C_19
REMARK    9  A    between atoms: C_18  and  N_71
REMARK   10  A    between atoms: C_25  and  C_26
REMARK   11  A    between atoms: C_25  and  N_71
REMARK   12  A    between atoms: C_31  and  C_39
REMARK   13  A    between atoms: C_32  and  C_38
REMARK                            x       y       z     vdW  Elec       q    Type
REMARK                         _______ _______ _______ _____ _____    ______ ____
ROOT
ATOM      1  N   UNL     1       3.013   0.689  -1.490  0.00  0.00    +0.392 N 
ATOM      2  H   UNL     1       3.160   1.677  -1.725  0.00  0.00    -0.080 HD
ENDROOT
BRANCH   1   3
ATOM      3  C   UNL     1       1.927   0.151  -2.337  0.00  0.00    +0.003 C 
BRANCH   3   4
ATOM      4  C   UNL     1       1.807  -1.341  -2.160  0.00  0.00    +0.138 A 
ATOM      5  N   UNL     1       2.793  -2.197  -2.055  0.00  0.00    -0.115 NA
ATOM      6  N   UNL     1       2.286  -3.373  -1.916  0.00  0.00    -0.023 NA
ATOM      7  N   UNL     1       1.001  -3.289  -1.930  0.00  0.00    -0.044 NA
ATOM      8  N   UNL     1       0.667  -2.051  -2.073  0.00  0.00    -0.231 N 
BRANCH   8   9
ATOM      9  C   UNL     1      -0.696  -1.519  -2.134  0.00  0.00    +0.152 C 
BRANCH   9  10
ATOM     10  C   UNL     1      -1.201  -1.573  -3.577  0.00  0.00    +0.058 C 
BRANCH  10  11
ATOM     11  C   UNL     1      -2.604  -1.026  -3.640  0.00  0.00    -0.046 A 
ATOM     12  C   UNL     1      -3.684  -1.874  -3.480  0.00  0.00    +0.004 A 
ATOM     13  C   UNL     1      -4.971  -1.371  -3.532  0.00  0.00    +0.000 A 
ATOM     14  C   UNL     1      -5.177  -0.022  -3.755  0.00  0.00    +0.000 A 
ATOM     15  C   UNL     1      -4.097   0.824  -3.920  0.00  0.00    +0.000 A 
ATOM     16  C   UNL     1      -2.810   0.322  -3.863  0.00  0.00    +0.004 A 
ENDBRANCH  10  11
ENDBRANCH   9  10
ENDBRANCH   8   9
ENDBRANCH   3   4
BRANCH   3  18
ATOM     17  C   UNL     1       2.222   1.983  -4.010  0.00  0.00    +0.002 C 
ATOM     18  C   UNL     1       2.240   0.468  -3.801  0.00  0.00    -0.011 C 
ENDBRANCH   3  18
ENDBRANCH   1   3
BRANCH   1  19
ATOM     19  C   UNL     1       2.639   0.584  -0.064  0.00  0.00    -0.040 C 
BRANCH  19  20
ATOM     20  C   UNL     1       1.612   1.642   0.246  0.00  0.00    -0.046 A 
ATOM     21  C   UNL     1       0.261   1.330   0.246  0.00  0.00    +0.005 A 
ATOM     22  C   UNL     1      -0.648   2.337   0.532  0.00  0.00    +0.020 A 
ATOM     23  C   UNL     1      -0.181   3.606   0.816  0.00  0.00    +0.111 A 
ATOM     24  N   UNL     1       1.111   3.867   0.807  0.00  0.00    -0.263 NA
ATOM     25  C   UNL     1       2.005   2.936   0.534  0.00  0.00    +0.112 A 
ENDBRANCH  19  20
ENDBRANCH   1  19
BRANCH   1  26
ATOM     26  C   UNL     1       4.264  -0.057  -1.741  0.00  0.00    -0.036 C 
BRANCH  26  27
ATOM     27  C   UNL     1       5.426   0.776  -1.264  0.00  0.00    +0.001 A 
ATOM     28  C   UNL     1       5.936   0.576  -0.023  0.00  0.00    +0.017 A 
ATOM     29  C   UNL     1       7.067   1.399   0.409  0.00  0.00    -0.001 A 
ATOM     30  C   UNL     1       7.639   1.236   1.675  0.00  0.00    +0.010 A 
ATOM     31  C   UNL     1       8.691   2.023   2.049  0.00  0.00    +0.004 A 
ATOM     32  C   UNL     1       9.197   2.984   1.185  0.00  0.00    -0.046 A 
ATOM     33  C   UNL     1       8.649   3.162  -0.067  0.00  0.00    -0.024 A 
ATOM     34  C   UNL     1       7.578   2.373  -0.471  0.00  0.00    +0.052 A 
ATOM     35  N   UNL     1       7.011   2.529  -1.718  0.00  0.00    -0.322 N 
ATOM     36  H   UNL     1       7.364   3.200  -2.322  0.00  0.00    +0.169 HD
ATOM     37  C   UNL     1       5.975   1.766  -2.107  0.00  0.00    +0.251 A 
ATOM     38  O   UNL     1       5.499   1.932  -3.217  0.00  0.00    -0.268 OA
ATOM     39  C   UNL     1       9.210   4.209  -0.996  0.00  0.00    +0.046 C 
ATOM     40  C   UNL     1      10.358   3.841   1.620  0.00  0.00    +0.044 C 
ENDBRANCH  26  27
ENDBRANCH   1  26
TORSDOF 10
