REMARK  Name = ZINC39425908
REMARK  10 active torsions:
REMARK  status: ('A' for Active; 'I' for Inactive)
REMARK    1  A    between atoms: C_1  and  O_2
REMARK    2  A    between atoms: O_2  and  C_3
REMARK    3  A    between atoms: C_6  and  C_11
REMARK    4  A    between atoms: C_8  and  O_9
REMARK    5  A    between atoms: O_9  and  C_10
REMARK    6  A    between atoms: C_14  and  C_33
REMARK    7  A    between atoms: C_17  and  C_19
REMARK    8  A    between atoms: C_19  and  O_20
REMARK    9  A    between atoms: O_20  and  C_21
REMARK   10  A    between atoms: C_21  and  C_23
REMARK                            x       y       z     vdW  Elec       q    Type
REMARK                         _______ _______ _______ _____ _____    ______ ____
ROOT
ATOM      1  C   UNL     1       2.507  -2.501  -4.386  0.00  0.00    +0.137 C 
ATOM      2  C   UNL     1       1.587  -2.475  -5.622  0.00  0.00    +0.087 C 
ATOM      3  C   UNL     1       2.364  -1.672  -6.640  0.00  0.00    +0.075 C 
ATOM      4  N   UNL     1       3.491  -1.303  -6.128  0.00  0.00    -0.180 NA
ATOM      5  N   UNL     1       3.687  -1.732  -4.813  0.00  0.00    -0.182 N 
ATOM      6  C   UNL     1       4.775  -1.482  -4.058  0.00  0.00    +0.273 C 
ATOM      7  O   UNL     1       4.836  -1.906  -2.923  0.00  0.00    -0.270 OA
ENDROOT
BRANCH   1  11
ATOM      8  C   UNL     1       0.606  -0.608  -1.056  0.00  0.00    +0.162 A 
ATOM      9  C   UNL     1       1.173   0.159  -2.062  0.00  0.00    +0.050 A 
ATOM     10  C   UNL     1       1.787  -0.456  -3.137  0.00  0.00    +0.009 A 
ATOM     11  C   UNL     1       1.837  -1.836  -3.212  0.00  0.00    -0.021 A 
ATOM     12  C   UNL     1       1.273  -2.606  -2.212  0.00  0.00    +0.055 A 
ATOM     13  C   UNL     1       0.662  -1.996  -1.129  0.00  0.00    +0.162 A 
BRANCH   8  15
ATOM     14  C   UNL     1      -0.017   1.425   0.010  0.00  0.00    +0.277 C 
ATOM     15  O   UNL     1       0.002  -0.004   0.002  0.00  0.00    -0.491 OA
ENDBRANCH   8  15
BRANCH  13  16
ATOM     16  O   UNL     1       0.112  -2.753  -0.142  0.00  0.00    -0.491 OA
ATOM     17  C   UNL     1       0.206  -4.171  -0.283  0.00  0.00    +0.277 C 
ENDBRANCH  13  16
ENDBRANCH   1  11
BRANCH   3  18
ATOM     18  C   UNL     1       1.910  -1.360  -7.999  0.00  0.00    +0.035 A 
ATOM     19  C   UNL     1       2.554  -0.642  -8.992  0.00  0.00    +0.017 A 
ATOM     20  C   UNL     1       1.918  -0.481 -10.200  0.00  0.00    +0.008 A 
ATOM     21  C   UNL     1       0.687  -1.028 -10.382  0.00  0.00    +0.046 A 
ATOM     22  S   UNL     1       0.385  -1.815  -8.808  0.00  0.00    -0.095 S 
ENDBRANCH   3  18
BRANCH   6  23
ATOM     23  C   UNL     1       5.916  -0.677  -4.623  0.00  0.00    +0.329 C 
BRANCH  23  24
ATOM     24  O   UNL     1       6.944  -0.550  -3.639  0.00  0.00    -0.453 OA
BRANCH  24  25
ATOM     25  C   UNL     1       8.039   0.144  -3.986  0.00  0.00    +0.334 C 
ATOM     26  O   UNL     1       8.122   0.629  -5.090  0.00  0.00    -0.248 OA
BRANCH  25  27
ATOM     27  C   UNL     1       9.164   0.320  -2.999  0.00  0.00    +0.213 C 
ATOM     28  C   UNL     1       8.682   1.089  -1.790  0.00  0.00    +0.018 C 
ATOM     29  C   UNL     1       9.430   2.216  -1.740  0.00  0.00    -0.003 A 
ATOM     30  C   UNL     1       9.448   3.356  -0.815  0.00  0.00    +0.010 A 
ATOM     31  C   UNL     1      10.331   4.358  -1.028  0.00  0.00    +0.001 A 
ATOM     32  C   UNL     1      11.226   4.335  -2.107  0.00  0.00    +0.002 A 
ATOM     33  C   UNL     1      11.269   3.322  -2.998  0.00  0.00    +0.026 A 
ATOM     34  C   UNL     1      10.385   2.215  -2.870  0.00  0.00    +0.043 A 
ATOM     35  N   UNL     1      10.235   1.130  -3.592  0.00  0.00    -0.369 N 
ATOM     36  H   UNL     1      10.745   0.901  -4.385  0.00  0.00    +0.161 HD
ENDBRANCH  25  27
ENDBRANCH  24  25
ENDBRANCH  23  24
ENDBRANCH   6  23
TORSDOF 8
