REMARK  Name = ZINC60033326
REMARK  10 active torsions:
REMARK  status: ('A' for Active; 'I' for Inactive)
REMARK    1  A    between atoms: C_1  and  C_2
REMARK    2  A    between atoms: C_2  and  C_3
REMARK    3  A    between atoms: C_3  and  C_4
REMARK    4  A    between atoms: C_4  and  N_5
REMARK    5  A    between atoms: C_6  and  C_8
REMARK    6  A    between atoms: C_12  and  C_33
REMARK    7  A    between atoms: C_16  and  C_18
REMARK    8  A    between atoms: C_18  and  C_19
REMARK    9  A    between atoms: C_22  and  S_24
REMARK   10  A    between atoms: S_24  and  N_27
REMARK                            x       y       z     vdW  Elec       q    Type
REMARK                         _______ _______ _______ _____ _____    ______ ____
ROOT
ATOM      1  C   UNL     1      -4.507  -4.364   0.058  0.00  0.00    +0.092 C 
ATOM      2  C   UNL     1      -4.333  -5.884   0.047  0.00  0.00    +0.016 C 
ATOM      3  C   UNL     1      -5.707  -6.556  -0.023  0.00  0.00    +0.023 C 
ATOM      4  C   UNL     1      -6.522  -6.171   1.216  0.00  0.00    +0.073 C 
ATOM      5  N   UNL     1      -6.571  -4.706   1.313  0.00  0.00    -0.298 N 
ATOM      6  C   UNL     1      -5.309  -3.954   1.297  0.00  0.00    +0.120 C 
ATOM      7  C   UNL     1      -7.752  -4.064   1.416  0.00  0.00    +0.221 C 
ATOM      8  O   UNL     1      -8.779  -4.698   1.532  0.00  0.00    -0.275 OA
ATOM      9  C   UNL     1      -7.942  -6.728   1.088  0.00  0.00    +0.028 C 
ENDROOT
BRANCH   1  11
ATOM     10  N   UNL     1      -3.059  -2.359   0.111  0.00  0.00    -0.315 N 
ATOM     11  C   UNL     1      -3.153  -3.703   0.094  0.00  0.00    +0.218 C 
ATOM     12  O   UNL     1      -2.148  -4.381   0.109  0.00  0.00    -0.275 OA
ATOM     13  H   UNL     1      -3.864  -1.816   0.100  0.00  0.00    +0.149 HD
BRANCH  10  14
ATOM     14  C   UNL     1      -1.743  -1.716   0.146  0.00  0.00    +0.104 C 
BRANCH  14  15
ATOM     15  C   UNL     1      -1.918  -0.197   0.159  0.00  0.00    +0.018 C 
BRANCH  15  17
ATOM     16  C   UNL     1      -0.717   1.994   0.208  0.00  0.00    +0.004 C 
ATOM     17  C   UNL     1      -0.543   0.474   0.196  0.00  0.00    -0.002 C 
ENDBRANCH  15  17
ENDBRANCH  14  15
ENDBRANCH  10  14
ENDBRANCH   1  11
BRANCH   7  18
ATOM     18  C   UNL     1      -7.795  -2.558   1.386  0.00  0.00    +0.138 C 
BRANCH  18  19
ATOM     19  C   UNL     1      -9.223  -2.094   1.517  0.00  0.00    +0.000 A 
ATOM     20  C   UNL     1      -9.926  -1.802   2.639  0.00  0.00    +0.013 A 
ATOM     21  C   UNL     1     -11.240  -1.389   2.518  0.00  0.00    +0.036 A 
ATOM     22  C   UNL     1     -11.786  -1.287   1.281  0.00  0.00    +0.143 A 
ATOM     23  S   UNL     1     -10.425  -1.778   0.235  0.00  0.00    -0.073 S 
BRANCH  22  24
ATOM     24  S   UNL     1     -13.414  -0.793   0.824  0.00  0.00    +0.067 S 
ATOM     25  O   UNL     1     -13.670  -1.367  -0.451  0.00  0.00    -0.152 OA
ATOM     26  O   UNL     1     -14.244  -1.040   1.951  0.00  0.00    -0.152 OA
BRANCH  24  27
ATOM     27  N   UNL     1     -13.385   0.848   0.608  0.00  0.00    -0.176 NA
ATOM     28  C   UNL     1     -13.658   1.756   1.730  0.00  0.00    +0.109 C 
ATOM     29  C   UNL     1     -12.500   2.752   1.851  0.00  0.00    +0.017 C 
ATOM     30  C   UNL     1     -12.296   3.457   0.508  0.00  0.00    +0.003 C 
ATOM     31  C   UNL     1     -11.935   2.424  -0.562  0.00  0.00    +0.017 C 
ATOM     32  C   UNL     1     -13.080   1.425  -0.709  0.00  0.00    +0.109 C 
ENDBRANCH  24  27
ENDBRANCH  22  24
ENDBRANCH  18  19
ENDBRANCH   7  18
TORSDOF 8
