REMARK  Name = ZINC63384886
REMARK  11 active torsions:
REMARK  status: ('A' for Active; 'I' for Inactive)
REMARK    1  A    between atoms: C_1  and  C_2
REMARK    2  A    between atoms: C_3  and  O_34
REMARK    3  A    between atoms: C_11  and  C_16
REMARK    4  A    between atoms: C_13  and  C_15
REMARK    5  A    between atoms: C_16  and  C_17
REMARK    6  A    between atoms: C_17  and  C_18
REMARK    7  A    between atoms: N_20  and  C_21
REMARK    8  A    between atoms: C_21  and  C_22
REMARK    9  A    between atoms: C_22  and  C_23
REMARK   10  A    between atoms: C_26  and  O_32
REMARK   11  A    between atoms: O_32  and  C_33
REMARK                            x       y       z     vdW  Elec       q    Type
REMARK                         _______ _______ _______ _____ _____    ______ ____
ROOT
ATOM      1  C   UNL     1      -3.922  -0.982   4.734  0.00  0.00    +0.213 C 
ATOM      2  O   UNL     1      -4.537  -1.472   3.811  0.00  0.00    -0.276 OA
ATOM      3  N   UNL     1      -4.580  -0.320   5.706  0.00  0.00    -0.315 N 
ATOM      4  H   UNL     1      -4.088   0.072   6.445  0.00  0.00    +0.149 HD
ENDROOT
BRANCH   1   5
ATOM      5  C   UNL     1      -2.421  -1.112   4.793  0.00  0.00    +0.096 C 
BRANCH   5   6
ATOM      6  C   UNL     1      -1.929  -1.902   3.579  0.00  0.00    +0.024 C 
BRANCH   6  17
ATOM      7  C   UNL     1      -0.018   1.503   0.010  0.00  0.00    +0.051 C 
ATOM      8  C   UNL     1       0.002  -0.004   0.002  0.00  0.00    +0.034 A 
ATOM      9  C   UNL     1       0.006  -0.688  -1.202  0.00  0.00    +0.123 A 
ATOM     10  C   UNL     1       0.026  -2.075  -1.207  0.00  0.00    +0.046 A 
ATOM     11  C   UNL     1       0.046  -2.768  -0.013  0.00  0.00    +0.011 A 
ATOM     12  C   UNL     1       0.044  -2.088   1.194  0.00  0.00    -0.001 A 
ATOM     13  C   UNL     1       0.023  -0.704   1.203  0.00  0.00    +0.141 A 
ATOM     14  O   UNL     1       0.005   0.007   2.364  0.00  0.00    -0.425 OA
ATOM     15  C   UNL     1       0.234  -0.666   3.509  0.00  0.00    +0.316 C 
ATOM     16  O   UNL     1       0.917  -0.201   4.390  0.00  0.00    -0.250 OA
ATOM     17  C   UNL     1      -0.406  -2.034   3.639  0.00  0.00    +0.106 C 
ATOM     18  C   UNL     1       0.077  -2.890   2.471  0.00  0.00    +0.033 C 
ATOM     19  C   UNL     1      -0.820  -4.120   2.321  0.00  0.00    +0.013 C 
BRANCH   9  20
ATOM     20  O   UNL     1      -0.011  -0.003  -2.376  0.00  0.00    -0.506 OA
ATOM     21  H   UNL     1       0.868   0.209  -2.720  0.00  0.00    +0.292 HD
ENDBRANCH   9  20
ENDBRANCH   6  17
ENDBRANCH   5   6
ENDBRANCH   1   5
BRANCH   3  22
ATOM     22  C   UNL     1      -6.038  -0.194   5.649  0.00  0.00    +0.108 C 
BRANCH  22  23
ATOM     23  C   UNL     1      -6.530   0.596   6.863  0.00  0.00    +0.052 C 
BRANCH  23  24
ATOM     24  C   UNL     1      -8.030   0.726   6.804  0.00  0.00    -0.040 C 
ATOM     25  C   UNL     1      -8.940  -0.069   7.412  0.00  0.00    +0.002 A 
ATOM     26  C   UNL     1      -8.812  -1.247   8.276  0.00  0.00    +0.055 A 
ATOM     27  C   UNL     1      -9.929  -1.852   8.748  0.00  0.00    +0.121 A 
ATOM     28  C   UNL     1     -11.220  -1.390   8.440  0.00  0.00    +0.047 A 
ATOM     29  C   UNL     1     -11.439  -0.315   7.652  0.00  0.00    +0.029 A 
ATOM     30  C   UNL     1     -10.301   0.416   7.087  0.00  0.00    +0.043 A 
ATOM     31  N   UNL     1     -10.236   1.468   6.310  0.00  0.00    -0.380 N 
ATOM     32  C   UNL     1      -8.823   1.776   6.057  0.00  0.00    +0.144 C 
ATOM     33  H   UNL     1     -10.994   1.964   5.962  0.00  0.00    +0.160 HD
BRANCH  27  34
ATOM     34  O   UNL     1      -9.795  -2.943   9.548  0.00  0.00    -0.495 OA
ATOM     35  C   UNL     1     -10.999  -3.549  10.024  0.00  0.00    +0.277 C 
ENDBRANCH  27  34
ENDBRANCH  23  24
ENDBRANCH  22  23
ENDBRANCH   3  22
TORSDOF 8
