REMARK  Name = ZINC13500063
REMARK  11 active torsions:
REMARK  status: ('A' for Active; 'I' for Inactive)
REMARK    1  A    between atoms: C_1  and  C_2
REMARK    2  A    between atoms: C_2  and  C_3
REMARK    3  A    between atoms: C_3  and  C_4
REMARK    4  A    between atoms: C_4  and  C_6
REMARK    5  A    between atoms: C_4  and  N_72
REMARK    6  A    between atoms: N_10  and  C_11
REMARK    7  A    between atoms: C_16  and  C_17
REMARK    8  A    between atoms: C_16  and  N_72
REMARK    9  A    between atoms: C_21  and  C_30
REMARK   10  A    between atoms: C_23  and  C_29
REMARK   11  A    between atoms: C_31  and  N_72
REMARK                            x       y       z     vdW  Elec       q    Type
REMARK                         _______ _______ _______ _____ _____    ______ ____
ROOT
ATOM      1  N   UNL     1      -0.455  -2.317  -1.202  0.00  0.00    +0.391 N 
ATOM      2  H   UNL     1      -0.774  -3.186  -0.758  0.00  0.00    -0.080 HD
ENDROOT
BRANCH   1   3
ATOM      3  C   UNL     1      -1.214  -2.110  -2.453  0.00  0.00    -0.067 C 
ATOM      4  C   UNL     1      -1.016  -3.326  -3.382  0.00  0.00    -0.015 C 
ATOM      5  C   UNL     1      -0.975  -2.713  -4.805  0.00  0.00    -0.002 C 
ATOM      6  C   UNL     1      -0.196  -1.392  -4.587  0.00  0.00    -0.002 C 
ATOM      7  C   UNL     1      -0.693  -0.881  -3.219  0.00  0.00    -0.015 C 
ENDBRANCH   1   3
BRANCH   1   8
ATOM      8  C   UNL     1       0.988  -2.433  -1.500  0.00  0.00    +0.003 C 
BRANCH   8   9
ATOM      9  C   UNL     1       1.627  -1.069  -1.548  0.00  0.00    +0.138 A 
ATOM     10  N   UNL     1       1.332  -0.039  -0.793  0.00  0.00    -0.115 NA
ATOM     11  N   UNL     1       2.096   0.939  -1.137  0.00  0.00    -0.023 NA
ATOM     12  N   UNL     1       2.865   0.563  -2.098  0.00  0.00    -0.044 NA
ATOM     13  N   UNL     1       2.606  -0.669  -2.381  0.00  0.00    -0.228 N 
BRANCH  13  14
ATOM     14  C   UNL     1       3.257  -1.481  -3.412  0.00  0.00    +0.111 C 
ATOM     15  C   UNL     1       4.777  -1.538  -3.159  0.00  0.00    +0.027 C 
ATOM     16  C   UNL     1       5.399  -1.502  -4.578  0.00  0.00    +0.002 C 
ATOM     17  C   UNL     1       4.474  -0.515  -5.332  0.00  0.00    +0.002 C 
ATOM     18  C   UNL     1       3.064  -0.831  -4.794  0.00  0.00    +0.027 C 
ENDBRANCH  13  14
ENDBRANCH   8   9
BRANCH   8  19
ATOM     19  C   UNL     1       1.648  -3.266  -0.399  0.00  0.00    -0.008 C 
BRANCH  19  21
ATOM     20  C   UNL     1       1.861  -5.561   0.566  0.00  0.00    +0.004 C 
ATOM     21  C   UNL     1       1.114  -4.698  -0.453  0.00  0.00    -0.005 C 
ENDBRANCH  19  21
ENDBRANCH   8  19
ENDBRANCH   1   8
BRANCH   1  22
ATOM     22  C   UNL     1      -0.690  -1.189  -0.276  0.00  0.00    -0.036 C 
BRANCH  22  23
ATOM     23  C   UNL     1      -2.056  -1.348   0.342  0.00  0.00    +0.001 A 
ATOM     24  C   UNL     1      -2.187  -1.961   1.544  0.00  0.00    +0.017 A 
ATOM     25  C   UNL     1      -3.527  -2.099   2.116  0.00  0.00    -0.001 A 
ATOM     26  C   UNL     1      -3.725  -2.722   3.353  0.00  0.00    +0.013 A 
ATOM     27  C   UNL     1      -4.988  -2.835   3.860  0.00  0.00    -0.050 A 
ATOM     28  C   UNL     1      -6.078  -2.337   3.158  0.00  0.00    +0.008 A 
ATOM     29  C   UNL     1      -5.907  -1.720   1.938  0.00  0.00    -0.026 A 
ATOM     30  C   UNL     1      -4.629  -1.594   1.402  0.00  0.00    +0.052 A 
ATOM     31  N   UNL     1      -4.429  -0.981   0.184  0.00  0.00    -0.322 N 
ATOM     32  H   UNL     1      -5.190  -0.633  -0.307  0.00  0.00    +0.169 HD
ATOM     33  C   UNL     1      -3.193  -0.853  -0.332  0.00  0.00    +0.251 A 
ATOM     34  O   UNL     1      -3.053  -0.301  -1.409  0.00  0.00    -0.268 OA
ATOM     35  C   UNL     1      -7.099  -1.185   1.188  0.00  0.00    +0.046 C 
ATOM     36  C   UNL     1      -5.201  -3.506   5.193  0.00  0.00    +0.044 C 
ENDBRANCH  22  23
ENDBRANCH   1  22
TORSDOF 8
