REMARK  Name = ZINC13215515
REMARK  8 active torsions:
REMARK  status: ('A' for Active; 'I' for Inactive)
REMARK    1  A    between atoms: C_1  and  C_2
REMARK    2  A    between atoms: C_5  and  C_35
REMARK    3  A    between atoms: C_7  and  N_8
REMARK    4  A    between atoms: C_9  and  C_25
REMARK    5  A    between atoms: C_11  and  C_16
REMARK    6  A    between atoms: C_16  and  C_18
REMARK    7  A    between atoms: C_28  and  C_34
REMARK    8  A    between atoms: C_29  and  N_31
REMARK                            x       y       z     vdW  Elec       q    Type
REMARK                         _______ _______ _______ _____ _____    ______ ____
ROOT
ATOM      1  N   UNL     1       0.274   0.807   2.765  0.00  0.00    -0.253 N 
ATOM      2  C   UNL     1      -0.995   0.519   3.445  0.00  0.00    +0.150 C 
ATOM      3  C   UNL     1      -0.776   0.852   4.903  0.00  0.00    +0.077 C 
ATOM      4  C   UNL     1       0.501   1.287   5.017  0.00  0.00    +0.250 C 
ATOM      5  C   UNL     1       1.146   1.251   3.688  0.00  0.00    +0.292 C 
ATOM      6  O   UNL     1       2.295   1.576   3.462  0.00  0.00    -0.266 OA
ATOM      7  O   UNL     1       1.093   1.686   6.166  0.00  0.00    -0.282 OA
ENDROOT
BRANCH   1  14
ATOM      8  C   UNL     1      -0.091   3.049   1.058  0.00  0.00    +0.045 C 
ATOM      9  C   UNL     1       0.366   1.714   0.530  0.00  0.00    -0.029 A 
ATOM     10  C   UNL     1       0.625   1.560  -0.820  0.00  0.00    +0.006 A 
ATOM     11  C   UNL     1       1.043   0.341  -1.312  0.00  0.00    +0.015 A 
ATOM     12  C   UNL     1       1.207  -0.744  -0.446  0.00  0.00    +0.065 A 
ATOM     13  C   UNL     1       0.946  -0.588   0.917  0.00  0.00    +0.039 A 
ATOM     14  C   UNL     1       0.531   0.643   1.401  0.00  0.00    +0.041 A 
BRANCH  12  15
ATOM     15  C   UNL     1       1.654  -2.049  -0.969  0.00  0.00    +0.387 C 
ATOM     16  O   UNL     1       1.882  -2.183  -2.163  0.00  0.00    -0.241 OA
ATOM     17  O   UNL     1       1.797  -2.996  -0.209  0.00  0.00    -0.241 OA
ENDBRANCH  12  15
ENDBRANCH   1  14
BRANCH   2  18
ATOM     18  C   UNL     1      -2.095   1.376   2.875  0.00  0.00    -0.020 A 
ATOM     19  C   UNL     1      -2.665   2.372   3.646  0.00  0.00    +0.006 A 
ATOM     20  C   UNL     1      -3.674   3.159   3.123  0.00  0.00    +0.006 A 
ATOM     21  C   UNL     1      -4.113   2.950   1.829  0.00  0.00    -0.020 A 
ATOM     22  C   UNL     1      -3.542   1.955   1.058  0.00  0.00    +0.129 A 
ATOM     23  C   UNL     1      -2.530   1.171   1.579  0.00  0.00    +0.038 A 
ATOM     24  C   UNL     1      -5.214   3.807   1.259  0.00  0.00    +0.046 C 
BRANCH  22  25
ATOM     25  N   UNL     1      -4.013   1.731  -0.328  0.00  0.00    +0.057 N 
ATOM     26  O   UNL     1      -4.088   0.607  -0.766  0.00  0.00    -0.126 OA
ATOM     27  O   UNL     1      -4.321   2.672  -1.021  0.00  0.00    -0.126 OA
ENDBRANCH  22  25
ENDBRANCH   2  18
BRANCH   3  28
ATOM     28  C   UNL     1      -1.758   0.730   5.984  0.00  0.00    +0.195 C 
ATOM     29  O   UNL     1      -2.075   1.710   6.632  0.00  0.00    -0.287 OA
BRANCH  28  30
ATOM     30  C   UNL     1      -2.364  -0.583   6.287  0.00  0.00    +0.022 A 
ATOM     31  C   UNL     1      -1.905  -1.733   5.640  0.00  0.00    +0.014 A 
ATOM     32  C   UNL     1      -2.473  -2.955   5.927  0.00  0.00    +0.039 A 
ATOM     33  C   UNL     1      -3.498  -3.046   6.856  0.00  0.00    +0.123 A 
ATOM     34  C   UNL     1      -3.958  -1.907   7.502  0.00  0.00    +0.039 A 
ATOM     35  C   UNL     1      -3.393  -0.681   7.227  0.00  0.00    +0.014 A 
ATOM     36  F   UNL     1      -4.051  -4.247   7.134  0.00  0.00    -0.205 F 
ENDBRANCH  28  30
ENDBRANCH   3  28
TORSDOF 6
