REMARK  Name = ZINC39977208
REMARK  4 active torsions:
REMARK  status: ('A' for Active; 'I' for Inactive)
REMARK    1  A    between atoms: N_7  and  S_8
REMARK    2  A    between atoms: S_8  and  C_11
REMARK    3  A    between atoms: C_18  and  N_23
REMARK    4  A    between atoms: N_23  and  C_24
REMARK                            x       y       z     vdW  Elec       q    Type
REMARK                         _______ _______ _______ _____ _____    ______ ____
ROOT
ATOM      1  C   UNL     1      -0.273   1.098   0.323  0.00  0.00    +0.002 A 
ATOM      2  C   UNL     1       0.836   1.950   0.197  0.00  0.00    +0.002 A 
ATOM      3  C   UNL     1       2.098   1.491   0.051  0.00  0.00    +0.030 A 
ATOM      4  C   UNL     1       2.354   0.097   0.018  0.00  0.00    +0.089 A 
ATOM      5  N   UNL     1       3.586  -0.345  -0.125  0.00  0.00    -0.226 NA
ATOM      6  C   UNL     1       3.863  -1.659  -0.160  0.00  0.00    +0.192 C 
ATOM      7  N   UNL     1       5.088  -2.071  -0.301  0.00  0.00    -0.110 NA
ATOM      8  C   UNL     1       2.730  -2.651  -0.032  0.00  0.00    +0.237 C 
ATOM      9  N   UNL     1       1.367  -2.121   0.126  0.00  0.00    -0.359 N 
ATOM     10  C   UNL     1       1.201  -0.828   0.149  0.00  0.00    +0.063 A 
ATOM     11  C   UNL     1      -0.141  -0.247   0.305  0.00  0.00    +0.027 A 
ATOM     12  H   UNL     1       0.608  -2.719   0.211  0.00  0.00    +0.162 HD
ENDROOT
BRANCH   7  13
ATOM     13  S   UNL     1       6.321  -0.973  -0.439  0.00  0.00    +0.100 S 
ATOM     14  O   UNL     1       6.118  -0.288  -1.668  0.00  0.00    -0.146 OA
ATOM     15  O   UNL     1       6.402  -0.295   0.807  0.00  0.00    -0.146 OA
BRANCH  13  16
ATOM     16  C   UNL     1       7.816  -1.888  -0.613  0.00  0.00    +0.113 A 
ATOM     17  C   UNL     1       8.536  -2.255   0.509  0.00  0.00    +0.030 A 
ATOM     18  C   UNL     1       9.709  -2.973   0.373  0.00  0.00    +0.017 A 
ATOM     19  C   UNL     1      10.163  -3.325  -0.885  0.00  0.00    +0.018 A 
ATOM     20  C   UNL     1       9.443  -2.958  -2.007  0.00  0.00    +0.017 A 
ATOM     21  C   UNL     1       8.267  -2.244  -1.870  0.00  0.00    +0.030 A 
ATOM     22 BR   UNL     1      11.768  -4.307  -1.071  0.00  0.00    -0.050 Br
ENDBRANCH  13  16
ENDBRANCH   7  13
BRANCH   8  23
ATOM     23  N   UNL     1       2.743  -3.501  -1.225  0.00  0.00    -0.318 N 
ATOM     24  H   UNL     1       2.870  -3.104  -2.101  0.00  0.00    +0.148 HD
BRANCH  23  25
ATOM     25  C   UNL     1       2.571  -4.881  -1.102  0.00  0.00    +0.032 A 
ATOM     26  C   UNL     1       2.230  -5.433   0.127  0.00  0.00    +0.023 A 
ATOM     27  C   UNL     1       2.060  -6.798   0.247  0.00  0.00    +0.005 A 
ATOM     28  C   UNL     1       2.230  -7.617  -0.854  0.00  0.00    +0.038 A 
ATOM     29  C   UNL     1       2.569  -7.072  -2.080  0.00  0.00    +0.125 A 
ATOM     30  C   UNL     1       2.735  -5.704  -2.208  0.00  0.00    +0.061 A 
ATOM     31  F   UNL     1       2.734  -7.875  -3.154  0.00  0.00    -0.205 F 
ENDBRANCH  23  25
ENDBRANCH   8  23
TORSDOF 4
