REMARK  Name = ZINC08868891
REMARK  4 active torsions:
REMARK  status: ('A' for Active; 'I' for Inactive)
REMARK    1  A    between atoms: C_4  and  C_7
REMARK    2  A    between atoms: C_9  and  C_33
REMARK    3  A    between atoms: C_14  and  C_16
REMARK    4  A    between atoms: C_23  and  N_67
REMARK                            x       y       z     vdW  Elec       q    Type
REMARK                         _______ _______ _______ _____ _____    ______ ____
ROOT
ATOM      1  C   UNL     1      -7.158   4.054   0.167  0.00  0.00    +0.075 A 
ATOM      2  C   UNL     1      -7.177   5.466   0.238  0.00  0.00    +0.060 A 
ATOM      3  C   UNL     1      -6.008   6.145   0.238  0.00  0.00    +0.149 A 
ATOM      4  N   UNL     1      -4.831   5.451   0.169  0.00  0.00    -0.209 N 
ATOM      5  C   UNL     1      -4.847   4.080   0.102  0.00  0.00    +0.157 A 
ATOM      6  N   UNL     1      -6.007   3.411   0.102  0.00  0.00    -0.228 NA
ATOM      7  C   UNL     1      -3.527   3.658   0.048  0.00  0.00    +0.083 A 
ATOM      8  C   UNL     1      -2.717   4.798   0.077  0.00  0.00    +0.150 A 
ATOM      9  N   UNL     1      -3.494   5.867   0.152  0.00  0.00    -0.160 NA
ENDROOT
BRANCH   8  10
ATOM     10  C   UNL     1      -1.239   4.807   0.037  0.00  0.00    +0.267 C 
ATOM     11  O   UNL     1      -0.623   3.761   0.096  0.00  0.00    -0.268 OA
ATOM     12  N   UNL     1      -0.575   5.976  -0.066  0.00  0.00    -0.300 N 
ATOM     13  C   UNL     1       0.891   6.003  -0.184  0.00  0.00    +0.089 C 
ATOM     14  C   UNL     1       1.260   6.877  -1.393  0.00  0.00    -0.059 C 
ATOM     15  C   UNL     1      -0.840   8.082  -1.264  0.00  0.00    -0.059 C 
ATOM     16  C   UNL     1      -1.296   7.257  -0.056  0.00  0.00    +0.089 C 
ATOM     17  N   UNL     1       0.633   8.206  -1.226  0.00  0.00    +0.385 N 
ATOM     18  H   UNL     1       0.911   8.593  -0.316  0.00  0.00    -0.081 HD
BRANCH  17  19
ATOM     19  C   UNL     1       1.090   9.118  -2.294  0.00  0.00    -0.065 C 
ATOM     20  C   UNL     1       0.649   8.604  -3.666  0.00  0.00    -0.009 C 
ATOM     21  C   UNL     1       1.134   9.567  -4.752  0.00  0.00    -0.012 C 
ATOM     22  C   UNL     1       2.661   9.657  -4.708  0.00  0.00    +0.007 C 
ATOM     23  C   UNL     1       3.103  10.171  -3.336  0.00  0.00    -0.012 C 
ATOM     24  C   UNL     1       2.617   9.208  -2.251  0.00  0.00    -0.009 C 
ATOM     25  C   UNL     1       2.503  11.557  -3.093  0.00  0.00    +0.007 C 
ATOM     26  C   UNL     1       0.976  11.467  -3.137  0.00  0.00    -0.012 C 
ATOM     27  C   UNL     1       0.534  10.954  -4.509  0.00  0.00    +0.007 C 
ATOM     28  C   UNL     1       0.491  10.505  -2.051  0.00  0.00    -0.009 C 
ENDBRANCH  17  19
ENDBRANCH   8  10
BRANCH   1  32
ATOM     29  C   UNL     1     -10.809   1.879   0.165  0.00  0.00    +0.000 A 
ATOM     30  C   UNL     1      -9.605   1.202   0.096  0.00  0.00    +0.001 A 
ATOM     31  C   UNL     1      -8.416   1.903   0.096  0.00  0.00    +0.010 A 
ATOM     32  C   UNL     1      -8.431   3.296   0.166  0.00  0.00    +0.000 A 
ATOM     33  C   UNL     1      -9.648   3.972   0.240  0.00  0.00    +0.010 A 
ATOM     34  C   UNL     1     -10.830   3.260   0.234  0.00  0.00    +0.001 A 
ENDBRANCH   1  32
BRANCH   3  35
ATOM     35  C   UNL     1      -6.002   7.651   0.312  0.00  0.00    +0.434 C 
ATOM     36  F   UNL     1      -7.310   8.114   0.488  0.00  0.00    -0.164 F 
ATOM     37  F   UNL     1      -5.213   8.061   1.392  0.00  0.00    -0.164 F 
ATOM     38  F   UNL     1      -5.477   8.174  -0.874  0.00  0.00    -0.164 F 
ENDBRANCH   3  35
TORSDOF 4
