REMARK  Name = ZINC13714142
REMARK  7 active torsions:
REMARK  status: ('A' for Active; 'I' for Inactive)
REMARK    1  A    between atoms: C_1  and  C_2
REMARK    2  A    between atoms: C_2  and  O_3
REMARK    3  A    between atoms: O_3  and  C_4
REMARK    4  A    between atoms: C_13  and  C_14
REMARK    5  A    between atoms: N_16  and  C_17
REMARK    6  A    between atoms: C_20  and  C_23
REMARK    7  A    between atoms: C_23  and  C_24
REMARK                            x       y       z     vdW  Elec       q    Type
REMARK                         _______ _______ _______ _____ _____    ______ ____
ROOT
ATOM      1  C   UNL     1      -1.095   6.566  -2.132  0.00  0.00    +0.252 C 
ATOM      2  O   UNL     1      -1.357   7.339  -3.034  0.00  0.00    -0.270 OA
ATOM      3  N   UNL     1      -1.963   6.397  -1.115  0.00  0.00    -0.281 N 
ATOM      4  H   UNL     1      -1.786   5.732  -0.431  0.00  0.00    +0.155 HD
ENDROOT
BRANCH   1  14
ATOM      5  C   UNL     1       0.247   4.565  -2.765  0.00  0.00    +0.133 A 
ATOM      6  C   UNL     1       1.451   3.859  -2.778  0.00  0.00    +0.047 A 
ATOM      7  C   UNL     1       2.577   4.354  -2.203  0.00  0.00    +0.012 A 
ATOM      8  C   UNL     1       2.570   5.610  -1.568  0.00  0.00    -0.017 A 
ATOM      9  C   UNL     1       3.729   6.131  -0.970  0.00  0.00    +0.008 A 
ATOM     10  C   UNL     1       3.685   7.349  -0.363  0.00  0.00    +0.001 A 
ATOM     11  C   UNL     1       2.505   8.087  -0.321  0.00  0.00    +0.001 A 
ATOM     12  C   UNL     1       1.363   7.613  -0.895  0.00  0.00    +0.009 A 
ATOM     13  C   UNL     1       1.373   6.364  -1.527  0.00  0.00    -0.002 A 
ATOM     14  C   UNL     1       0.169   5.816  -2.151  0.00  0.00    +0.086 A 
BRANCH   5  15
ATOM     15  O   UNL     1      -0.853   4.032  -3.351  0.00  0.00    -0.491 OA
BRANCH  15  17
ATOM     16  C   UNL     1      -2.043   2.315  -4.565  0.00  0.00    +0.048 C 
ATOM     17  C   UNL     1      -0.706   2.749  -3.961  0.00  0.00    +0.226 C 
ENDBRANCH  15  17
ENDBRANCH   5  15
ENDBRANCH   1  14
BRANCH   3  18
ATOM     18  C   UNL     1      -3.120   7.180  -1.046  0.00  0.00    +0.034 A 
ATOM     19  C   UNL     1      -3.619   7.577   0.188  0.00  0.00    +0.023 A 
ATOM     20  C   UNL     1      -4.758   8.355   0.252  0.00  0.00    +0.006 A 
ATOM     21  C   UNL     1      -5.409   8.729  -0.909  0.00  0.00    -0.039 A 
ATOM     22  C   UNL     1      -4.918   8.330  -2.139  0.00  0.00    +0.006 A 
ATOM     23  C   UNL     1      -3.776   7.557  -2.211  0.00  0.00    +0.023 A 
BRANCH  21  24
ATOM     24  C   UNL     1      -6.655   9.573  -0.835  0.00  0.00    +0.131 C 
BRANCH  24  25
ATOM     25  C   UNL     1      -7.864   8.677  -0.745  0.00  0.00    +0.220 C 
ATOM     26  O   UNL     1      -7.727   7.472  -0.742  0.00  0.00    -0.275 OA
ATOM     27  N   UNL     1      -9.097   9.215  -0.668  0.00  0.00    -0.301 N 
ATOM     28  C   UNL     1      -9.405  10.653  -0.656  0.00  0.00    +0.108 C 
ATOM     29  C   UNL     1     -10.937  10.792  -0.533  0.00  0.00    +0.020 C 
ATOM     30  C   UNL     1     -11.358   9.436   0.094  0.00  0.00    +0.020 C 
ATOM     31  C   UNL     1     -10.360   8.460  -0.577  0.00  0.00    +0.108 C 
ENDBRANCH  24  25
ENDBRANCH  21  24
ENDBRANCH   3  18
TORSDOF 6
