REMARK  Name = ZINC28352400
REMARK  9 active torsions:
REMARK  status: ('A' for Active; 'I' for Inactive)
REMARK    1  A    between atoms: C_1  and  C_2
REMARK    2  A    between atoms: C_2  and  C_3
REMARK    3  A    between atoms: C_2  and  C_4
REMARK    4  A    between atoms: C_9  and  S_10
REMARK    5  A    between atoms: S_10  and  C_11
REMARK    6  A    between atoms: C_14  and  C_21
REMARK    7  A    between atoms: C_16  and  C_17
REMARK    8  A    between atoms: C_30  and  O_38
REMARK    9  A    between atoms: C_32  and  C_35
REMARK                            x       y       z     vdW  Elec       q    Type
REMARK                         _______ _______ _______ _____ _____    ______ ____
ROOT
ATOM      1  C   UNL     1      -1.091   3.941   0.178  0.00  0.00    +0.024 A 
ATOM      2  C   UNL     1       0.253   4.299   0.153  0.00  0.00    +0.016 A 
ATOM      3  C   UNL     1       0.617   5.622   0.274  0.00  0.00    +0.009 A 
ATOM      4  C   UNL     1      -0.363   6.603   0.422  0.00  0.00    -0.017 A 
ATOM      5  C   UNL     1      -1.710   6.242   0.447  0.00  0.00    +0.022 A 
ATOM      6  C   UNL     1      -2.070   4.918   0.320  0.00  0.00    +0.069 A 
ENDROOT
BRANCH   4   7
ATOM      7  C   UNL     1       0.026   8.028   0.553  0.00  0.00    -0.013 A 
ATOM      8  C   UNL     1      -0.945   9.027   0.697  0.00  0.00    +0.026 A 
ATOM      9  C   UNL     1      -0.544  10.339   0.821  0.00  0.00    +0.085 A 
ATOM     10  N   UNL     1       0.736  10.665   0.796  0.00  0.00    -0.350 N 
ATOM     11  C   UNL     1       1.687   9.754   0.657  0.00  0.00    +0.099 A 
ATOM     12  C   UNL     1       1.368   8.408   0.531  0.00  0.00    +0.050 A 
ATOM     13  N   UNL     1       3.020  10.149   0.637  0.00  0.00    -0.316 N 
ATOM     14  C   UNL     1       3.688   9.687  -0.587  0.00  0.00    +0.109 C 
ATOM     15  C   UNL     1       5.105  10.261  -0.644  0.00  0.00    +0.051 C 
ATOM     16  C   UNL     1       5.886   9.802   0.591  0.00  0.00    +0.131 C 
ATOM     17  C   UNL     1       5.145  10.254   1.851  0.00  0.00    +0.148 C 
ATOM     18  C   UNL     1       3.726   9.681   1.836  0.00  0.00    +0.124 C 
ATOM     19  H   UNL     1       1.037  11.718   0.893  0.00  0.00    +0.166 HD
BRANCH  17  20
ATOM     20  C   UNL     1       5.877   9.757   3.071  0.00  0.00    +0.363 C 
ATOM     21  O   UNL     1       6.888   9.107   2.946  0.00  0.00    -0.246 OA
ATOM     22  O   UNL     1       5.405  10.036   4.297  0.00  0.00    -0.246 OA
ENDBRANCH  17  20
BRANCH  16  23
ATOM     23  O   UNL     1       7.193  10.381   0.571  0.00  0.00    -0.391 OA
ATOM     24  H   UNL     1       7.902  10.164   1.383  0.00  0.00    +0.210 HD
ENDBRANCH  16  23
ENDBRANCH   4   7
BRANCH   6  25
ATOM     25  C   UNL     1      -3.526   4.528   0.340  0.00  0.00    +0.418 C 
ATOM     26  F   UNL     1      -4.314   5.674   0.492  0.00  0.00    -0.166 F 
ATOM     27  F   UNL     1      -3.855   3.892  -0.861  0.00  0.00    -0.166 F 
ATOM     28  F   UNL     1      -3.760   3.656   1.409  0.00  0.00    -0.166 F 
ENDBRANCH   6  25
BRANCH   1  29
ATOM     29  S   UNL     1      -1.553   2.248   0.022  0.00  0.00    -0.089 S 
BRANCH  29  35
ATOM     30  C   UNL     1       0.656   1.179   1.233  0.00  0.00    -0.031 A 
ATOM     31  C   UNL     1       1.856   0.496   1.240  0.00  0.00    +0.005 A 
ATOM     32  C   UNL     1       2.388   0.016   0.057  0.00  0.00    +0.000 A 
ATOM     33  C   UNL     1       1.719   0.217  -1.137  0.00  0.00    +0.001 A 
ATOM     34  C   UNL     1       0.519   0.899  -1.152  0.00  0.00    +0.015 A 
ATOM     35  C   UNL     1      -0.018   1.383   0.035  0.00  0.00    +0.016 A 
BRANCH  30  37
ATOM     36  C   UNL     1      -0.167   0.536   3.482  0.00  0.00    +0.012 C 
ATOM     37  C   UNL     1       0.078   1.702   2.522  0.00  0.00    +0.014 C 
ATOM     38  C   UNL     1       1.060   2.688   3.158  0.00  0.00    +0.012 C 
ENDBRANCH  30  37
ENDBRANCH  29  35
ENDBRANCH   1  29
TORSDOF 7
