REMARK  Name = ZINC22846730
REMARK  11 active torsions:
REMARK  status: ('A' for Active; 'I' for Inactive)
REMARK    1  A    between atoms: C_1  and  C_2
REMARK    2  A    between atoms: C_2  and  N_3
REMARK    3  A    between atoms: N_3  and  C_4
REMARK    4  A    between atoms: N_3  and  C_6
REMARK    5  A    between atoms: C_4  and  C_5
REMARK    6  A    between atoms: C_9  and  C_12
REMARK    7  A    between atoms: C_17  and  C_21
REMARK    8  A    between atoms: C_17  and  C_22
REMARK    9  A    between atoms: C_27  and  S_29
REMARK   10  A    between atoms: S_29  and  C_30
REMARK   11  A    between atoms: C_30  and  C_31
REMARK                            x       y       z     vdW  Elec       q    Type
REMARK                         _______ _______ _______ _____ _____    ______ ____
ROOT
ATOM      1  C   UNL     1       6.311  -1.357   0.990  0.00  0.00    +0.175 C 
ATOM      2  C   UNL     1       6.992  -0.479   2.017  0.00  0.00    +0.041 C 
ATOM      3  C   UNL     1       7.498  -0.978   3.165  0.00  0.00    +0.020 C 
ATOM      4  C   UNL     1       8.157  -0.073   4.179  0.00  0.00    +0.058 C 
ATOM      5  C   UNL     1       8.826   1.102   3.463  0.00  0.00    -0.023 C 
ATOM      6  C   UNL     1       7.754   1.854   2.666  0.00  0.00    +0.086 C 
ATOM      7  C   UNL     1       7.082   0.894   1.725  0.00  0.00    +0.164 C 
ATOM      8  O   UNL     1       6.605   1.313   0.689  0.00  0.00    -0.292 OA
ATOM      9  C   UNL     1       9.457   2.042   4.492  0.00  0.00    +0.011 C 
ATOM     10  C   UNL     1       9.904   0.580   2.511  0.00  0.00    +0.011 C 
ATOM     11  N   UNL     1       7.442  -2.319   3.459  0.00  0.00    -0.287 N 
ATOM     12  C   UNL     1       7.121  -3.197   2.438  0.00  0.00    +0.219 A 
ATOM     13  N   UNL     1       6.593  -2.760   1.271  0.00  0.00    -0.220 N 
ATOM     14  N   UNL     1       6.401  -3.889   0.476  0.00  0.00    -0.141 NA
ATOM     15  C   UNL     1       6.805  -4.923   1.182  0.00  0.00    +0.211 A 
ATOM     16  N   UNL     1       7.240  -4.495   2.370  0.00  0.00    -0.187 NA
ATOM     17  H   UNL     1       7.621  -2.641   4.357  0.00  0.00    +0.155 HD
ENDROOT
BRANCH   1  21
ATOM     18  C   UNL     1       2.090  -0.703   1.140  0.00  0.00    +0.030 A 
ATOM     19  C   UNL     1       2.792  -0.451  -0.032  0.00  0.00    +0.023 A 
ATOM     20  C   UNL     1       4.156  -0.663  -0.076  0.00  0.00    +0.008 A 
ATOM     21  C   UNL     1       4.823  -1.126   1.043  0.00  0.00    -0.018 A 
ATOM     22  C   UNL     1       4.127  -1.379   2.211  0.00  0.00    +0.008 A 
ATOM     23  C   UNL     1       2.763  -1.163   2.264  0.00  0.00    +0.023 A 
BRANCH  18  24
ATOM     24  N   UNL     1       0.711  -0.489   1.189  0.00  0.00    -0.330 N 
BRANCH  24  26
ATOM     25  C   UNL     1      -0.019   1.526   0.010  0.00  0.00    +0.024 C 
ATOM     26  C   UNL     1       0.002  -0.004   0.002  0.00  0.00    +0.102 C 
ENDBRANCH  24  26
BRANCH  24  27
ATOM     27  C   UNL     1      -0.028  -0.750   2.427  0.00  0.00    +0.102 C 
ATOM     28  C   UNL     1      -0.511  -2.202   2.437  0.00  0.00    +0.024 C 
ENDBRANCH  24  27
ENDBRANCH  18  24
ENDBRANCH   1  21
BRANCH  15  29
ATOM     29  S   UNL     1       6.779  -6.601   0.646  0.00  0.00    -0.080 S 
BRANCH  29  30
ATOM     30  C   UNL     1       7.455  -7.522   2.055  0.00  0.00    +0.114 C 
BRANCH  30  31
ATOM     31  C   UNL     1       7.488  -8.992   1.725  0.00  0.00    -0.019 A 
ATOM     32  C   UNL     1       6.398  -9.790   2.016  0.00  0.00    +0.006 A 
ATOM     33  C   UNL     1       6.429 -11.139   1.714  0.00  0.00    +0.000 A 
ATOM     34  C   UNL     1       7.549 -11.690   1.120  0.00  0.00    +0.001 A 
ATOM     35  C   UNL     1       8.639 -10.892   0.828  0.00  0.00    +0.020 A 
ATOM     36  C   UNL     1       8.608  -9.541   1.126  0.00  0.00    +0.045 A 
ATOM     37 CL   UNL     1       9.974  -8.538   0.754  0.00  0.00    -0.083 Cl
ENDBRANCH  30  31
ENDBRANCH  29  30
ENDBRANCH  15  29
TORSDOF 7
