REMARK  Name = ZINC12049046
REMARK  5 active torsions:
REMARK  status: ('A' for Active; 'I' for Inactive)
REMARK    1  A    between atoms: C_1  and  C_2
REMARK    2  A    between atoms: C_9  and  C_12
REMARK    3  A    between atoms: N_14  and  C_15
REMARK    4  A    between atoms: N_19  and  C_20
REMARK    5  A    between atoms: C_20  and  C_21
REMARK                            x       y       z     vdW  Elec       q    Type
REMARK                         _______ _______ _______ _____ _____    ______ ____
ROOT
ATOM      1  C   UNL     1      -2.378   1.605   0.023  0.00  0.00    +0.232 C 
ATOM      2  O   UNL     1      -2.494   0.398   0.018  0.00  0.00    -0.274 OA
ATOM      3  N   UNL     1      -1.153   2.166   0.019  0.00  0.00    -0.270 N 
ATOM      4  H   UNL     1      -1.061   3.131   0.024  0.00  0.00    +0.156 HD
ENDROOT
BRANCH   1  13
ATOM      5  C   UNL     1      -9.710   3.000  -2.071  0.00  0.00    +0.044 C 
ATOM      6  C   UNL     1      -8.449   2.694  -1.304  0.00  0.00    -0.049 A 
ATOM      7  C   UNL     1      -8.514   2.273   0.012  0.00  0.00    +0.004 A 
ATOM      8  C   UNL     1      -7.367   1.984   0.717  0.00  0.00    +0.005 A 
ATOM      9  C   UNL     1      -6.106   2.107   0.128  0.00  0.00    -0.032 A 
ATOM     10  C   UNL     1      -6.063   2.544  -1.194  0.00  0.00    +0.012 A 
ATOM     11  C   UNL     1      -7.213   2.829  -1.907  0.00  0.00    +0.018 A 
ATOM     12  S   UNL     1      -4.344   2.620  -1.646  0.00  0.00    -0.112 S 
ATOM     13  C   UNL     1      -3.606   2.479   0.034  0.00  0.00    +0.142 C 
ATOM     14  C   UNL     1      -4.778   1.795   0.774  0.00  0.00    +0.060 C 
ENDBRANCH   1  13
BRANCH   3  15
ATOM     15  C   UNL     1      -0.016   1.357   0.009  0.00  0.00    +0.124 A 
ATOM     16  C   UNL     1       0.002  -0.004   0.002  0.00  0.00    +0.065 A 
ATOM     17  C   UNL     1       1.338  -0.414  -0.013  0.00  0.00    +0.136 A 
ATOM     18  N   UNL     1       2.096   0.653  -0.014  0.00  0.00    -0.178 NA
ATOM     19  N   UNL     1       1.267   1.783  -0.001  0.00  0.00    -0.246 N 
BRANCH  19  20
ATOM     20  C   UNL     1       1.713   3.178   0.002  0.00  0.00    +0.180 C 
BRANCH  20  21
ATOM     21  C   UNL     1       1.879   3.650   1.424  0.00  0.00    -0.026 A 
ATOM     22  C   UNL     1       0.816   4.235   2.087  0.00  0.00    +0.007 A 
ATOM     23  C   UNL     1       0.966   4.662   3.392  0.00  0.00    +0.020 A 
ATOM     24  C   UNL     1       2.184   4.515   4.033  0.00  0.00    +0.041 A 
ATOM     25  C   UNL     1       3.249   3.934   3.367  0.00  0.00    +0.020 A 
ATOM     26  C   UNL     1       3.096   3.502   2.063  0.00  0.00    +0.007 A 
ATOM     27 CL   UNL     1       2.375   5.058   5.670  0.00  0.00    -0.084 Cl
ENDBRANCH  20  21
ENDBRANCH  19  20
ENDBRANCH   3  15
TORSDOF 4
