REMARK  Name = ZINC11882261
REMARK  10 active torsions:
REMARK  status: ('A' for Active; 'I' for Inactive)
REMARK    1  A    between atoms: C_1  and  N_68
REMARK    2  A    between atoms: C_2  and  N_68
REMARK    3  A    between atoms: C_3  and  C_4
REMARK    4  A    between atoms: C_3  and  N_68
REMARK    5  A    between atoms: C_4  and  N_5
REMARK    6  A    between atoms: C_8  and  C_12
REMARK    7  A    between atoms: C_8  and  C_20
REMARK    8  A    between atoms: C_12  and  C_13
REMARK    9  A    between atoms: C_13  and  C_14
REMARK   10  A    between atoms: C_26  and  C_28
REMARK                            x       y       z     vdW  Elec       q    Type
REMARK                         _______ _______ _______ _____ _____    ______ ____
ROOT
ATOM      1  N   UNL     1       1.768  -1.672   0.807  0.00  0.00    -0.226 N 
ATOM      2  C   UNL     1       2.679  -0.694   0.636  0.00  0.00    +0.247 C 
ATOM      3  O   UNL     1       3.880  -0.780   0.777  0.00  0.00    -0.273 OA
ATOM      4  C   UNL     1       1.890   0.535   0.231  0.00  0.00    +0.116 C 
ATOM      5  N   UNL     1       0.495   0.062   0.219  0.00  0.00    -0.285 N 
ATOM      6  C   UNL     1       0.526  -1.236   0.568  0.00  0.00    +0.309 C 
ATOM      7  O   UNL     1      -0.465  -1.935   0.657  0.00  0.00    -0.252 OA
ATOM      8  H   UNL     1      -0.292   0.585  -0.002  0.00  0.00    +0.151 HD
ENDROOT
BRANCH   4   9
ATOM      9  C   UNL     1       2.071   1.654   1.258  0.00  0.00    +0.024 C 
ATOM     10  C   UNL     1       3.499   2.198   1.173  0.00  0.00    +0.025 C 
ATOM     11  C   UNL     1       3.667   3.341   2.179  0.00  0.00    +0.108 C 
ATOM     12  N   UNL     1       3.284   2.857   3.512  0.00  0.00    -0.298 N 
ATOM     13  C   UNL     1       1.965   2.233   3.686  0.00  0.00    +0.108 C 
ATOM     14  C   UNL     1       1.817   1.102   2.663  0.00  0.00    +0.025 C 
ATOM     15  C   UNL     1       4.126   2.984   4.557  0.00  0.00    +0.247 C 
ATOM     16  O   UNL     1       3.772   2.643   5.668  0.00  0.00    -0.270 OA
BRANCH  15  17
ATOM     17  C   UNL     1       5.481   3.538   4.350  0.00  0.00    +0.037 A 
ATOM     18  C   UNL     1       6.598   2.860   4.842  0.00  0.00    +0.013 A 
ATOM     19  C   UNL     1       7.860   3.380   4.642  0.00  0.00    +0.001 A 
ATOM     20  C   UNL     1       8.020   4.576   3.964  0.00  0.00    +0.000 A 
ATOM     21  C   UNL     1       6.916   5.255   3.479  0.00  0.00    +0.001 A 
ATOM     22  C   UNL     1       5.649   4.744   3.668  0.00  0.00    +0.013 A 
ENDBRANCH  15  17
ENDBRANCH   4   9
BRANCH   1  23
ATOM     23  C   UNL     1       2.097  -3.043   1.204  0.00  0.00    +0.099 C 
BRANCH  23  24
ATOM     24  C   UNL     1       2.347  -3.890  -0.045  0.00  0.00    -0.060 C 
BRANCH  24  27
ATOM     25  C   UNL     1       2.692  -6.161  -0.811  0.00  0.00    -0.097 C 
ATOM     26  C   UNL     1       3.958  -5.313   1.071  0.00  0.00    -0.097 C 
ATOM     27  N   UNL     1       2.657  -5.274   0.371  0.00  0.00    +0.377 N 
ATOM     28  H   UNL     1       1.924  -5.601   1.012  0.00  0.00    -0.083 HD
ENDBRANCH  24  27
ENDBRANCH  23  24
ENDBRANCH   1  23
BRANCH   4  29
ATOM     29  C   UNL     1       2.310   1.008  -1.163  0.00  0.00    +0.040 C 
BRANCH  29  30
ATOM     30  C   UNL     1       2.053  -0.106  -2.179  0.00  0.00    +0.038 C 
BRANCH  30  31
ATOM     31  C   UNL     1       2.466   0.360  -3.551  0.00  0.00    -0.047 A 
ATOM     32  C   UNL     1       1.551   0.994  -4.370  0.00  0.00    +0.003 A 
ATOM     33  C   UNL     1       1.931   1.426  -5.627  0.00  0.00    +0.000 A 
ATOM     34  C   UNL     1       3.224   1.215  -6.069  0.00  0.00    +0.000 A 
ATOM     35  C   UNL     1       4.138   0.576  -5.252  0.00  0.00    +0.000 A 
ATOM     36  C   UNL     1       3.759   0.149  -3.993  0.00  0.00    +0.003 A 
ENDBRANCH  30  31
ENDBRANCH  29  30
ENDBRANCH   4  29
TORSDOF 8
