REMARK  Name = ZINC09136825
REMARK  9 active torsions:
REMARK  status: ('A' for Active; 'I' for Inactive)
REMARK    1  A    between atoms: C_1  and  C_2
REMARK    2  A    between atoms: C_2  and  O_3
REMARK    3  A    between atoms: O_3  and  C_4
REMARK    4  A    between atoms: C_4  and  C_6
REMARK    5  A    between atoms: C_7  and  N_20
REMARK    6  A    between atoms: N_11  and  C_13
REMARK    7  A    between atoms: C_18  and  C_19
REMARK    8  A    between atoms: N_20  and  C_21
REMARK    9  A    between atoms: C_27  and  C_29
REMARK                            x       y       z     vdW  Elec       q    Type
REMARK                         _______ _______ _______ _____ _____    ______ ____
ROOT
ATOM      1  C   UNL     1       1.183   3.632  -0.105  0.00  0.00    +0.189 A 
ATOM      2  C   UNL     1       1.169   2.166  -0.009  0.00  0.00    +0.067 A 
ATOM      3  C   UNL     1       2.393   1.520   0.080  0.00  0.00    +0.097 A 
ATOM      4  C   UNL     1       3.550   2.313   0.077  0.00  0.00    +0.274 A 
ATOM      5  O   UNL     1       4.648   1.784   0.154  0.00  0.00    -0.266 OA
ATOM      6  N   UNL     1       3.457   3.650  -0.010  0.00  0.00    -0.196 N 
ATOM      7  N   UNL     1       2.335   4.266  -0.093  0.00  0.00    -0.155 NA
ENDROOT
BRANCH   6   8
ATOM      8  C   UNL     1       4.635   4.404  -0.010  0.00  0.00    +0.072 A 
ATOM      9  C   UNL     1       5.631   4.138  -0.942  0.00  0.00    +0.028 A 
ATOM     10  C   UNL     1       6.793   4.884  -0.940  0.00  0.00    +0.002 A 
ATOM     11  C   UNL     1       6.966   5.895  -0.011  0.00  0.00    +0.000 A 
ATOM     12  C   UNL     1       5.977   6.162   0.917  0.00  0.00    +0.005 A 
ATOM     13  C   UNL     1       4.810   5.423   0.917  0.00  0.00    -0.025 A 
ATOM     14  C   UNL     1       3.730   5.718   1.926  0.00  0.00    +0.046 C 
ENDBRANCH   6   8
BRANCH   1  15
ATOM     15  C   UNL     1      -0.081   4.385  -0.209  0.00  0.00    +0.361 C 
ATOM     16  O   UNL     1      -1.144   3.803  -0.120  0.00  0.00    -0.243 OA
BRANCH  15  17
ATOM     17  O   UNL     1      -0.058   5.718  -0.403  0.00  0.00    -0.460 OA
BRANCH  17  19
ATOM     18  C   UNL     1      -1.112   7.891  -0.715  0.00  0.00    +0.048 C 
ATOM     19  C   UNL     1      -1.339   6.394  -0.496  0.00  0.00    +0.229 C 
ENDBRANCH  17  19
ENDBRANCH  15  17
ENDBRANCH   1  15
BRANCH   2  20
ATOM     20  N   UNL     1      -0.017   1.459  -0.012  0.00  0.00    -0.339 N 
ATOM     21  H   UNL     1      -0.864   1.932  -0.002  0.00  0.00    +0.146 HD
BRANCH  20  22
ATOM     22  C   UNL     1       0.004  -0.005  -0.036  0.00  0.00    +0.073 C 
ATOM     23  C   UNL     1       0.126  -0.489  -1.483  0.00  0.00    +0.022 C 
ATOM     24  C   UNL     1       0.148  -2.019  -1.509  0.00  0.00    +0.002 C 
ATOM     25  C   UNL     1      -1.147  -2.558  -0.898  0.00  0.00    +0.000 C 
ATOM     26  C   UNL     1      -1.270  -2.074   0.548  0.00  0.00    +0.005 C 
ATOM     27  C   UNL     1      -1.292  -0.544   0.574  0.00  0.00    +0.006 C 
ATOM     28  C   UNL     1      -1.414  -0.060   2.020  0.00  0.00    +0.009 C 
ENDBRANCH  20  22
ENDBRANCH   2  20
TORSDOF 6
