REMARK  Name = ZINC39934523
REMARK  9 active torsions:
REMARK  status: ('A' for Active; 'I' for Inactive)
REMARK    1  A    between atoms: C_1  and  C_2
REMARK    2  A    between atoms: C_2  and  C_3
REMARK    3  A    between atoms: C_3  and  C_33
REMARK    4  A    between atoms: N_6  and  N_10
REMARK    5  A    between atoms: C_11  and  C_13
REMARK    6  A    between atoms: C_13  and  S_14
REMARK    7  A    between atoms: S_14  and  C_15
REMARK    8  A    between atoms: C_19  and  C_24
REMARK    9  A    between atoms: N_20  and  C_21
REMARK                            x       y       z     vdW  Elec       q    Type
REMARK                         _______ _______ _______ _____ _____    ______ ____
ROOT
ATOM      1  C   UNL     1       5.763  -7.036  -1.761  0.00  0.00    +0.237 C 
ATOM      2  N   UNL     1       6.843  -7.192  -0.773  0.00  0.00    -0.237 N 
ATOM      3  N   UNL     1       6.354  -8.051   0.218  0.00  0.00    -0.169 NA
ATOM      4  C   UNL     1       5.131  -8.429  -0.043  0.00  0.00    +0.147 C 
ATOM      5  N   UNL     1       4.666  -7.866  -1.237  0.00  0.00    -0.282 N 
ATOM      6  H   UNL     1       7.721  -6.782  -0.804  0.00  0.00    +0.171 HD
ENDROOT
BRANCH   4   7
ATOM      7  C   UNL     1       4.379  -9.291   0.771  0.00  0.00    +0.022 C 
ATOM      8  C   UNL     1       4.741  -9.806   2.015  0.00  0.00    +0.006 A 
ATOM      9  C   UNL     1       5.894  -9.648   2.814  0.00  0.00    +0.010 A 
ATOM     10  C   UNL     1       5.977 -10.284   4.011  0.00  0.00    +0.001 A 
ATOM     11  C   UNL     1       4.944 -11.099   4.479  0.00  0.00    +0.002 A 
ATOM     12  C   UNL     1       3.809 -11.296   3.765  0.00  0.00    +0.026 A 
ATOM     13  C   UNL     1       3.650 -10.664   2.504  0.00  0.00    +0.043 A 
ATOM     14  N   UNL     1       2.660 -10.693   1.633  0.00  0.00    -0.380 N 
ATOM     15  C   UNL     1       3.002  -9.850   0.484  0.00  0.00    +0.152 C 
ATOM     16  H   UNL     1       1.835 -11.191   1.738  0.00  0.00    +0.160 HD
ENDBRANCH   4   7
BRANCH   5  17
ATOM     17  C   UNL     1       3.348  -8.062  -1.847  0.00  0.00    +0.078 C 
ATOM     18  C   UNL     1       3.097  -7.415  -3.210  0.00  0.00    +0.024 C 
ATOM     19  C   UNL     1       2.432  -6.842  -1.958  0.00  0.00    +0.024 C 
ENDBRANCH   5  17
BRANCH   1  20
ATOM     20  S   UNL     1       5.249  -5.300  -1.870  0.00  0.00    -0.109 S 
BRANCH  20  21
ATOM     21  C   UNL     1       4.779  -4.874  -0.170  0.00  0.00    +0.169 C 
BRANCH  21  23
ATOM     22  N   UNL     1       3.925  -2.899   1.050  0.00  0.00    -0.223 N 
ATOM     23  C   UNL     1       4.325  -3.438  -0.119  0.00  0.00    +0.240 C 
ATOM     24  O   UNL     1       4.320  -2.767  -1.130  0.00  0.00    -0.273 OA
ATOM     25  H   UNL     1       3.930  -3.435   1.858  0.00  0.00    +0.174 HD
BRANCH  22  29
ATOM     26  C   UNL     1       2.242   0.337   1.219  0.00  0.00    +0.111 C 
ATOM     27  C   UNL     1       2.217  -1.179   1.204  0.00  0.00    +0.263 C 
ATOM     28  O   UNL     1       1.242  -1.896   1.274  0.00  0.00    -0.271 OA
ATOM     29  N   UNL     1       3.504  -1.563   1.097  0.00  0.00    -0.137 N 
ATOM     30  C   UNL     1       4.330  -0.512   1.043  0.00  0.00    +0.326 C 
ATOM     31  O   UNL     1       5.538  -0.606   0.945  0.00  0.00    -0.251 OA
ATOM     32  N   UNL     1       3.674   0.660   1.108  0.00  0.00    -0.284 N 
ATOM     33  C   UNL     1       1.668   0.875   2.531  0.00  0.00    +0.041 C 
ATOM     34  H   UNL     1       4.068   1.547   1.086  0.00  0.00    +0.151 HD
BRANCH  26  36
ATOM     35  C   UNL     1       1.702   2.408  -0.070  0.00  0.00    +0.006 C 
ATOM     36  C   UNL     1       1.468   0.899   0.024  0.00  0.00    +0.032 C 
ENDBRANCH  26  36
ENDBRANCH  22  29
ENDBRANCH  21  23
ENDBRANCH  20  21
ENDBRANCH   1  20
TORSDOF 7
