REMARK  Name = ZINC09763210
REMARK  11 active torsions:
REMARK  status: ('A' for Active; 'I' for Inactive)
REMARK    1  A    between atoms: C_1  and  C_2
REMARK    2  A    between atoms: C_2  and  O_3
REMARK    3  A    between atoms: O_3  and  C_4
REMARK    4  A    between atoms: C_7  and  N_10
REMARK    5  A    between atoms: C_11  and  C_33
REMARK    6  A    between atoms: C_14  and  S_15
REMARK    7  A    between atoms: S_15  and  C_16
REMARK    8  A    between atoms: C_16  and  C_17
REMARK    9  A    between atoms: N_19  and  N_20
REMARK   10  A    between atoms: C_21  and  C_22
REMARK   11  A    between atoms: C_21  and  C_23
REMARK                            x       y       z     vdW  Elec       q    Type
REMARK                         _______ _______ _______ _____ _____    ______ ____
ROOT
ATOM      1  N   UNL     1       4.302  -6.461  -0.068  0.00  0.00    -0.270 N 
ATOM      2  C   UNL     1       5.679  -6.436  -0.086  0.00  0.00    +0.169 A 
ATOM      3  N   UNL     1       6.041  -5.174  -0.083  0.00  0.00    -0.128 NA
ATOM      4  N   UNL     1       5.002  -4.418  -0.069  0.00  0.00    -0.122 NA
ATOM      5  C   UNL     1       3.910  -5.151  -0.063  0.00  0.00    +0.197 A 
ENDROOT
BRANCH   1   9
ATOM      6  C   UNL     1       1.840  -9.829  -0.043  0.00  0.00    +0.121 A 
ATOM      7  C   UNL     1       1.828  -8.969  -1.131  0.00  0.00    +0.047 A 
ATOM      8  C   UNL     1       2.642  -7.854  -1.140  0.00  0.00    +0.030 A 
ATOM      9  C   UNL     1       3.474  -7.594  -0.060  0.00  0.00    +0.051 A 
ATOM     10  C   UNL     1       3.490  -8.458   1.027  0.00  0.00    +0.030 A 
ATOM     11  C   UNL     1       2.671  -9.569   1.037  0.00  0.00    +0.047 A 
BRANCH   6  12
ATOM     12  O   UNL     1       1.038 -10.926  -0.034  0.00  0.00    -0.492 OA
BRANCH  12  14
ATOM     13  C   UNL     1       0.136 -12.942   0.948  0.00  0.00    +0.048 C 
ATOM     14  C   UNL     1       1.102 -11.768   1.119  0.00  0.00    +0.225 C 
ENDBRANCH  12  14
ENDBRANCH   6  12
ENDBRANCH   1   9
BRANCH   2  15
ATOM     15  C   UNL     1       6.579  -7.608  -0.100  0.00  0.00    +0.020 A 
ATOM     16  C   UNL     1       6.077  -8.873  -0.409  0.00  0.00    +0.011 A 
ATOM     17  C   UNL     1       6.924  -9.963  -0.425  0.00  0.00    +0.001 A 
ATOM     18  C   UNL     1       8.265  -9.805  -0.125  0.00  0.00    +0.000 A 
ATOM     19  C   UNL     1       8.768  -8.554   0.187  0.00  0.00    +0.001 A 
ATOM     20  C   UNL     1       7.933  -7.455   0.201  0.00  0.00    +0.011 A 
ENDBRANCH   2  15
BRANCH   5  21
ATOM     21  S   UNL     1       2.252  -4.555  -0.044  0.00  0.00    -0.076 S 
BRANCH  21  22
ATOM     22  C   UNL     1       2.558  -2.771  -0.037  0.00  0.00    +0.174 C 
BRANCH  22  23
ATOM     23  C   UNL     1       1.243  -2.036  -0.021  0.00  0.00    +0.242 C 
ATOM     24  O   UNL     1       0.201  -2.656  -0.014  0.00  0.00    -0.273 OA
ATOM     25  N   UNL     1       1.225  -0.688  -0.013  0.00  0.00    -0.206 N 
ATOM     26  H   UNL     1       2.058  -0.192  -0.019  0.00  0.00    +0.177 HD
BRANCH  25  27
ATOM     27  N   UNL     1       0.002  -0.004   0.002  0.00  0.00    -0.185 NA
ATOM     28  C   UNL     1      -0.015   1.294   0.009  0.00  0.00    +0.063 C 
ATOM     29  C   UNL     1       1.279   2.065   0.001  0.00  0.00    +0.068 C 
BRANCH  28  30
ATOM     30  C   UNL     1      -1.302   2.013   0.019  0.00  0.00    -0.002 A 
ATOM     31  C   UNL     1      -1.315   3.421   0.027  0.00  0.00    +0.010 A 
ATOM     32  C   UNL     1      -2.487   4.105   0.036  0.00  0.00    +0.009 A 
ATOM     33  C   UNL     1      -3.710   3.409   0.037  0.00  0.00    -0.018 A 
ATOM     34  C   UNL     1      -4.935   4.096   0.046  0.00  0.00    +0.008 A 
ATOM     35  C   UNL     1      -6.102   3.396   0.046  0.00  0.00    +0.001 A 
ATOM     36  C   UNL     1      -6.103   2.002   0.039  0.00  0.00    +0.001 A 
ATOM     37  C   UNL     1      -4.936   1.301   0.031  0.00  0.00    +0.008 A 
ATOM     38  C   UNL     1      -3.710   1.991   0.029  0.00  0.00    -0.017 A 
ATOM     39  C   UNL     1      -2.490   1.299   0.015  0.00  0.00    +0.018 A 
ENDBRANCH  28  30
ENDBRANCH  25  27
ENDBRANCH  22  23
ENDBRANCH  21  22
ENDBRANCH   5  21
TORSDOF 9
