REMARK  Name = ZINC09115057
REMARK  3 active torsions:
REMARK  status: ('A' for Active; 'I' for Inactive)
REMARK    1  A    between atoms: C_1  and  N_2
REMARK    2  A    between atoms: C_12  and  C_20
REMARK    3  A    between atoms: N_22  and  C_23
REMARK                            x       y       z     vdW  Elec       q    Type
REMARK                         _______ _______ _______ _____ _____    ______ ____
ROOT
ATOM      1  C   UNL     1      -0.428   4.800  -0.904  0.00  0.00    +0.138 C 
ATOM      2  N   UNL     1       0.487   3.709  -0.561  0.00  0.00    -0.275 N 
ATOM      3  C   UNL     1       0.131   2.359  -0.578  0.00  0.00    +0.038 A 
ATOM      4  C   UNL     1      -1.077   1.740  -0.891  0.00  0.00    +0.024 A 
ATOM      5  C   UNL     1      -1.188   0.366  -0.834  0.00  0.00    +0.002 A 
ATOM      6  C   UNL     1      -0.102  -0.407  -0.466  0.00  0.00    +0.000 A 
ATOM      7  C   UNL     1       1.101   0.199  -0.154  0.00  0.00    +0.004 A 
ATOM      8  C   UNL     1       1.216   1.571  -0.209  0.00  0.00    -0.027 A 
ATOM      9  C   UNL     1       2.348   2.524   0.063  0.00  0.00    +0.052 C 
ATOM     10  C   UNL     1       1.769   3.891  -0.194  0.00  0.00    +0.214 C 
ATOM     11  O   UNL     1       2.348   4.952  -0.090  0.00  0.00    -0.276 OA
ATOM     12  C   UNL     1       3.532   2.249  -0.876  0.00  0.00    +0.076 C 
ATOM     13  C   UNL     1       4.763   2.534   0.027  0.00  0.00    -0.003 C 
ATOM     14  C   UNL     1       4.265   2.032   1.404  0.00  0.00    -0.066 C 
ATOM     15  C   UNL     1       2.765   3.725   2.117  0.00  0.00    -0.077 C 
ATOM     16  C   UNL     1       3.857   3.634   3.211  0.00  0.00    -0.020 C 
ATOM     17  C   UNL     1       4.973   2.821   2.516  0.00  0.00    -0.017 C 
ATOM     18  N   UNL     1       2.859   2.417   1.445  0.00  0.00    +0.394 N 
ATOM     19  H   UNL     1       2.315   1.716   1.963  0.00  0.00    -0.079 HD
ENDROOT
BRANCH  12  20
ATOM     20  C   UNL     1       3.525   0.815  -1.339  0.00  0.00    +0.220 C 
ATOM     21  O   UNL     1       3.708  -0.080  -0.542  0.00  0.00    -0.275 OA
ATOM     22  N   UNL     1       3.316   0.528  -2.639  0.00  0.00    -0.282 N 
ATOM     23  H   UNL     1       3.226   1.245  -3.286  0.00  0.00    +0.155 HD
BRANCH  22  24
ATOM     24  C   UNL     1       3.228  -0.808  -3.057  0.00  0.00    +0.083 A 
ATOM     25  C   UNL     1       4.270  -1.690  -2.792  0.00  0.00    +0.148 A 
ATOM     26  C   UNL     1       4.180  -3.006  -3.205  0.00  0.00    +0.078 A 
ATOM     27  C   UNL     1       3.054  -3.446  -3.880  0.00  0.00    +0.127 A 
ATOM     28  C   UNL     1       2.015  -2.570  -4.144  0.00  0.00    +0.055 A 
ATOM     29  C   UNL     1       2.098  -1.253  -3.729  0.00  0.00    +0.045 A 
ATOM     30 BR   UNL     1       0.675  -0.059  -4.082  0.00  0.00    -0.048 Br
ATOM     31  F   UNL     1       2.968  -4.733  -4.282  0.00  0.00    -0.205 F 
ATOM     32  F   UNL     1       5.368  -1.261  -2.133  0.00  0.00    -0.203 F 
ENDBRANCH  22  24
ENDBRANCH  12  20
TORSDOF 2
