REMARK  Name = ZINC17355868
REMARK  6 active torsions:
REMARK  status: ('A' for Active; 'I' for Inactive)
REMARK    1  A    between atoms: C_1  and  C_2
REMARK    2  A    between atoms: C_2  and  C_4
REMARK    3  A    between atoms: C_2  and  N_14
REMARK    4  A    between atoms: C_15  and  C_17
REMARK    5  A    between atoms: N_22  and  S_24
REMARK    6  A    between atoms: S_24  and  C_27
REMARK                            x       y       z     vdW  Elec       q    Type
REMARK                         _______ _______ _______ _____ _____    ______ ____
ROOT
ATOM      1  N   UNL     1      -5.025   1.499   1.254  0.00  0.00    -0.312 N 
ATOM      2  C   UNL     1      -6.068   0.806   1.752  0.00  0.00    +0.218 C 
ATOM      3  O   UNL     1      -6.439  -0.210   1.202  0.00  0.00    -0.275 OA
ATOM      4  H   UNL     1      -4.729   2.312   1.694  0.00  0.00    +0.149 HD
ENDROOT
BRANCH   2   5
ATOM      5  C   UNL     1      -6.774   1.292   2.992  0.00  0.00    +0.091 C 
ATOM      6  C   UNL     1      -5.781   1.349   4.155  0.00  0.00    +0.015 C 
ATOM      7  C   UNL     1      -6.488   1.873   5.407  0.00  0.00    +0.018 C 
ATOM      8  C   UNL     1      -7.623   0.916   5.786  0.00  0.00    +0.109 C 
ATOM      9  N   UNL     1      -8.504   0.743   4.623  0.00  0.00    -0.176 NA
ATOM     10  C   UNL     1      -7.912   0.328   3.343  0.00  0.00    +0.122 C 
BRANCH   9  11
ATOM     11  S   UNL     1     -10.133   1.009   4.751  0.00  0.00    +0.061 S 
ATOM     12  O   UNL     1     -10.750   0.256   3.716  0.00  0.00    -0.153 OA
ATOM     13  O   UNL     1     -10.466   0.836   6.122  0.00  0.00    -0.153 OA
BRANCH  11  14
ATOM     14  C   UNL     1     -10.414   2.707   4.375  0.00  0.00    +0.106 A 
ATOM     15  C   UNL     1     -10.394   3.651   5.385  0.00  0.00    +0.031 A 
ATOM     16  C   UNL     1     -10.609   4.984   5.091  0.00  0.00    +0.040 A 
ATOM     17  C   UNL     1     -10.857   5.373   3.785  0.00  0.00    +0.124 A 
ATOM     18  C   UNL     1     -10.883   4.426   2.775  0.00  0.00    +0.040 A 
ATOM     19  C   UNL     1     -10.661   3.094   3.071  0.00  0.00    +0.031 A 
ATOM     20  F   UNL     1     -11.073   6.675   3.497  0.00  0.00    -0.205 F 
ENDBRANCH  11  14
ENDBRANCH   9  11
ENDBRANCH   2   5
BRANCH   1  22
ATOM     21  C   UNL     1      -5.080   1.534  -1.190  0.00  0.00    +0.028 C 
ATOM     22  C   UNL     1      -4.340   1.027   0.049  0.00  0.00    +0.076 C 
BRANCH  22  23
ATOM     23  C   UNL     1      -2.904   1.556   0.038  0.00  0.00    -0.010 C 
ATOM     24  C   UNL     1      -2.188   1.063  -1.221  0.00  0.00    +0.012 C 
ATOM     25  C   UNL     1      -0.753   1.593  -1.232  0.00  0.00    -0.010 C 
ATOM     26  C   UNL     1      -0.013   1.086   0.008  0.00  0.00    +0.007 C 
ATOM     27  C   UNL     1      -0.729   1.579   1.267  0.00  0.00    -0.010 C 
ATOM     28  C   UNL     1      -2.164   1.050   1.278  0.00  0.00    +0.012 C 
ATOM     29  C   UNL     1      -0.750   3.109   1.275  0.00  0.00    +0.007 C 
ATOM     30  C   UNL     1      -1.490   3.616   0.036  0.00  0.00    -0.010 C 
ATOM     31  C   UNL     1      -0.773   3.123  -1.223  0.00  0.00    +0.007 C 
ATOM     32  C   UNL     1      -2.925   3.086   0.047  0.00  0.00    +0.012 C 
ENDBRANCH  22  23
ENDBRANCH   1  22
TORSDOF 5
