REMARK  Name = ZINC39667578
REMARK  10 active torsions:
REMARK  status: ('A' for Active; 'I' for Inactive)
REMARK    1  A    between atoms: C_1  and  C_2
REMARK    2  A    between atoms: C_6  and  C_9
REMARK    3  A    between atoms: C_7  and  C_8
REMARK    4  A    between atoms: C_9  and  N_10
REMARK    5  A    between atoms: C_11  and  C_13
REMARK    6  A    between atoms: C_24  and  C_26
REMARK    7  A    between atoms: C_30  and  O_33
REMARK    8  A    between atoms: C_31  and  C_32
REMARK    9  A    between atoms: O_33  and  C_34
REMARK   10  A    between atoms: C_34  and  C_36
REMARK                            x       y       z     vdW  Elec       q    Type
REMARK                         _______ _______ _______ _____ _____    ______ ____
ROOT
ATOM      1  C   UNL     1      -3.299  -3.949   5.019  0.00  0.00    +0.100 C 
ATOM      2  C   UNL     1      -3.628  -2.487   5.398  0.00  0.00    +0.121 C 
ATOM      3  N   UNL     1      -4.465  -2.596   6.616  0.00  0.00    -0.296 N 
ATOM      4  C   UNL     1      -3.844  -3.696   7.393  0.00  0.00    +0.115 C 
ATOM      5  C   UNL     1      -3.440  -4.738   6.332  0.00  0.00    -0.004 C 
ATOM      6  C   UNL     1      -2.110  -5.384   6.706  0.00  0.00    -0.010 C 
ATOM      7  C   UNL     1      -2.290  -6.211   7.982  0.00  0.00    -0.082 C 
ATOM      8  N   UNL     1      -3.311  -7.242   7.759  0.00  0.00    +0.379 N 
ATOM      9  C   UNL     1      -4.609  -6.610   7.491  0.00  0.00    -0.082 C 
ATOM     10  C   UNL     1      -4.527  -5.800   6.194  0.00  0.00    -0.010 C 
ATOM     11  C   UNL     1      -5.546  -1.861   6.944  0.00  0.00    +0.247 C 
ATOM     12  O   UNL     1      -6.073  -2.007   8.030  0.00  0.00    -0.270 OA
ATOM     13  H   UNL     1      -3.046  -7.811   6.970  0.00  0.00    -0.086 HD
ATOM     14  H   UNL     1      -3.385  -7.823   8.580  0.00  0.00    -0.086 HD
ENDROOT
BRANCH  11  15
ATOM     15  C   UNL     1      -6.090  -0.877   5.984  0.00  0.00    +0.043 A 
ATOM     16  C   UNL     1      -5.228  -0.153   5.159  0.00  0.00    +0.013 A 
ATOM     17  C   UNL     1      -5.739   0.764   4.264  0.00  0.00    +0.004 A 
ATOM     18  C   UNL     1      -7.104   0.968   4.180  0.00  0.00    +0.047 A 
ATOM     19  C   UNL     1      -7.969   0.252   4.996  0.00  0.00    +0.135 A 
ATOM     20  C   UNL     1      -7.467  -0.674   5.895  0.00  0.00    +0.004 A 
ATOM     21  C   UNL     1      -8.405  -1.456   6.778  0.00  0.00    +0.048 C 
BRANCH  19  22
ATOM     22  O   UNL     1      -9.310   0.457   4.910  0.00  0.00    -0.426 OA
BRANCH  22  23
ATOM     23  C   UNL     1      -9.867   1.349   5.745  0.00  0.00    +0.309 C 
ATOM     24  O   UNL     1      -9.168   2.010   6.477  0.00  0.00    -0.251 OA
ATOM     25  C   UNL     1     -11.363   1.528   5.769  0.00  0.00    +0.136 C 
ENDBRANCH  22  23
ENDBRANCH  19  22
ENDBRANCH  11  15
BRANCH   1  27
ATOM     26  N   UNL     1      -1.560  -5.031   3.632  0.00  0.00    -0.311 N 
ATOM     27  C   UNL     1      -1.889  -4.050   4.496  0.00  0.00    +0.218 C 
ATOM     28  O   UNL     1      -1.051  -3.249   4.851  0.00  0.00    -0.275 OA
ATOM     29  H   UNL     1      -2.230  -5.672   3.348  0.00  0.00    +0.149 HD
BRANCH  26  30
ATOM     30  C   UNL     1      -0.190  -5.129   3.123  0.00  0.00    +0.139 C 
BRANCH  30  36
ATOM     31  C   UNL     1      -0.913  -7.128  -1.408  0.00  0.00    +0.044 C 
ATOM     32  C   UNL     1      -0.433  -7.258   0.015  0.00  0.00    -0.047 A 
ATOM     33  C   UNL     1       0.102  -8.454   0.457  0.00  0.00    +0.003 A 
ATOM     34  C   UNL     1       0.542  -8.574   1.761  0.00  0.00    +0.001 A 
ATOM     35  C   UNL     1       0.448  -7.498   2.624  0.00  0.00    +0.005 A 
ATOM     36  C   UNL     1      -0.086  -6.302   2.182  0.00  0.00    -0.027 A 
ATOM     37  C   UNL     1      -0.523  -6.181   0.876  0.00  0.00    -0.043 A 
ATOM     38  C   UNL     1      -1.101  -4.876   0.392  0.00  0.00    +0.044 C 
ENDBRANCH  30  36
ENDBRANCH  26  30
ENDBRANCH   1  27
TORSDOF 6
