REMARK  Name = ZINC39926669
REMARK  8 active torsions:
REMARK  status: ('A' for Active; 'I' for Inactive)
REMARK    1  A    between atoms: C_1  and  C_2
REMARK    2  A    between atoms: C_2  and  O_3
REMARK    3  A    between atoms: O_3  and  C_4
REMARK    4  A    between atoms: C_4  and  C_6
REMARK    5  A    between atoms: C_17  and  N_19
REMARK    6  A    between atoms: C_20  and  C_22
REMARK    7  A    between atoms: C_22  and  C_33
REMARK    8  A    between atoms: C_23  and  C_24
REMARK                            x       y       z     vdW  Elec       q    Type
REMARK                         _______ _______ _______ _____ _____    ______ ____
ROOT
ATOM      1  N   UNL     1      -4.920  -1.359   0.925  0.00  0.00    -0.298 N 
ATOM      2  C   UNL     1      -6.018  -1.678   1.638  0.00  0.00    +0.255 C 
ATOM      3  O   UNL     1      -5.932  -2.448   2.575  0.00  0.00    -0.269 OA
ATOM      4  H   UNL     1      -4.989  -0.744   0.178  0.00  0.00    +0.150 HD
ENDROOT
BRANCH   1  13
ATOM      5  C   UNL     1      -2.881  -2.427   0.017  0.00  0.00    +0.132 C 
ATOM      6  C   UNL     1      -2.762  -3.962  -0.053  0.00  0.00    +0.018 C 
ATOM      7  C   UNL     1      -4.060  -4.466  -0.690  0.00  0.00    +0.005 C 
ATOM      8  C   UNL     1      -4.171  -5.984  -0.596  0.00  0.00    +0.000 C 
ATOM      9  C   UNL     1      -4.231  -6.368   0.888  0.00  0.00    +0.001 C 
ATOM     10  C   UNL     1      -2.897  -5.980   1.524  0.00  0.00    +0.014 C 
ATOM     11  C   UNL     1      -2.581  -4.510   1.378  0.00  0.00    +0.052 C 
ATOM     12  S   UNL     1      -3.812  -3.478   2.276  0.00  0.00    -0.134 S 
ATOM     13  C   UNL     1      -3.622  -1.939   1.279  0.00  0.00    +0.145 C 
BRANCH   5  14
ATOM     14  C   UNL     1      -1.496  -1.832   0.006  0.00  0.00    +0.313 C 
ATOM     15  O   UNL     1      -0.528  -2.555  -0.007  0.00  0.00    -0.250 OA
BRANCH  14  16
ATOM     16  O   UNL     1      -1.339  -0.499   0.012  0.00  0.00    -0.465 OA
BRANCH  16  18
ATOM     17  C   UNL     1      -0.019   1.526   0.010  0.00  0.00    +0.048 C 
ATOM     18  C   UNL     1       0.002  -0.004   0.002  0.00  0.00    +0.229 C 
ENDBRANCH  16  18
ENDBRANCH  14  16
ENDBRANCH   5  14
ENDBRANCH   1  13
BRANCH   2  19
ATOM     19  C   UNL     1      -7.323  -1.094   1.283  0.00  0.00    +0.114 C 
ATOM     20  C   UNL     1      -8.453  -1.423   2.016  0.00  0.00    +0.030 C 
BRANCH  20  21
ATOM     21  C   UNL     1      -9.692  -0.868   1.678  0.00  0.00    -0.018 C 
ATOM     22  C   UNL     1     -10.912  -1.086   2.309  0.00  0.00    +0.003 A 
ATOM     23  C   UNL     1     -11.292  -1.876   3.415  0.00  0.00    +0.010 A 
ATOM     24  C   UNL     1     -12.582  -1.903   3.824  0.00  0.00    +0.001 A 
ATOM     25  C   UNL     1     -13.587  -1.165   3.186  0.00  0.00    +0.002 A 
ATOM     26  C   UNL     1     -13.326  -0.377   2.118  0.00  0.00    +0.026 A 
ATOM     27  C   UNL     1     -11.949  -0.293   1.611  0.00  0.00    +0.043 A 
ATOM     28  N   UNL     1     -11.425   0.374   0.618  0.00  0.00    -0.380 N 
ATOM     29  C   UNL     1      -9.986   0.101   0.553  0.00  0.00    +0.149 C 
ATOM     30  H   UNL     1     -11.911   0.962   0.019  0.00  0.00    +0.160 HD
ENDBRANCH  20  21
BRANCH  19  31
ATOM     31  C   UNL     1      -7.425  -0.187   0.179  0.00  0.00    +0.104 C 
ATOM     32  N   UNL     1      -7.505   0.533  -0.696  0.00  0.00    -0.191 NA
ENDBRANCH  19  31
ENDBRANCH   2  19
TORSDOF 7
