REMARK  Name = ZINC13336402
REMARK  14 active torsions:
REMARK  status: ('A' for Active; 'I' for Inactive)
REMARK    1  A    between atoms: C_1  and  C_2
REMARK    2  A    between atoms: C_2  and  C_4
REMARK    3  A    between atoms: C_2  and  N_7
REMARK    4  A    between atoms: C_17  and  S_18
REMARK    5  A    between atoms: S_18  and  C_19
REMARK    6  A    between atoms: C_19  and  C_20
REMARK    7  A    between atoms: N_22  and  C_23
REMARK    8  A    between atoms: C_23  and  C_25
REMARK    9  A    between atoms: C_23  and  C_29
REMARK   10  A    between atoms: C_25  and  C_26
REMARK   11  A    between atoms: C_26  and  C_27
REMARK   12  A    between atoms: C_26  and  C_28
REMARK   13  A    between atoms: C_29  and  O_31
REMARK   14  A    between atoms: O_31  and  C_32
REMARK                            x       y       z     vdW  Elec       q    Type
REMARK                         _______ _______ _______ _____ _____    ______ ____
ROOT
ATOM      1  N   UNL     1      -1.372  -0.511   0.012  0.00  0.00    -0.273 N 
ATOM      2  C   UNL     1      -2.198  -0.194   1.037  0.00  0.00    +0.263 A 
ATOM      3  O   UNL     1      -1.822   0.509   1.956  0.00  0.00    -0.267 OA
ATOM      4  C   UNL     1      -3.566  -0.729   0.996  0.00  0.00    +0.065 A 
ATOM      5  C   UNL     1      -4.492  -0.459   2.002  0.00  0.00    +0.015 A 
ATOM      6  C   UNL     1      -5.753  -0.982   1.915  0.00  0.00    +0.001 A 
ATOM      7  C   UNL     1      -6.118  -1.778   0.837  0.00  0.00    +0.002 A 
ATOM      8  C   UNL     1      -5.230  -2.058  -0.163  0.00  0.00    +0.028 A 
ATOM      9  C   UNL     1      -3.934  -1.538  -0.103  0.00  0.00    +0.079 A 
ATOM     10  N   UNL     1      -3.026  -1.788  -1.068  0.00  0.00    -0.223 NA
ATOM     11  C   UNL     1      -1.813  -1.296  -1.014  0.00  0.00    +0.173 A 
ENDROOT
BRANCH   1  13
ATOM     12  C   UNL     1      -0.019   1.526   0.010  0.00  0.00    +0.043 C 
ATOM     13  C   UNL     1       0.002  -0.004   0.002  0.00  0.00    +0.202 C 
BRANCH  13  14
ATOM     14  C   UNL     1       0.731  -0.503   1.223  0.00  0.00    +0.378 C 
ATOM     15  O   UNL     1       0.115  -1.060   2.115  0.00  0.00    -0.244 OA
ATOM     16  O   UNL     1       1.937  -0.350   1.318  0.00  0.00    -0.244 OA
ENDBRANCH  13  14
ENDBRANCH   1  13
BRANCH  11  17
ATOM     17  S   UNL     1      -0.696  -1.672  -2.324  0.00  0.00    -0.078 S 
BRANCH  17  18
ATOM     18  C   UNL     1      -1.669  -2.713  -3.446  0.00  0.00    +0.173 C 
BRANCH  18  19
ATOM     19  C   UNL     1      -0.820  -3.110  -4.626  0.00  0.00    +0.224 C 
ATOM     20  O   UNL     1       0.328  -2.728  -4.703  0.00  0.00    -0.275 OA
ATOM     21  N   UNL     1      -1.337  -3.890  -5.597  0.00  0.00    -0.302 N 
ATOM     22  H   UNL     1      -2.256  -4.195  -5.535  0.00  0.00    +0.150 HD
BRANCH  21  23
ATOM     23  C   UNL     1      -0.512  -4.275  -6.744  0.00  0.00    +0.182 C 
BRANCH  23  24
ATOM     24  C   UNL     1      -1.036  -5.561  -7.330  0.00  0.00    +0.327 C 
ATOM     25  O   UNL     1      -1.999  -6.100  -6.839  0.00  0.00    -0.249 OA
BRANCH  24  26
ATOM     26  O   UNL     1      -0.431  -6.108  -8.396  0.00  0.00    -0.467 OA
ATOM     27  C   UNL     1      -0.981  -7.328  -8.899  0.00  0.00    +0.280 C 
ENDBRANCH  24  26
ENDBRANCH  23  24
BRANCH  23  28
ATOM     28  C   UNL     1      -0.565  -3.173  -7.804  0.00  0.00    +0.036 C 
BRANCH  28  29
ATOM     29  C   UNL     1       0.080  -1.902  -7.250  0.00  0.00    -0.015 C 
ATOM     30  C   UNL     1       1.569  -2.152  -7.001  0.00  0.00    +0.007 C 
ATOM     31  C   UNL     1      -0.083  -0.765  -8.261  0.00  0.00    +0.007 C 
ENDBRANCH  28  29
ENDBRANCH  23  28
ENDBRANCH  21  23
ENDBRANCH  18  19
ENDBRANCH  17  18
ENDBRANCH  11  17
TORSDOF 10
