REMARK  Name = ZINC39887478
REMARK  6 active torsions:
REMARK  status: ('A' for Active; 'I' for Inactive)
REMARK    1  A    between atoms: C_1  and  C_2
REMARK    2  A    between atoms: C_5  and  C_35
REMARK    3  A    between atoms: C_6  and  N_8
REMARK    4  A    between atoms: C_9  and  C_19
REMARK    5  A    between atoms: C_14  and  C_17
REMARK    6  A    between atoms: C_25  and  C_28
REMARK                            x       y       z     vdW  Elec       q    Type
REMARK                         _______ _______ _______ _____ _____    ______ ____
ROOT
ATOM      1  N   UNL     1       0.324  -2.663   2.191  0.00  0.00    -0.270 N 
ATOM      2  C   UNL     1       1.539  -3.151   2.852  0.00  0.00    +0.197 C 
ATOM      3  N   UNL     1       1.360  -4.549   3.247  0.00  0.00    -0.288 N 
ATOM      4  C   UNL     1       0.140  -5.020   3.572  0.00  0.00    +0.258 C 
ATOM      5  O   UNL     1       0.007  -6.173   3.941  0.00  0.00    -0.269 OA
ATOM      6  C   UNL     1      -1.025  -4.137   3.480  0.00  0.00    +0.142 C 
ATOM      7  C   UNL     1      -0.895  -2.933   2.762  0.00  0.00    +0.103 C 
ATOM      8  S   UNL     1      -2.246  -1.813   2.599  0.00  0.00    -0.033 SA
ATOM      9  H   UNL     1       2.127  -5.142   3.274  0.00  0.00    +0.151 HD
ENDROOT
BRANCH   2  10
ATOM     10  C   UNL     1       1.811  -2.316   4.077  0.00  0.00    -0.008 A 
ATOM     11  C   UNL     1       1.271  -1.031   4.159  0.00  0.00    +0.009 A 
ATOM     12  C   UNL     1       1.481  -0.234   5.236  0.00  0.00    +0.032 A 
ATOM     13  C   UNL     1       2.267  -0.708   6.311  0.00  0.00    +0.114 A 
ATOM     14  C   UNL     1       2.835  -2.064   6.222  0.00  0.00    +0.049 A 
ATOM     15  C   UNL     1       2.571  -2.836   5.075  0.00  0.00    +0.021 A 
ATOM     16  C   UNL     1       3.553  -2.270   7.398  0.00  0.00    +0.175 A 
ATOM     17  O   UNL     1       3.445  -1.160   8.143  0.00  0.00    -0.353 OA
ATOM     18  N   UNL     1       2.652  -0.205   7.465  0.00  0.00    -0.078 NA
BRANCH  16  19
ATOM     19  C   UNL     1       4.298  -3.489   7.758  0.00  0.00    +0.021 A 
ATOM     20  C   UNL     1       4.149  -4.053   9.029  0.00  0.00    +0.013 A 
ATOM     21  C   UNL     1       4.849  -5.194   9.359  0.00  0.00    +0.021 A 
ATOM     22  C   UNL     1       5.698  -5.782   8.435  0.00  0.00    +0.041 A 
ATOM     23  C   UNL     1       5.850  -5.228   7.175  0.00  0.00    +0.021 A 
ATOM     24  C   UNL     1       5.153  -4.090   6.829  0.00  0.00    +0.013 A 
ATOM     25 CL   UNL     1       6.575  -7.218   8.860  0.00  0.00    -0.084 Cl
ENDBRANCH  16  19
ENDBRANCH   2  10
BRANCH   1  31
ATOM     26  C   UNL     1       0.334   1.678  -0.115  0.00  0.00    +0.044 C 
ATOM     27  C   UNL     1       0.413   0.174  -0.146  0.00  0.00    -0.049 A 
ATOM     28  C   UNL     1       0.567  -0.486  -1.352  0.00  0.00    +0.004 A 
ATOM     29  C   UNL     1       0.640  -1.866  -1.384  0.00  0.00    +0.005 A 
ATOM     30  C   UNL     1       0.559  -2.591  -0.211  0.00  0.00    -0.029 A 
ATOM     31  C   UNL     1       0.405  -1.932   1.001  0.00  0.00    +0.040 A 
ATOM     32  C   UNL     1       0.338  -0.545   1.031  0.00  0.00    +0.027 A 
ATOM     33  C   UNL     1       0.638  -4.096  -0.248  0.00  0.00    +0.045 C 
ENDBRANCH   1  31
BRANCH   6  34
ATOM     34  C   UNL     1      -2.264  -4.486   4.108  0.00  0.00    +0.107 C 
ATOM     35  N   UNL     1      -3.246  -4.764   4.606  0.00  0.00    -0.191 NA
ENDBRANCH   6  34
TORSDOF 4
