REMARK  Name = ZINC39490839
REMARK  11 active torsions:
REMARK  status: ('A' for Active; 'I' for Inactive)
REMARK    1  A    between atoms: C_1  and  C_2
REMARK    2  A    between atoms: C_2  and  O_3
REMARK    3  A    between atoms: O_3  and  N_4
REMARK    4  A    between atoms: C_7  and  C_10
REMARK    5  A    between atoms: C_7  and  C_29
REMARK    6  A    between atoms: C_10  and  N_11
REMARK    7  A    between atoms: N_14  and  O_28
REMARK    8  A    between atoms: C_16  and  C_17
REMARK    9  A    between atoms: C_16  and  S_18
REMARK   10  A    between atoms: S_18  and  O_21
REMARK   11  A    between atoms: O_21  and  C_22
REMARK                            x       y       z     vdW  Elec       q    Type
REMARK                         _______ _______ _______ _____ _____    ______ ____
ROOT
ATOM      1  N   UNL     1       3.786  -4.488  -3.125  0.00  0.00    -0.255 N 
ATOM      2  C   UNL     1       4.547  -3.953  -2.161  0.00  0.00    +0.329 C 
ATOM      3  O   UNL     1       4.232  -2.951  -1.548  0.00  0.00    -0.250 OA
ATOM      4  N   UNL     1       5.685  -4.621  -1.933  0.00  0.00    -0.164 N 
ATOM      5  C   UNL     1       5.757  -5.776  -2.840  0.00  0.00    +0.194 C 
ATOM      6  C   UNL     1       4.451  -5.689  -3.653  0.00  0.00    +0.209 C 
ATOM      7  C   UNL     1       3.585  -6.929  -3.419  0.00  0.00    +0.063 C 
ENDROOT
BRANCH   6   8
ATOM      8  S   UNL     1       4.816  -5.490  -5.419  0.00  0.00    +0.145 S 
ATOM      9  O   UNL     1       3.610  -5.323  -6.152  0.00  0.00    -0.135 OA
ATOM     10  O   UNL     1       5.902  -4.591  -5.596  0.00  0.00    -0.135 OA
BRANCH   8  11
ATOM     11  O   UNL     1       5.356  -6.843  -5.861  0.00  0.00    -0.345 OA
BRANCH  11  12
ATOM     12  C   UNL     1       6.631  -7.087  -5.460  0.00  0.00    +0.156 A 
ATOM     13  C   UNL     1       7.697  -6.583  -6.190  0.00  0.00    +0.048 A 
ATOM     14  C   UNL     1       8.993  -6.833  -5.779  0.00  0.00    +0.004 A 
ATOM     15  C   UNL     1       9.226  -7.585  -4.643  0.00  0.00    +0.000 A 
ATOM     16  C   UNL     1       8.165  -8.088  -3.913  0.00  0.00    +0.004 A 
ATOM     17  C   UNL     1       6.867  -7.836  -4.316  0.00  0.00    +0.048 A 
ENDBRANCH  11  12
ENDBRANCH   8  11
ENDBRANCH   6   8
BRANCH   4  18
ATOM     18  O   UNL     1       6.664  -4.270  -0.973  0.00  0.00    -0.291 OA
ATOM     19  H   UNL     1       6.449  -3.476  -0.463  0.00  0.00    +0.242 HD
ENDBRANCH   4  18
BRANCH   1  20
ATOM     20  C   UNL     1       2.495  -3.965  -3.576  0.00  0.00    +0.119 C 
BRANCH  20  24
ATOM     21  N   UNL     1       0.677  -1.547  -1.773  0.00  0.00    -0.188 NA
ATOM     22  C   UNL     1       1.978  -2.088  -1.357  0.00  0.00    +0.115 C 
ATOM     23  C   UNL     1       1.868  -3.604  -1.183  0.00  0.00    +0.026 C 
ATOM     24  C   UNL     1       1.433  -4.235  -2.508  0.00  0.00    -0.008 C 
ATOM     25  C   UNL     1       0.101  -3.619  -2.944  0.00  0.00    +0.026 C 
ATOM     26  C   UNL     1       0.261  -2.102  -3.067  0.00  0.00    +0.115 C 
BRANCH  24  27
ATOM     27  C   UNL     1       1.263  -5.745  -2.325  0.00  0.00    -0.003 C 
ATOM     28  C   UNL     1       0.648  -6.346  -3.590  0.00  0.00    +0.004 C 
ATOM     29  C   UNL     1       0.478  -7.855  -3.407  0.00  0.00    +0.000 C 
ATOM     30  C   UNL     1      -0.443  -8.124  -2.215  0.00  0.00    +0.000 C 
ATOM     31  C   UNL     1       0.172  -7.522  -0.950  0.00  0.00    +0.000 C 
ATOM     32  C   UNL     1       0.342  -6.013  -1.133  0.00  0.00    +0.004 C 
ENDBRANCH  24  27
BRANCH  21  33
ATOM     33  O   UNL     1       0.707  -0.085  -1.816  0.00  0.00    -0.297 OA
BRANCH  33  35
ATOM     34  C   UNL     1      -0.054   2.062  -1.008  0.00  0.00    +0.036 C 
ATOM     35  C   UNL     1      -0.167   0.542  -0.875  0.00  0.00    +0.182 C 
ENDBRANCH  33  35
ENDBRANCH  21  33
ENDBRANCH  20  24
ENDBRANCH   1  20
TORSDOF 9
