REMARK  Name = ZINC35815624
REMARK  15 active torsions:
REMARK  status: ('A' for Active; 'I' for Inactive)
REMARK    1  A    between atoms: C_1  and  C_2
REMARK    2  A    between atoms: C_5  and  C_8
REMARK    3  A    between atoms: C_8  and  N_9
REMARK    4  A    between atoms: N_9  and  C_10
REMARK    5  A    between atoms: N_9  and  C_25
REMARK    6  A    between atoms: C_10  and  C_11
REMARK    7  A    between atoms: C_11  and  C_12
REMARK    8  A    between atoms: C_12  and  C_13
REMARK    9  A    between atoms: C_12  and  C_19
REMARK   10  A    between atoms: C_25  and  C_26
REMARK   11  A    between atoms: C_28  and  C_31
REMARK   12  A    between atoms: N_33  and  C_34
REMARK   13  A    between atoms: C_34  and  C_35
REMARK   14  A    between atoms: C_35  and  C_36
REMARK   15  A    between atoms: C_35  and  C_37
REMARK                            x       y       z     vdW  Elec       q    Type
REMARK                         _______ _______ _______ _____ _____    ______ ____
ROOT
ATOM      1  N   UNL     1       3.368  -5.241   1.372  0.00  0.00    +0.386 N 
ATOM      2  H   UNL     1       3.875  -4.547   0.843  0.00  0.00    -0.081 HD
ENDROOT
BRANCH   1   3
ATOM      3  C   UNL     1       2.478  -4.572   2.330  0.00  0.00    -0.042 C 
BRANCH   3   8
ATOM      4  C   UNL     1       5.558  -0.972   5.638  0.00  0.00    +0.044 C 
ATOM      5  C   UNL     1       4.754  -1.911   4.776  0.00  0.00    -0.050 A 
ATOM      6  C   UNL     1       4.335  -1.508   3.521  0.00  0.00    +0.003 A 
ATOM      7  C   UNL     1       3.598  -2.370   2.730  0.00  0.00    +0.002 A 
ATOM      8  C   UNL     1       3.281  -3.633   3.193  0.00  0.00    -0.064 A 
ATOM      9  C   UNL     1       3.702  -4.036   4.447  0.00  0.00    +0.002 A 
ATOM     10  C   UNL     1       4.442  -3.176   5.236  0.00  0.00    +0.003 A 
ENDBRANCH   3   8
ENDBRANCH   1   3
BRANCH   1  11
ATOM     11  C   UNL     1       2.570  -6.067   0.457  0.00  0.00    -0.077 C 
BRANCH  11  12
ATOM     12  C   UNL     1       1.669  -5.167  -0.390  0.00  0.00    -0.006 C 
BRANCH  12  13
ATOM     13  C   UNL     1       0.838  -6.027  -1.343  0.00  0.00    +0.047 C 
BRANCH  13  14
ATOM     14  C   UNL     1      -0.102  -6.896  -0.546  0.00  0.00    -0.040 A 
ATOM     15  C   UNL     1      -0.093  -8.267  -0.724  0.00  0.00    +0.004 A 
ATOM     16  C   UNL     1      -0.955  -9.063   0.007  0.00  0.00    +0.000 A 
ATOM     17  C   UNL     1      -1.824  -8.489   0.916  0.00  0.00    +0.000 A 
ATOM     18  C   UNL     1      -1.832  -7.118   1.094  0.00  0.00    +0.000 A 
ATOM     19  C   UNL     1      -0.967  -6.322   0.366  0.00  0.00    +0.004 A 
ENDBRANCH  13  14
BRANCH  13  20
ATOM     20  C   UNL     1       0.041  -5.136  -2.260  0.00  0.00    -0.040 A 
ATOM     21  C   UNL     1      -0.735  -4.120  -1.734  0.00  0.00    +0.004 A 
ATOM     22  C   UNL     1      -1.466  -3.302  -2.576  0.00  0.00    +0.000 A 
ATOM     23  C   UNL     1      -1.420  -3.499  -3.943  0.00  0.00    +0.000 A 
ATOM     24  C   UNL     1      -0.643  -4.515  -4.469  0.00  0.00    +0.000 A 
ATOM     25  C   UNL     1       0.091  -5.330  -3.628  0.00  0.00    +0.004 A 
ENDBRANCH  13  20
ENDBRANCH  12  13
ENDBRANCH  11  12
ENDBRANCH   1  11
BRANCH   1  26
ATOM     26  C   UNL     1       4.318  -6.093   2.099  0.00  0.00    -0.014 C 
BRANCH  26  27
ATOM     27  C   UNL     1       5.313  -6.677   1.130  0.00  0.00    +0.063 A 
ATOM     28  N   UNL     1       6.412  -6.136   0.680  0.00  0.00    -0.241 NA
ATOM     29  C   UNL     1       7.157  -6.834  -0.182  0.00  0.00    +0.133 A 
ATOM     30  C   UNL     1       6.686  -8.075  -0.517  0.00  0.00    +0.079 A 
ATOM     31  S   UNL     1       5.270  -8.179   0.382  0.00  0.00    -0.082 S 
BRANCH  29  32
ATOM     32  C   UNL     1       8.412  -6.300  -0.739  0.00  0.00    +0.263 C 
ATOM     33  O   UNL     1       9.013  -6.925  -1.592  0.00  0.00    -0.269 OA
ATOM     34  N   UNL     1       8.893  -5.119  -0.304  0.00  0.00    -0.310 N 
ATOM     35  H   UNL     1       8.453  -4.655   0.425  0.00  0.00    +0.149 HD
BRANCH  34  36
ATOM     36  C   UNL     1      10.081  -4.536  -0.933  0.00  0.00    +0.107 C 
BRANCH  36  37
ATOM     37  C   UNL     1      10.414  -3.205  -0.257  0.00  0.00    -0.000 C 
ATOM     38  C   UNL     1      10.810  -3.457   1.199  0.00  0.00    +0.009 C 
ATOM     39  C   UNL     1      11.577  -2.536  -0.993  0.00  0.00    +0.009 C 
ENDBRANCH  36  37
ENDBRANCH  34  36
ENDBRANCH  29  32
ENDBRANCH  26  27
ENDBRANCH   1  26
TORSDOF 12
