REMARK  Name = ZINC09776253
REMARK  6 active torsions:
REMARK  status: ('A' for Active; 'I' for Inactive)
REMARK    1  A    between atoms: C_1  and  O_2
REMARK    2  A    between atoms: O_2  and  C_3
REMARK    3  A    between atoms: C_6  and  C_9
REMARK    4  A    between atoms: C_11  and  C_28
REMARK    5  A    between atoms: N_21  and  C_22
REMARK    6  A    between atoms: N_33  and  C_36
REMARK                            x       y       z     vdW  Elec       q    Type
REMARK                         _______ _______ _______ _____ _____    ______ ____
ROOT
ATOM      1  C   UNL     1      -3.466   0.544  -3.394  0.00  0.00    +0.123 C 
ATOM      2  C   UNL     1      -3.228   1.061  -4.810  0.00  0.00    +0.131 C 
ATOM      3  C   UNL     1      -3.687   2.491  -4.924  0.00  0.00    -0.021 A 
ATOM      4  C   UNL     1      -4.209   2.970  -6.107  0.00  0.00    +0.005 A 
ATOM      5  C   UNL     1      -4.616   4.290  -6.199  0.00  0.00    +0.000 A 
ATOM      6  C   UNL     1      -4.503   5.135  -5.109  0.00  0.00    +0.001 A 
ATOM      7  C   UNL     1      -3.986   4.667  -3.918  0.00  0.00    +0.013 A 
ATOM      8  C   UNL     1      -3.580   3.337  -3.819  0.00  0.00    +0.041 A 
ATOM      9  C   UNL     1      -3.046   2.799  -2.549  0.00  0.00    +0.248 C 
ATOM     10  O   UNL     1      -2.722   3.551  -1.651  0.00  0.00    -0.270 OA
ATOM     11  N   UNL     1      -2.919   1.467  -2.401  0.00  0.00    -0.286 N 
ENDROOT
BRANCH   2  12
ATOM     12  C   UNL     1      -1.758   0.982  -5.131  0.00  0.00    +0.225 C 
ATOM     13  O   UNL     1      -1.054   1.961  -4.997  0.00  0.00    -0.275 OA
ATOM     14  N   UNL     1      -1.224  -0.177  -5.565  0.00  0.00    -0.298 N 
ATOM     15  C   UNL     1      -2.074  -1.350  -5.820  0.00  0.00    +0.126 C 
ATOM     16  C   UNL     1      -1.758  -1.877  -7.229  0.00  0.00    +0.125 C 
ATOM     17  N   UNL     1      -0.314  -2.119  -7.344  0.00  0.00    -0.314 N 
ATOM     18  C   UNL     1       0.449  -0.873  -7.196  0.00  0.00    +0.125 C 
ATOM     19  C   UNL     1       0.224  -0.304  -5.791  0.00  0.00    +0.126 C 
BRANCH  17  20
ATOM     20  C   UNL     1      -0.009  -2.751  -8.544  0.00  0.00    +0.099 A 
ATOM     21  C   UNL     1      -0.632  -3.951  -8.870  0.00  0.00    +0.042 A 
ATOM     22  C   UNL     1      -0.319  -4.569 -10.067  0.00  0.00    +0.005 A 
ATOM     23  C   UNL     1       0.610  -3.962 -10.902  0.00  0.00    +0.018 A 
ATOM     24  C   UNL     1       1.190  -2.771 -10.516  0.00  0.00    +0.084 A 
ATOM     25  N   UNL     1       0.902  -2.133  -9.350  0.00  0.00    -0.350 N 
ATOM     26  H   UNL     1       1.342  -1.242  -9.093  0.00  0.00    +0.166 HD
ENDBRANCH  17  20
ENDBRANCH   2  12
BRANCH   1  30
ATOM     27  C   UNL     1      -7.668   0.112  -2.745  0.00  0.00    +0.120 A 
ATOM     28  C   UNL     1      -6.900  -0.993  -3.084  0.00  0.00    +0.046 A 
ATOM     29  C   UNL     1      -5.542  -0.850  -3.293  0.00  0.00    +0.009 A 
ATOM     30  C   UNL     1      -4.948   0.392  -3.165  0.00  0.00    -0.026 A 
ATOM     31  C   UNL     1      -5.710   1.493  -2.821  0.00  0.00    +0.009 A 
ATOM     32  C   UNL     1      -7.069   1.357  -2.616  0.00  0.00    +0.046 A 
BRANCH  27  34
ATOM     33  C   UNL     1      -9.732   1.154  -2.192  0.00  0.00    +0.277 C 
ATOM     34  O   UNL     1      -9.004  -0.026  -2.538  0.00  0.00    -0.495 OA
ENDBRANCH  27  34
ENDBRANCH   1  30
BRANCH  11  35
ATOM     35  C   UNL     1      -2.228   0.934  -1.225  0.00  0.00    +0.077 C 
ATOM     36  C   UNL     1      -0.787   1.449  -1.203  0.00  0.00    +0.022 C 
ATOM     37  C   UNL     1      -0.065   0.893   0.026  0.00  0.00    +0.002 C 
ATOM     38  C   UNL     1      -0.789   1.350   1.294  0.00  0.00    +0.000 C 
ATOM     39  C   UNL     1      -2.230   0.835   1.272  0.00  0.00    +0.002 C 
ATOM     40  C   UNL     1      -2.952   1.391   0.043  0.00  0.00    +0.022 C 
ENDBRANCH  11  35
TORSDOF 5
