REMARK  Name = ZINC20114872
REMARK  9 active torsions:
REMARK  status: ('A' for Active; 'I' for Inactive)
REMARK    1  A    between atoms: C_1  and  C_2
REMARK    2  A    between atoms: C_5  and  N_8
REMARK    3  A    between atoms: C_11  and  C_22
REMARK    4  A    between atoms: N_13  and  C_16
REMARK    5  A    between atoms: C_16  and  C_17
REMARK    6  A    between atoms: C_17  and  N_18
REMARK    7  A    between atoms: C_19  and  C_21
REMARK    8  A    between atoms: C_22  and  C_23
REMARK    9  A    between atoms: N_25  and  C_26
REMARK                            x       y       z     vdW  Elec       q    Type
REMARK                         _______ _______ _______ _____ _____    ______ ____
ROOT
ATOM      1  N   UNL     1      -0.114   3.219   2.536  0.00  0.00    -0.220 N 
ATOM      2  C   UNL     1      -1.030   2.650   1.728  0.00  0.00    +0.246 C 
ATOM      3  O   UNL     1      -2.041   3.159   1.294  0.00  0.00    -0.273 OA
ATOM      4  C   UNL     1      -0.533   1.241   1.473  0.00  0.00    +0.171 C 
ATOM      5  N   UNL     1       0.724   1.173   2.240  0.00  0.00    -0.298 N 
ATOM      6  C   UNL     1       0.882   2.374   2.825  0.00  0.00    +0.147 C 
ATOM      7  S   UNL     1       2.211   2.777   3.826  0.00  0.00    -0.018 S 
ENDROOT
BRANCH   1  12
ATOM      8  C   UNL     1      -0.442   8.543   4.474  0.00  0.00    +0.044 C 
ATOM      9  C   UNL     1      -0.355   7.130   3.959  0.00  0.00    -0.050 A 
ATOM     10  C   UNL     1      -0.463   6.067   4.838  0.00  0.00    +0.005 A 
ATOM     11  C   UNL     1      -0.384   4.771   4.370  0.00  0.00    +0.024 A 
ATOM     12  C   UNL     1      -0.195   4.534   3.015  0.00  0.00    +0.043 A 
ATOM     13  C   UNL     1      -0.082   5.602   2.135  0.00  0.00    +0.024 A 
ATOM     14  C   UNL     1      -0.168   6.897   2.609  0.00  0.00    +0.005 A 
ENDBRANCH   1  12
BRANCH   5  15
ATOM     15  C   UNL     1       1.625   0.023   2.344  0.00  0.00    +0.126 C 
BRANCH  15  16
ATOM     16  C   UNL     1       2.715   0.131   1.275  0.00  0.00    +0.123 C 
BRANCH  16  17
ATOM     17  N   UNL     1       3.616  -1.020   1.379  0.00  0.00    -0.314 N 
ATOM     18  C   UNL     1       4.659  -1.137   0.533  0.00  0.00    +0.210 C 
ATOM     19  O   UNL     1       4.851  -0.291  -0.314  0.00  0.00    -0.276 OA
ATOM     20  C   UNL     1       5.585  -2.321   0.640  0.00  0.00    +0.109 C 
ATOM     21  H   UNL     1       3.442  -1.787   2.148  0.00  0.00    +0.149 HD
ENDBRANCH  16  17
ENDBRANCH  15  16
ENDBRANCH   5  15
BRANCH   4  22
ATOM     22  C   UNL     1      -0.266   1.025  -0.018  0.00  0.00    +0.128 C 
BRANCH  22  23
ATOM     23  C   UNL     1      -1.577   0.975  -0.760  0.00  0.00    +0.219 C 
ATOM     24  O   UNL     1      -2.623   0.987  -0.146  0.00  0.00    -0.275 OA
ATOM     25  N   UNL     1      -1.587   0.917  -2.107  0.00  0.00    -0.285 N 
ATOM     26  H   UNL     1      -0.640   0.823  -2.660  0.00  0.00    +0.155 HD
BRANCH  25  27
ATOM     27  C   UNL     1      -2.800   0.977  -2.801  0.00  0.00    +0.033 A 
ATOM     28  C   UNL     1      -2.955   0.280  -3.992  0.00  0.00    +0.024 A 
ATOM     29  C   UNL     1      -4.156   0.336  -4.672  0.00  0.00    +0.017 A 
ATOM     30  C   UNL     1      -5.200   1.095  -4.173  0.00  0.00    +0.018 A 
ATOM     31  C   UNL     1      -5.047   1.794  -2.990  0.00  0.00    +0.017 A 
ATOM     32  C   UNL     1      -3.850   1.737  -2.303  0.00  0.00    +0.024 A 
ATOM     33 BR   UNL     1      -6.840   1.176  -5.112  0.00  0.00    -0.050 Br
ENDBRANCH  25  27
ENDBRANCH  22  23
ENDBRANCH   4  22
TORSDOF 7
