REMARK  Name = ZINC46583200
REMARK  13 active torsions:
REMARK  status: ('A' for Active; 'I' for Inactive)
REMARK    1  A    between atoms: C_1  and  C_2
REMARK    2  A    between atoms: C_2  and  C_4
REMARK    3  A    between atoms: C_2  and  N_19
REMARK    4  A    between atoms: N_6  and  C_7
REMARK    5  A    between atoms: C_7  and  C_8
REMARK    6  A    between atoms: C_8  and  C_9
REMARK    7  A    between atoms: C_12  and  S_15
REMARK    8  A    between atoms: S_15  and  N_18
REMARK    9  A    between atoms: N_19  and  C_20
REMARK   10  A    between atoms: N_19  and  C_21
REMARK   11  A    between atoms: C_21  and  C_22
REMARK   12  A    between atoms: C_25  and  O_28
REMARK   13  A    between atoms: O_28  and  C_29
REMARK                            x       y       z     vdW  Elec       q    Type
REMARK                         _______ _______ _______ _____ _____    ______ ____
ROOT
ATOM      1  C   UNL     1       0.899  -0.290  -1.091  0.00  0.00    +0.199 C 
ATOM      2  O   UNL     1       0.467  -1.049  -1.933  0.00  0.00    -0.278 OA
ATOM      3  N   UNL     1       2.134   0.233  -1.224  0.00  0.00    -0.316 N 
ATOM      4  H   UNL     1       2.479   0.840  -0.550  0.00  0.00    +0.149 HD
ENDROOT
BRANCH   1   6
ATOM      5  C   UNL     1      -0.727   1.353  -0.191  0.00  0.00    -0.004 C 
ATOM      6  C   UNL     1       0.053   0.070   0.104  0.00  0.00    +0.016 C 
BRANCH   6   7
ATOM      7  N   UNL     1      -0.889  -1.022   0.383  0.00  0.00    +0.388 N 
ATOM      8  C   UNL     1      -1.748  -0.650   1.515  0.00  0.00    -0.095 C 
ATOM      9  H   UNL     1      -1.460  -1.191  -0.431  0.00  0.00    -0.081 HD
BRANCH   7  10
ATOM     10  C   UNL     1      -0.140  -2.241   0.717  0.00  0.00    -0.042 C 
BRANCH  10  11
ATOM     11  C   UNL     1      -1.099  -3.395   0.865  0.00  0.00    -0.064 A 
ATOM     12  C   UNL     1      -1.659  -3.673   2.098  0.00  0.00    +0.005 A 
ATOM     13  C   UNL     1      -2.537  -4.730   2.237  0.00  0.00    +0.046 A 
ATOM     14  C   UNL     1      -2.858  -5.513   1.137  0.00  0.00    +0.130 A 
ATOM     15  C   UNL     1      -2.295  -5.232  -0.099  0.00  0.00    +0.046 A 
ATOM     16  C   UNL     1      -1.421  -4.170  -0.234  0.00  0.00    +0.005 A 
BRANCH  14  17
ATOM     17  O   UNL     1      -3.721  -6.553   1.271  0.00  0.00    -0.406 OA
BRANCH  17  18
ATOM     18  C   UNL     1      -4.005  -7.316   0.096  0.00  0.00    +0.575 C 
ATOM     19  F   UNL     1      -2.820  -7.872  -0.396  0.00  0.00    -0.133 F 
ATOM     20  F   UNL     1      -4.905  -8.340   0.411  0.00  0.00    -0.133 F 
ATOM     21  F   UNL     1      -4.568  -6.483  -0.876  0.00  0.00    -0.133 F 
ENDBRANCH  17  18
ENDBRANCH  14  17
ENDBRANCH  10  11
ENDBRANCH   7  10
ENDBRANCH   6   7
ENDBRANCH   1   6
BRANCH   3  22
ATOM     22  C   UNL     1       2.956  -0.117  -2.385  0.00  0.00    +0.109 C 
BRANCH  22  23
ATOM     23  C   UNL     1       4.302   0.606  -2.293  0.00  0.00    +0.054 C 
BRANCH  23  24
ATOM     24  C   UNL     1       5.147   0.246  -3.488  0.00  0.00    -0.046 A 
ATOM     25  C   UNL     1       5.988  -0.850  -3.435  0.00  0.00    +0.005 A 
ATOM     26  C   UNL     1       6.763  -1.180  -4.530  0.00  0.00    +0.029 A 
ATOM     27  C   UNL     1       6.698  -0.414  -5.679  0.00  0.00    +0.105 A 
ATOM     28  C   UNL     1       5.857   0.682  -5.732  0.00  0.00    +0.029 A 
ATOM     29  C   UNL     1       5.078   1.009  -4.638  0.00  0.00    +0.005 A 
BRANCH  27  30
ATOM     30  S   UNL     1       7.688  -0.833  -7.075  0.00  0.00    +0.056 S 
ATOM     31  O   UNL     1       7.849   0.359  -7.832  0.00  0.00    -0.153 OA
ATOM     32  O   UNL     1       8.793  -1.577  -6.581  0.00  0.00    -0.153 OA
BRANCH  30  33
ATOM     33  N   UNL     1       6.799  -1.871  -8.011  0.00  0.00    -0.204 NA
ATOM     34  H   UNL     1       6.928  -1.888  -8.973  0.00  0.00    +0.144 HD
ATOM     35  H   UNL     1       6.149  -2.461  -7.598  0.00  0.00    +0.144 HD
ENDBRANCH  30  33
ENDBRANCH  27  30
ENDBRANCH  23  24
ENDBRANCH  22  23
ENDBRANCH   3  22
TORSDOF 11
