REMARK  Name = ZINC00888574
REMARK  8 active torsions:
REMARK  status: ('A' for Active; 'I' for Inactive)
REMARK    1  A    between atoms: C_5  and  C_7
REMARK    2  A    between atoms: N_10  and  C_12
REMARK    3  A    between atoms: C_12  and  C_13
REMARK    4  A    between atoms: N_15  and  C_16
REMARK    5  A    between atoms: N_15  and  C_26
REMARK    6  A    between atoms: C_26  and  C_28
REMARK    7  A    between atoms: C_26  and  C_33
REMARK    8  A    between atoms: N_35  and  C_36
REMARK                            x       y       z     vdW  Elec       q    Type
REMARK                         _______ _______ _______ _____ _____    ______ ____
ROOT
ATOM      1  C   UNL     1      -2.054  -6.263   1.061  0.00  0.00    +0.244 C 
ATOM      2  O   UNL     1      -1.277  -5.359   1.289  0.00  0.00    -0.273 OA
ATOM      3  N   UNL     1      -2.025  -7.381   1.813  0.00  0.00    -0.253 N 
ENDROOT
BRANCH   3   4
ATOM      4  C   UNL     1      -2.845  -8.469   1.482  0.00  0.00    +0.041 A 
ATOM      5  C   UNL     1      -3.325  -9.305   2.481  0.00  0.00    +0.027 A 
ATOM      6  C   UNL     1      -4.133 -10.377   2.155  0.00  0.00    +0.051 A 
ATOM      7  C   UNL     1      -4.466 -10.622   0.831  0.00  0.00    +0.162 A 
ATOM      8  C   UNL     1      -3.988  -9.785  -0.171  0.00  0.00    +0.164 A 
ATOM      9  C   UNL     1      -3.181  -8.707   0.157  0.00  0.00    +0.073 A 
ATOM     10  O   UNL     1      -4.311 -10.005  -1.474  0.00  0.00    -0.485 OA
ATOM     11  C   UNL     1      -4.817 -11.303  -1.803  0.00  0.00    +0.270 C 
ATOM     12  C   UNL     1      -5.879 -11.682  -0.762  0.00  0.00    +0.270 C 
ATOM     13  O   UNL     1      -5.260 -11.687   0.529  0.00  0.00    -0.485 OA
ENDBRANCH   3   4
BRANCH   1  14
ATOM     14  C   UNL     1      -3.051  -6.135  -0.062  0.00  0.00    +0.264 C 
BRANCH  14  18
ATOM     15  C   UNL     1      -4.615  -2.978   0.136  0.00  0.00    +0.207 A 
ATOM     16  N   UNL     1      -3.612  -2.728  -0.717  0.00  0.00    -0.108 NA
ATOM     17  N   UNL     1      -2.957  -3.828  -0.871  0.00  0.00    -0.045 NA
ATOM     18  N   UNL     1      -3.506  -4.746  -0.154  0.00  0.00    -0.154 N 
ATOM     19  N   UNL     1      -4.516  -4.249   0.473  0.00  0.00    -0.130 NA
BRANCH  15  24
ATOM     20  C   UNL     1      -7.565  -1.516   1.952  0.00  0.00    +0.001 A 
ATOM     21  C   UNL     1      -7.539  -0.207   1.505  0.00  0.00    +0.003 A 
ATOM     22  C   UNL     1      -6.565   0.205   0.614  0.00  0.00    +0.039 A 
ATOM     23  C   UNL     1      -5.612  -0.691   0.165  0.00  0.00    +0.134 A 
ATOM     24  C   UNL     1      -5.635  -2.011   0.614  0.00  0.00    +0.058 A 
ATOM     25  C   UNL     1      -6.619  -2.419   1.511  0.00  0.00    +0.014 A 
ATOM     26  F   UNL     1      -4.661  -0.288  -0.706  0.00  0.00    -0.205 F 
ENDBRANCH  15  24
ENDBRANCH  14  18
ENDBRANCH   1  14
BRANCH   3  27
ATOM     27  C   UNL     1      -1.137  -7.460   2.975  0.00  0.00    +0.204 C 
BRANCH  27  28
ATOM     28  C   UNL     1      -0.285  -8.699   2.874  0.00  0.00    +0.019 A 
ATOM     29  C   UNL     1       0.610  -9.194   3.763  0.00  0.00    +0.013 A 
ATOM     30  C   UNL     1       1.285 -10.361   3.455  0.00  0.00    +0.008 A 
ATOM     31  C   UNL     1       1.032 -10.974   2.273  0.00  0.00    +0.045 A 
ATOM     32  S   UNL     1      -0.199  -9.899   1.555  0.00  0.00    -0.099 S 
ENDBRANCH  27  28
BRANCH  27  33
ATOM     33  C   UNL     1      -1.963  -7.520   4.235  0.00  0.00    +0.239 C 
ATOM     34  O   UNL     1      -3.174  -7.500   4.168  0.00  0.00    -0.273 OA
ATOM     35  N   UNL     1      -1.356  -7.597   5.436  0.00  0.00    -0.311 N 
ATOM     36  H   UNL     1      -0.388  -7.614   5.489  0.00  0.00    +0.149 HD
BRANCH  35  37
ATOM     37  C   UNL     1      -2.158  -7.656   6.660  0.00  0.00    +0.073 C 
ATOM     38  C   UNL     1      -2.523  -6.237   7.099  0.00  0.00    +0.022 C 
ATOM     39  C   UNL     1      -3.361  -6.298   8.378  0.00  0.00    +0.002 C 
ATOM     40  C   UNL     1      -2.555  -6.983   9.483  0.00  0.00    +0.000 C 
ATOM     41  C   UNL     1      -2.191  -8.402   9.044  0.00  0.00    +0.002 C 
ATOM     42  C   UNL     1      -1.353  -8.341   7.765  0.00  0.00    +0.022 C 
ENDBRANCH  35  37
ENDBRANCH  27  33
ENDBRANCH   3  27
TORSDOF 8
