REMARK  Name = ZINC36775303
REMARK  9 active torsions:
REMARK  status: ('A' for Active; 'I' for Inactive)
REMARK    1  A    between atoms: C_1  and  C_2
REMARK    2  A    between atoms: C_3  and  C_32
REMARK    3  A    between atoms: N_4  and  C_26
REMARK    4  A    between atoms: C_5  and  S_7
REMARK    5  A    between atoms: S_7  and  C_8
REMARK    6  A    between atoms: C_8  and  C_9
REMARK    7  A    between atoms: N_11  and  N_12
REMARK    8  A    between atoms: C_15  and  C_19
REMARK    9  A    between atoms: C_15  and  C_20
REMARK                            x       y       z     vdW  Elec       q    Type
REMARK                         _______ _______ _______ _____ _____    ______ ____
ROOT
ATOM      1  C   UNL     1       0.078  -3.839   4.466  0.00  0.00    +0.240 C 
ATOM      2  O   UNL     1       0.092  -4.997   4.108  0.00  0.00    -0.273 OA
ATOM      3  N   UNL     1       0.080  -3.539   5.780  0.00  0.00    -0.223 N 
ATOM      4  H   UNL     1       0.068  -2.613   6.066  0.00  0.00    +0.174 HD
ENDROOT
BRANCH   3   5
ATOM      5  N   UNL     1       0.099  -4.566   6.732  0.00  0.00    -0.137 N 
ATOM      6  C   UNL     1      -0.970  -4.944   7.460  0.00  0.00    +0.267 C 
ATOM      7  O   UNL     1      -2.088  -4.477   7.416  0.00  0.00    -0.271 OA
ATOM      8  C   UNL     1      -0.485  -6.075   8.345  0.00  0.00    +0.137 C 
ATOM      9  N   UNL     1       0.934  -6.217   7.979  0.00  0.00    -0.280 N 
ATOM     10  C   UNL     1       1.180  -5.298   7.028  0.00  0.00    +0.327 C 
ATOM     11  O   UNL     1       2.264  -5.146   6.498  0.00  0.00    -0.251 OA
ATOM     12  C   UNL     1      -0.625  -5.702   9.822  0.00  0.00    +0.047 C 
ATOM     13  H   UNL     1       1.568  -6.852   8.349  0.00  0.00    +0.152 HD
BRANCH   8  14
ATOM     14  C   UNL     1      -1.240  -7.345   8.044  0.00  0.00    -0.015 A 
ATOM     15  C   UNL     1      -2.543  -7.282   7.588  0.00  0.00    +0.006 A 
ATOM     16  C   UNL     1      -3.235  -8.447   7.311  0.00  0.00    +0.000 A 
ATOM     17  C   UNL     1      -2.624  -9.673   7.491  0.00  0.00    +0.000 A 
ATOM     18  C   UNL     1      -1.320  -9.736   7.947  0.00  0.00    +0.000 A 
ATOM     19  C   UNL     1      -0.627  -8.571   8.219  0.00  0.00    +0.006 A 
ENDBRANCH   8  14
ENDBRANCH   3   5
BRANCH   1  20
ATOM     20  C   UNL     1       0.057  -2.734   3.441  0.00  0.00    +0.174 C 
BRANCH  20  21
ATOM     21  S   UNL     1       0.059  -3.453   1.776  0.00  0.00    -0.080 S 
BRANCH  21  26
ATOM     22  C   UNL     1      -0.018   1.503   0.010  0.00  0.00    +0.065 C 
ATOM     23  C   UNL     1       0.002  -0.004   0.002  0.00  0.00    +0.034 A 
ATOM     24  C   UNL     1       0.008  -0.785  -1.092  0.00  0.00    +0.037 A 
ATOM     25  N   UNL     1       0.028  -2.090  -0.654  0.00  0.00    -0.321 N 
ATOM     26  C   UNL     1       0.034  -2.053   0.707  0.00  0.00    +0.148 A 
ATOM     27  N   UNL     1       0.024  -0.796   1.087  0.00  0.00    -0.338 N 
ATOM     28  C   UNL     1      -0.006  -0.320  -2.525  0.00  0.00    +0.065 C 
ATOM     29  H   UNL     1       0.028  -0.488   2.007  0.00  0.00    +0.168 HD
BRANCH  25  30
ATOM     30  C   UNL     1       0.041  -3.291  -1.493  0.00  0.00    +0.089 C 
ATOM     31  C   UNL     1      -1.195  -4.139  -1.187  0.00  0.00    +0.025 C 
ATOM     32  C   UNL     1      -1.182  -5.393  -2.064  0.00  0.00    +0.002 C 
ATOM     33  C   UNL     1       0.080  -6.207  -1.771  0.00  0.00    +0.000 C 
ATOM     34  C   UNL     1       1.316  -5.358  -2.077  0.00  0.00    +0.002 C 
ATOM     35  C   UNL     1       1.303  -4.104  -1.200  0.00  0.00    +0.025 C 
ENDBRANCH  25  30
ENDBRANCH  21  26
ENDBRANCH  20  21
ENDBRANCH   1  20
TORSDOF 6
