REMARK  Name = ZINC62041792
REMARK  10 active torsions:
REMARK  status: ('A' for Active; 'I' for Inactive)
REMARK    1  A    between atoms: C_1  and  C_2
REMARK    2  A    between atoms: C_9  and  C_26
REMARK    3  A    between atoms: C_10  and  C_11
REMARK    4  A    between atoms: C_11  and  C_12
REMARK    5  A    between atoms: N_14  and  C_15
REMARK    6  A    between atoms: C_17  and  N_23
REMARK    7  A    between atoms: C_20  and  O_21
REMARK    8  A    between atoms: O_21  and  C_22
REMARK    9  A    between atoms: C_29  and  C_33
REMARK   10  A    between atoms: C_30  and  C_32
REMARK                            x       y       z     vdW  Elec       q    Type
REMARK                         _______ _______ _______ _____ _____    ______ ____
ROOT
ATOM      1  C   UNL     1       0.011   1.515  -0.012  0.00  0.00    +0.044 C 
ATOM      2  C   UNL     1       0.024   0.008  -0.018  0.00  0.00    -0.046 A 
ATOM      3  C   UNL     1       0.031  -0.693  -1.236  0.00  0.00    +0.021 A 
ATOM      4  C   UNL     1       0.043  -2.042  -1.245  0.00  0.00    +0.093 A 
ATOM      5  N   UNL     1       0.047  -2.746  -0.074  0.00  0.00    -0.304 N 
ATOM      6  C   UNL     1       0.040  -2.090   1.130  0.00  0.00    +0.116 A 
ATOM      7  C   UNL     1       0.033  -0.680   1.155  0.00  0.00    +0.048 A 
ATOM      8  N   UNL     1       0.046  -2.995   2.097  0.00  0.00    -0.339 N 
ATOM      9  C   UNL     1       0.057  -4.222   1.550  0.00  0.00    +0.068 A 
ATOM     10  C   UNL     1       0.057  -4.086   0.195  0.00  0.00    +0.058 A 
ATOM     11  H   UNL     1       0.044  -2.804   3.047  0.00  0.00    +0.167 HD
ENDROOT
BRANCH   9  12
ATOM     12  C   UNL     1       0.067  -5.505   2.295  0.00  0.00    +0.000 A 
ATOM     13  C   UNL     1       0.932  -6.528   1.913  0.00  0.00    +0.010 A 
ATOM     14  C   UNL     1       0.937  -7.720   2.609  0.00  0.00    +0.004 A 
ATOM     15  C   UNL     1       0.085  -7.900   3.684  0.00  0.00    -0.047 A 
ATOM     16  C   UNL     1      -0.776  -6.888   4.067  0.00  0.00    -0.047 A 
ATOM     17  C   UNL     1      -0.785  -5.689   3.381  0.00  0.00    +0.013 A 
ATOM     18  C   UNL     1      -1.702  -7.091   5.239  0.00  0.00    +0.044 C 
ATOM     19  C   UNL     1       0.095  -9.203   4.440  0.00  0.00    +0.044 C 
ENDBRANCH   9  12
BRANCH  10  20
ATOM     20  C   UNL     1       0.068  -5.202  -0.818  0.00  0.00    +0.152 C 
BRANCH  20  21
ATOM     21  C   UNL     1       1.492  -5.563  -1.153  0.00  0.00    +0.223 C 
ATOM     22  O   UNL     1       2.408  -4.972  -0.622  0.00  0.00    -0.275 OA
ATOM     23  N   UNL     1       1.747  -6.543  -2.042  0.00  0.00    -0.282 N 
ATOM     24  H   UNL     1       1.018  -7.070  -2.406  0.00  0.00    +0.155 HD
BRANCH  23  25
ATOM     25  C   UNL     1       3.065  -6.801  -2.441  0.00  0.00    +0.078 A 
ATOM     26  C   UNL     1       4.023  -5.801  -2.365  0.00  0.00    +0.059 A 
ATOM     27  C   UNL     1       5.323  -6.058  -2.759  0.00  0.00    +0.128 A 
ATOM     28  C   UNL     1       5.672  -7.310  -3.230  0.00  0.00    +0.036 A 
ATOM     29  C   UNL     1       4.722  -8.312  -3.308  0.00  0.00    +0.050 A 
ATOM     30  C   UNL     1       3.419  -8.065  -2.909  0.00  0.00    +0.141 A 
BRANCH  27  31
ATOM     31  N   UNL     1       6.344  -4.989  -2.678  0.00  0.00    +0.056 N 
ATOM     32  O   UNL     1       6.040  -3.893  -2.268  0.00  0.00    -0.126 OA
ATOM     33  O   UNL     1       7.481  -5.212  -3.023  0.00  0.00    -0.126 OA
ENDBRANCH  27  31
BRANCH  30  34
ATOM     34  O   UNL     1       2.485  -9.051  -2.981  0.00  0.00    -0.493 OA
ATOM     35  C   UNL     1       2.919 -10.321  -3.471  0.00  0.00    +0.277 C 
ENDBRANCH  30  34
ENDBRANCH  23  25
ENDBRANCH  20  21
ENDBRANCH  10  20
TORSDOF 6
