REMARK  Name = ZINC27334332
REMARK  3 active torsions:
REMARK  status: ('A' for Active; 'I' for Inactive)
REMARK    1  A    between atoms: N_9  and  C_10
REMARK    2  A    between atoms: C_10  and  C_11
REMARK    3  A    between atoms: C_11  and  C_12
REMARK                            x       y       z     vdW  Elec       q    Type
REMARK                         _______ _______ _______ _____ _____    ______ ____
ROOT
ATOM      1  C   UNL     1      -1.335  -2.795  -1.980  0.00  0.00    +0.106 C 
ENDROOT
BRANCH   1  10
ATOM      2  C   UNL     1      -0.017   1.467   0.009  0.00  0.00    +0.137 C 
ATOM      3  C   UNL     1       1.431   1.971  -0.004  0.00  0.00    +0.179 C 
ATOM      4  O   UNL     1       2.158   1.340   1.052  0.00  0.00    -0.377 OA
ATOM      5  C   UNL     1       2.255  -0.081   0.929  0.00  0.00    +0.179 C 
ATOM      6  C   UNL     1       0.849  -0.690   0.991  0.00  0.00    +0.137 C 
ATOM      7  N   UNL     1       0.003  -0.004   0.001  0.00  0.00    -0.281 N 
ATOM      8  C   UNL     1      -0.732  -0.703  -0.886  0.00  0.00    +0.302 C 
ATOM      9  O   UNL     1      -1.494  -0.123  -1.636  0.00  0.00    -0.253 OA
ATOM     10  N   UNL     1      -0.622  -2.045  -0.943  0.00  0.00    -0.299 N 
ATOM     11  H   UNL     1      -0.071  -2.514  -0.298  0.00  0.00    +0.150 HD
ENDBRANCH   1  10
BRANCH   1  12
ATOM     12  C   UNL     1      -1.043  -4.288  -1.822  0.00  0.00    +0.025 C 
BRANCH  12  13
ATOM     13  C   UNL     1      -1.788  -5.072  -2.905  0.00  0.00    -0.027 C 
ATOM     14  C   UNL     1      -3.292  -4.829  -2.766  0.00  0.00    +0.010 C 
ATOM     15  C   UNL     1      -4.037  -5.612  -3.849  0.00  0.00    -0.010 C 
ATOM     16  C   UNL     1      -3.745  -7.105  -3.691  0.00  0.00    +0.007 C 
ATOM     17  C   UNL     1      -2.240  -7.348  -3.830  0.00  0.00    -0.010 C 
ATOM     18  C   UNL     1      -1.496  -6.565  -2.747  0.00  0.00    +0.010 C 
ATOM     19  C   UNL     1      -1.774  -6.880  -5.210  0.00  0.00    +0.007 C 
ATOM     20  C   UNL     1      -2.066  -5.387  -5.368  0.00  0.00    -0.010 C 
ATOM     21  C   UNL     1      -3.570  -5.144  -5.229  0.00  0.00    +0.007 C 
ATOM     22  C   UNL     1      -1.321  -4.604  -4.285  0.00  0.00    +0.010 C 
ENDBRANCH  12  13
ENDBRANCH   1  12
TORSDOF 3
