REMARK  Name = ZINC09549267
REMARK  7 active torsions:
REMARK  status: ('A' for Active; 'I' for Inactive)
REMARK    1  A    between atoms: C_1  and  C_2
REMARK    2  A    between atoms: C_2  and  C_4
REMARK    3  A    between atoms: C_2  and  N_15
REMARK    4  A    between atoms: N_15  and  C_16
REMARK    5  A    between atoms: C_19  and  N_22
REMARK    6  A    between atoms: N_22  and  S_23
REMARK    7  A    between atoms: S_23  and  C_26
REMARK                            x       y       z     vdW  Elec       q    Type
REMARK                         _______ _______ _______ _____ _____    ______ ____
ROOT
ATOM      1  C   UNL     1       4.231   1.818  -4.454  0.00  0.00    +0.028 A 
ATOM      2  C   UNL     1       4.457   0.477  -4.735  0.00  0.00    +0.025 A 
ATOM      3  C   UNL     1       4.055  -0.493  -3.838  0.00  0.00    +0.026 A 
ATOM      4  C   UNL     1       3.426  -0.128  -2.655  0.00  0.00    +0.048 A 
ATOM      5  C   UNL     1       3.196   1.212  -2.377  0.00  0.00    +0.026 A 
ATOM      6  C   UNL     1       3.602   2.183  -3.271  0.00  0.00    +0.025 A 
ENDROOT
BRANCH   1   7
ATOM      7  N   UNL     1       4.638   2.802  -5.363  0.00  0.00    -0.333 N 
ATOM      8  H   UNL     1       5.077   2.547  -6.189  0.00  0.00    +0.147 HD
BRANCH   7  10
ATOM      9  C   UNL     1       5.540   4.755  -4.199  0.00  0.00    +0.038 C 
ATOM     10  C   UNL     1       4.400   4.217  -5.066  0.00  0.00    +0.154 C 
BRANCH  10  11
ATOM     11  C   UNL     1       4.338   4.997  -6.354  0.00  0.00    +0.240 C 
ATOM     12  O   UNL     1       4.809   4.530  -7.369  0.00  0.00    -0.273 OA
ATOM     13  N   UNL     1       3.759   6.214  -6.378  0.00  0.00    -0.269 N 
ATOM     14  C   UNL     1       3.234   6.917  -5.204  0.00  0.00    +0.118 C 
ATOM     15  C   UNL     1       2.686   8.248  -5.744  0.00  0.00    +0.056 C 
ATOM     16  C   UNL     1       2.943   8.190  -7.233  0.00  0.00    -0.024 A 
ATOM     17  C   UNL     1       3.565   6.987  -7.527  0.00  0.00    +0.040 A 
ATOM     18  C   UNL     1       3.903   6.704  -8.851  0.00  0.00    +0.024 A 
ATOM     19  C   UNL     1       3.623   7.613  -9.849  0.00  0.00    +0.002 A 
ATOM     20  C   UNL     1       3.002   8.811  -9.546  0.00  0.00    +0.000 A 
ATOM     21  C   UNL     1       2.663   9.097  -8.237  0.00  0.00    +0.005 A 
ENDBRANCH  10  11
ENDBRANCH   7  10
ENDBRANCH   1   7
BRANCH   4  22
ATOM     22  N   UNL     1       3.019  -1.112  -1.747  0.00  0.00    -0.216 N 
ATOM     23  H   UNL     1       2.080  -1.345  -1.673  0.00  0.00    +0.174 HD
BRANCH  22  24
ATOM     24  S   UNL     1       4.139  -1.878  -0.798  0.00  0.00    +0.072 S 
ATOM     25  O   UNL     1       5.198  -2.274  -1.660  0.00  0.00    -0.150 OA
ATOM     26  O   UNL     1       3.425  -2.806   0.006  0.00  0.00    -0.150 OA
BRANCH  24  27
ATOM     27  C   UNL     1       4.807  -0.671   0.298  0.00  0.00    +0.112 A 
ATOM     28  C   UNL     1       4.151  -0.371   1.477  0.00  0.00    +0.032 A 
ATOM     29  C   UNL     1       4.671   0.576   2.338  0.00  0.00    +0.051 A 
ATOM     30  C   UNL     1       5.852   1.229   2.022  0.00  0.00    +0.162 A 
ATOM     31  C   UNL     1       6.513   0.926   0.838  0.00  0.00    +0.164 A 
ATOM     32  C   UNL     1       5.986  -0.025  -0.023  0.00  0.00    +0.078 A 
ATOM     33  O   UNL     1       7.679   1.549   0.511  0.00  0.00    -0.485 OA
ATOM     34  C   UNL     1       7.980   2.760   1.214  0.00  0.00    +0.270 C 
ATOM     35  C   UNL     1       7.724   2.524   2.709  0.00  0.00    +0.270 C 
ATOM     36  O   UNL     1       6.348   2.166   2.876  0.00  0.00    -0.485 OA
ENDBRANCH  24  27
ENDBRANCH  22  24
ENDBRANCH   4  22
TORSDOF 6
