REMARK  Name = ZINC35866489
REMARK  5 active torsions:
REMARK  status: ('A' for Active; 'I' for Inactive)
REMARK    1  A    between atoms: C_1  and  C_2
REMARK    2  A    between atoms: C_2  and  C_3
REMARK    3  A    between atoms: C_18  and  C_20
REMARK    4  A    between atoms: C_20  and  C_21
REMARK    5  A    between atoms: C_28  and  C_32
REMARK                            x       y       z     vdW  Elec       q    Type
REMARK                         _______ _______ _______ _____ _____    ______ ____
ROOT
ATOM      1  C   UNL     1      -0.924  -0.732  -0.820  0.00  0.00    +0.215 C 
ATOM      2  O   UNL     1      -0.079  -0.130  -0.191  0.00  0.00    -0.276 OA
ATOM      3  N   UNL     1      -0.785  -2.054  -1.042  0.00  0.00    -0.298 N 
ATOM      4  C   UNL     1      -1.797  -2.794  -1.807  0.00  0.00    +0.126 C 
ATOM      5  C   UNL     1      -1.104  -3.507  -2.975  0.00  0.00    +0.125 C 
ATOM      6  N   UNL     1       0.063  -4.234  -2.456  0.00  0.00    -0.312 N 
ATOM      7  C   UNL     1       1.075  -3.493  -1.690  0.00  0.00    +0.125 C 
ATOM      8  C   UNL     1       0.385  -2.780  -0.527  0.00  0.00    +0.126 C 
ATOM      9  C   UNL     1       0.205  -5.590  -2.684  0.00  0.00    +0.133 A 
ATOM     10  C   UNL     1       0.785  -6.061  -3.895  0.00  0.00    +0.051 A 
ATOM     11  C   UNL     1       1.293  -5.288  -5.029  0.00  0.00    -0.025 A 
ATOM     12  C   UNL     1       1.798  -5.985  -6.067  0.00  0.00    -0.004 A 
ATOM     13  S   UNL     1       1.631  -7.689  -5.606  0.00  0.00    -0.073 S 
ATOM     14  C   UNL     1       0.879  -7.462  -4.016  0.00  0.00    +0.114 A 
ATOM     15  N   UNL     1       0.454  -8.267  -3.061  0.00  0.00    -0.224 NA
ATOM     16  C   UNL     1      -0.076  -7.771  -1.960  0.00  0.00    +0.137 A 
ATOM     17  N   UNL     1      -0.190  -6.468  -1.776  0.00  0.00    -0.216 NA
ATOM     18  C   UNL     1       2.373  -5.434  -7.336  0.00  0.00    +0.046 C 
ATOM     19  C   UNL     1       1.969  -3.957  -7.451  0.00  0.00    -0.009 C 
ATOM     20  C   UNL     1       2.249  -3.267  -6.113  0.00  0.00    +0.008 C 
ATOM     21  C   UNL     1       1.261  -3.762  -5.056  0.00  0.00    +0.037 C 
ATOM     22  C   UNL     1       2.783  -3.287  -8.559  0.00  0.00    +0.008 C 
ENDROOT
BRANCH   1  24
ATOM     23  C   UNL     1      -2.043   1.477  -0.965  0.00  0.00    +0.013 C 
ATOM     24  C   UNL     1      -2.129  -0.001  -1.354  0.00  0.00    +0.092 C 
ENDBRANCH   1  24
BRANCH  16  25
ATOM     25  C   UNL     1      -0.555  -8.712  -0.884  0.00  0.00    +0.111 C 
BRANCH  25  26
ATOM     26  C   UNL     1       0.572  -8.991   0.077  0.00  0.00    -0.040 A 
ATOM     27  C   UNL     1       1.429 -10.051  -0.152  0.00  0.00    +0.004 A 
ATOM     28  C   UNL     1       2.463 -10.307   0.730  0.00  0.00    +0.000 A 
ATOM     29  C   UNL     1       2.638  -9.503   1.841  0.00  0.00    +0.000 A 
ATOM     30  C   UNL     1       1.781  -8.443   2.070  0.00  0.00    +0.000 A 
ATOM     31  C   UNL     1       0.750  -8.184   1.185  0.00  0.00    +0.004 A 
ENDBRANCH  25  26
ENDBRANCH  16  25
TORSDOF 3
