REMARK  Name = ZINC54200759
REMARK  10 active torsions:
REMARK  status: ('A' for Active; 'I' for Inactive)
REMARK    1  A    between atoms: C_1  and  C_2
REMARK    2  A    between atoms: C_3  and  N_15
REMARK    3  A    between atoms: N_6  and  C_9
REMARK    4  A    between atoms: N_7  and  C_8
REMARK    5  A    between atoms: C_16  and  C_18
REMARK    6  A    between atoms: C_18  and  C_19
REMARK    7  A    between atoms: C_19  and  C_21
REMARK    8  A    between atoms: C_19  and  N_27
REMARK    9  A    between atoms: N_27  and  S_28
REMARK   10  A    between atoms: S_28  and  C_31
REMARK                            x       y       z     vdW  Elec       q    Type
REMARK                         _______ _______ _______ _____ _____    ______ ____
ROOT
ATOM      1  C   UNL     1       0.551  -0.286  -4.890  0.00  0.00    +0.121 C 
ENDROOT
BRANCH   1   3
ATOM      2  N   UNL     1       0.104  -0.214  -2.458  0.00  0.00    -0.280 N 
ATOM      3  C   UNL     1       0.619  -0.884  -3.509  0.00  0.00    +0.219 C 
ATOM      4  O   UNL     1       1.137  -1.968  -3.341  0.00  0.00    -0.275 OA
ATOM      5  H   UNL     1      -0.245   0.683  -2.579  0.00  0.00    +0.155 HD
BRANCH   2   8
ATOM      6  C   UNL     1      -2.438  -0.677  -0.805  0.00  0.00    +0.067 C 
ATOM      7  C   UNL     1      -1.024  -1.036  -0.428  0.00  0.00    +0.059 A 
ATOM      8  C   UNL     1       0.074  -0.816  -1.185  0.00  0.00    +0.121 A 
ATOM      9  C   UNL     1       1.225  -1.319  -0.435  0.00  0.00    +0.293 A 
ATOM     10  O   UNL     1       2.389  -1.297  -0.793  0.00  0.00    -0.264 OA
ATOM     11  N   UNL     1       0.752  -1.812   0.728  0.00  0.00    -0.216 N 
ATOM     12  N   UNL     1      -0.637  -1.636   0.741  0.00  0.00    -0.282 N 
ATOM     13  C   UNL     1      -1.533  -2.032   1.830  0.00  0.00    +0.171 C 
BRANCH  11  14
ATOM     14  C   UNL     1       1.515  -2.394   1.745  0.00  0.00    +0.067 A 
ATOM     15  C   UNL     1       1.124  -3.603   2.305  0.00  0.00    +0.028 A 
ATOM     16  C   UNL     1       1.880  -4.175   3.309  0.00  0.00    +0.002 A 
ATOM     17  C   UNL     1       3.026  -3.544   3.758  0.00  0.00    +0.000 A 
ATOM     18  C   UNL     1       3.418  -2.340   3.203  0.00  0.00    +0.002 A 
ATOM     19  C   UNL     1       2.670  -1.766   2.194  0.00  0.00    +0.028 A 
ENDBRANCH  11  14
ENDBRANCH   2   8
ENDBRANCH   1   3
BRANCH   1  20
ATOM     20  C   UNL     1       1.202  -1.242  -5.892  0.00  0.00    +0.115 C 
BRANCH  20  21
ATOM     21  C   UNL     1       1.244  -0.593  -7.251  0.00  0.00    -0.028 A 
ATOM     22  C   UNL     1       0.113  -0.577  -8.046  0.00  0.00    +0.005 A 
ATOM     23  C   UNL     1       0.152   0.018  -9.292  0.00  0.00    +0.000 A 
ATOM     24  C   UNL     1       1.322   0.599  -9.745  0.00  0.00    +0.000 A 
ATOM     25  C   UNL     1       2.453   0.584  -8.950  0.00  0.00    +0.000 A 
ATOM     26  C   UNL     1       2.413  -0.008  -7.702  0.00  0.00    +0.005 A 
ENDBRANCH  20  21
BRANCH  20  27
ATOM     27  N   UNL     1       0.420  -2.479  -5.966  0.00  0.00    -0.182 NA
ATOM     28  H   UNL     1      -0.546  -2.448  -5.879  0.00  0.00    +0.149 HD
BRANCH  27  29
ATOM     29  S   UNL     1       1.184  -3.929  -6.198  0.00  0.00    +0.059 S 
ATOM     30  O   UNL     1       0.172  -4.926  -6.197  0.00  0.00    -0.153 OA
ATOM     31  O   UNL     1       2.075  -3.749  -7.291  0.00  0.00    -0.153 OA
BRANCH  29  32
ATOM     32  C   UNL     1       2.183  -4.225  -4.777  0.00  0.00    +0.105 A 
ATOM     33  C   UNL     1       3.488  -3.770  -4.744  0.00  0.00    +0.030 A 
ATOM     34  C   UNL     1       4.273  -4.001  -3.630  0.00  0.00    +0.022 A 
ATOM     35  C   UNL     1       3.752  -4.689  -2.548  0.00  0.00    +0.041 A 
ATOM     36  C   UNL     1       2.446  -5.144  -2.582  0.00  0.00    +0.022 A 
ATOM     37  C   UNL     1       1.661  -4.907  -3.695  0.00  0.00    +0.030 A 
ATOM     38 CL   UNL     1       4.737  -4.981  -1.149  0.00  0.00    -0.084 Cl
ENDBRANCH  29  32
ENDBRANCH  27  29
ENDBRANCH  20  27
ENDBRANCH   1  20
TORSDOF 8
