REMARK  Name = ZINC40317888
REMARK  9 active torsions:
REMARK  status: ('A' for Active; 'I' for Inactive)
REMARK    1  A    between atoms: C_10  and  C_11
REMARK    2  A    between atoms: C_11  and  N_12
REMARK    3  A    between atoms: N_12  and  C_13
REMARK    4  A    between atoms: N_12  and  C_27
REMARK    5  A    between atoms: C_13  and  C_14
REMARK    6  A    between atoms: C_14  and  C_16
REMARK    7  A    between atoms: C_14  and  O_26
REMARK    8  A    between atoms: C_16  and  O_17
REMARK    9  A    between atoms: O_17  and  C_18
REMARK                            x       y       z     vdW  Elec       q    Type
REMARK                         _______ _______ _______ _____ _____    ______ ____
ROOT
ATOM      1  N   UNL     1       5.231   0.383   1.298  0.00  0.00    +0.387 N 
ATOM      2  H   UNL     1       5.236  -0.510   1.768  0.00  0.00    -0.081 HD
ENDROOT
BRANCH   1   3
ATOM      3  C   UNL     1       4.122   1.199   1.810  0.00  0.00    -0.045 C 
ATOM      4  C   UNL     1       2.798   0.432   1.655  0.00  0.00    +0.009 C 
ATOM      5  C   UNL     1       1.603   1.389   1.887  0.00  0.00    +0.164 C 
ATOM      6  S   UNL     1       2.287   3.019   1.379  0.00  0.00    -0.033 S 
ATOM      7  O   UNL     1       2.299   3.886   2.505  0.00  0.00    -0.174 OA
ATOM      8  O   UNL     1       1.645   3.436   0.182  0.00  0.00    -0.174 OA
ATOM      9  C   UNL     1       4.016   2.517   0.990  0.00  0.00    +0.151 C 
ENDBRANCH   1   3
BRANCH   1  10
ATOM     10  C   UNL     1       5.059   0.175  -0.146  0.00  0.00    -0.042 C 
BRANCH  10  20
ATOM     11  C   UNL     1       5.792  -4.884   0.114  0.00  0.00    +0.001 A 
ATOM     12  C   UNL     1       4.813  -4.010   0.583  0.00  0.00    +0.001 A 
ATOM     13  C   UNL     1       4.897  -2.672   0.346  0.00  0.00    +0.009 A 
ATOM     14  C   UNL     1       5.987  -2.161  -0.380  0.00  0.00    -0.017 A 
ATOM     15  C   UNL     1       6.982  -3.050  -0.856  0.00  0.00    -0.018 A 
ATOM     16  C   UNL     1       6.861  -4.426  -0.593  0.00  0.00    +0.008 A 
ATOM     17  C   UNL     1       8.072  -2.540  -1.582  0.00  0.00    +0.008 A 
ATOM     18  C   UNL     1       8.156  -1.202  -1.818  0.00  0.00    +0.001 A 
ATOM     19  C   UNL     1       7.177  -0.328  -1.349  0.00  0.00    +0.002 A 
ATOM     20  C   UNL     1       6.108  -0.786  -0.643  0.00  0.00    -0.056 A 
ENDBRANCH  10  20
ENDBRANCH   1  10
BRANCH   1  21
ATOM     21  C   UNL     1       6.503   1.075   1.546  0.00  0.00    -0.043 C 
BRANCH  21  22
ATOM     22  C   UNL     1       6.756   1.153   3.053  0.00  0.00    +0.135 C 
BRANCH  22  23
ATOM     23  O   UNL     1       6.917  -0.167   3.577  0.00  0.00    -0.390 OA
ATOM     24  H   UNL     1       7.654  -0.657   3.189  0.00  0.00    +0.210 HD
ENDBRANCH  22  23
BRANCH  22  25
ATOM     25  C   UNL     1       8.026   1.964   3.315  0.00  0.00    +0.258 C 
BRANCH  25  26
ATOM     26  O   UNL     1       8.199   2.135   4.723  0.00  0.00    -0.488 OA
BRANCH  26  27
ATOM     27  C   UNL     1       9.289   2.840   5.130  0.00  0.00    +0.139 A 
ATOM     28  C   UNL     1      10.169   3.359   4.193  0.00  0.00    +0.048 A 
ATOM     29  C   UNL     1      11.276   4.074   4.608  0.00  0.00    +0.023 A 
ATOM     30  C   UNL     1      11.507   4.273   5.957  0.00  0.00    +0.043 A 
ATOM     31  C   UNL     1      10.630   3.756   6.894  0.00  0.00    +0.043 A 
ATOM     32  C   UNL     1       9.518   3.044   6.483  0.00  0.00    +0.084 A 
ATOM     33 CL   UNL     1       8.415   2.401   7.659  0.00  0.00    -0.080 Cl
ATOM     34 CL   UNL     1      12.899   5.172   6.476  0.00  0.00    -0.083 Cl
ENDBRANCH  26  27
ENDBRANCH  25  26
ENDBRANCH  22  25
ENDBRANCH  21  22
ENDBRANCH   1  21
TORSDOF 9
