REMARK  Name = ZINC13733566
REMARK  6 active torsions:
REMARK  status: ('A' for Active; 'I' for Inactive)
REMARK    1  A    between atoms: C_1  and  C_2
REMARK    2  A    between atoms: C_2  and  C_3
REMARK    3  A    between atoms: C_8  and  N_9
REMARK    4  A    between atoms: C_37  and  C_39
REMARK    5  A    between atoms: C_39  and  C_40
REMARK    6  A    between atoms: C_39  and  C_41
REMARK                            x       y       z     vdW  Elec       q    Type
REMARK                         _______ _______ _______ _____ _____    ______ ____
ROOT
ATOM      1  N   UNL     1      -1.204   0.083  -1.653  0.00  0.00    -0.210 N 
ATOM      2  C   UNL     1      -0.712  -0.827  -2.501  0.00  0.00    +0.232 C 
ATOM      3  O   UNL     1      -0.620  -2.015  -2.277  0.00  0.00    -0.274 OA
ATOM      4  C   UNL     1      -0.290  -0.145  -3.782  0.00  0.00    +0.107 C 
ATOM      5  C   UNL     1      -0.615   1.351  -3.515  0.00  0.00    +0.121 C 
ATOM      6  C   UNL     1      -1.206   1.336  -2.123  0.00  0.00    +0.233 C 
ATOM      7  O   UNL     1      -1.614   2.308  -1.525  0.00  0.00    -0.274 OA
ATOM      8  C   UNL     1       0.752   2.047  -3.506  0.00  0.00    +0.118 C 
ATOM      9  C   UNL     1       1.045   2.709  -4.820  0.00  0.00    +0.005 A 
ATOM     10  C   UNL     1       1.151   2.242  -6.113  0.00  0.00    +0.008 A 
ATOM     11  C   UNL     1       1.439   3.118  -7.144  0.00  0.00    +0.000 A 
ATOM     12  C   UNL     1       1.621   4.462  -6.876  0.00  0.00    +0.002 A 
ATOM     13  C   UNL     1       1.517   4.934  -5.584  0.00  0.00    +0.026 A 
ATOM     14  C   UNL     1       1.226   4.058  -4.540  0.00  0.00    +0.057 A 
ATOM     15  N   UNL     1       1.073   4.303  -3.166  0.00  0.00    -0.262 N 
ATOM     16  C   UNL     1       0.789   3.156  -2.484  0.00  0.00    +0.143 A 
ATOM     17  N   UNL     1       0.603   3.123  -1.196  0.00  0.00    -0.231 NA
ATOM     18  C   UNL     1       0.671   4.237  -0.429  0.00  0.00    +0.078 A 
ATOM     19  C   UNL     1       0.463   4.194   0.951  0.00  0.00    +0.028 A 
ATOM     20  C   UNL     1       0.541   5.354   1.689  0.00  0.00    +0.002 A 
ATOM     21  C   UNL     1       0.824   6.568   1.078  0.00  0.00    +0.001 A 
ATOM     22  C   UNL     1       1.033   6.636  -0.282  0.00  0.00    +0.015 A 
ATOM     23  C   UNL     1       0.959   5.474  -1.048  0.00  0.00    +0.065 A 
ATOM     24  C   UNL     1       1.171   5.483  -2.500  0.00  0.00    +0.266 A 
ATOM     25  O   UNL     1       1.427   6.517  -3.090  0.00  0.00    -0.267 OA
ATOM     26  N   UNL     1       1.739   0.998  -3.192  0.00  0.00    -0.296 NA
ATOM     27  C   UNL     1       1.246  -0.215  -3.916  0.00  0.00    +0.070 C 
ATOM     28  H   UNL     1       2.660   1.262  -3.508  0.00  0.00    +0.123 HD
ENDROOT
BRANCH   1  34
ATOM     29  C   UNL     1      -3.040  -0.462  -0.179  0.00  0.00    -0.026 A 
ATOM     30  C   UNL     1      -3.509  -0.794   1.077  0.00  0.00    +0.005 A 
ATOM     31  C   UNL     1      -2.628  -0.910   2.137  0.00  0.00    +0.000 A 
ATOM     32  C   UNL     1      -1.276  -0.693   1.943  0.00  0.00    +0.002 A 
ATOM     33  C   UNL     1      -0.801  -0.360   0.689  0.00  0.00    +0.024 A 
ATOM     34  C   UNL     1      -1.683  -0.249  -0.378  0.00  0.00    +0.047 A 
BRANCH  29  36
ATOM     35  C   UNL     1      -4.067  -1.665  -2.088  0.00  0.00    +0.009 C 
ATOM     36  C   UNL     1      -4.000  -0.336  -1.333  0.00  0.00    +0.033 C 
ENDBRANCH  29  36
ENDBRANCH   1  34
BRANCH  27  37
ATOM     37  C   UNL     1       1.777  -1.503  -3.284  0.00  0.00    +0.001 C 
ATOM     38  C   UNL     1       1.278  -2.708  -4.084  0.00  0.00    +0.009 C 
ATOM     39  C   UNL     1       3.307  -1.483  -3.294  0.00  0.00    +0.009 C 
ENDBRANCH  27  37
TORSDOF 3
