REMARK  Name = ZINC39846254
REMARK  10 active torsions:
REMARK  status: ('A' for Active; 'I' for Inactive)
REMARK    1  A    between atoms: C_1  and  C_2
REMARK    2  A    between atoms: C_2  and  C_3
REMARK    3  A    between atoms: C_2  and  C_4
REMARK    4  A    between atoms: C_7  and  N_10
REMARK    5  A    between atoms: C_11  and  C_13
REMARK    6  A    between atoms: C_16  and  C_30
REMARK    7  A    between atoms: C_17  and  C_18
REMARK    8  A    between atoms: C_17  and  C_19
REMARK    9  A    between atoms: C_23  and  C_28
REMARK   10  A    between atoms: C_24  and  C_26
REMARK                            x       y       z     vdW  Elec       q    Type
REMARK                         _______ _______ _______ _____ _____    ______ ____
ROOT
ATOM      1  C   UNL     1      -7.236  -3.087  -1.052  0.00  0.00    +0.097 C 
ATOM      2  C   UNL     1      -8.293  -1.938  -1.051  0.00  0.00    +0.024 C 
ATOM      3  C   UNL     1      -9.588  -2.619  -1.552  0.00  0.00    +0.015 C 
ATOM      4  C   UNL     1      -9.167  -4.102  -1.799  0.00  0.00    +0.018 C 
ATOM      5  C   UNL     1      -7.698  -3.894  -2.320  0.00  0.00    -0.005 C 
ATOM      6  C   UNL     1      -6.929  -5.206  -2.487  0.00  0.00    +0.013 C 
ATOM      7  C   UNL     1      -7.666  -3.045  -3.593  0.00  0.00    +0.013 C 
ATOM      8  C   UNL     1      -8.878  -4.649  -0.399  0.00  0.00    +0.072 A 
ATOM      9  C   UNL     1      -7.689  -4.045   0.052  0.00  0.00    +0.080 A 
ATOM     10  N   UNL     1      -7.190  -4.330   1.232  0.00  0.00    -0.236 NA
ATOM     11  C   UNL     1      -7.801  -5.223   2.010  0.00  0.00    +0.176 A 
ATOM     12  C   UNL     1      -8.975  -5.853   1.560  0.00  0.00    +0.176 A 
ATOM     13  N   UNL     1      -9.506  -5.521   0.353  0.00  0.00    -0.236 NA
ATOM     14  C   UNL     1     -10.097  -4.930  -2.687  0.00  0.00    +0.018 C 
ENDROOT
BRANCH   1  16
ATOM     15  N   UNL     1      -5.320  -1.968   0.042  0.00  0.00    -0.285 N 
ATOM     16  C   UNL     1      -5.790  -2.663  -1.013  0.00  0.00    +0.230 C 
ATOM     17  O   UNL     1      -5.050  -2.946  -1.931  0.00  0.00    -0.274 OA
ATOM     18  H   UNL     1      -5.891  -1.807   0.810  0.00  0.00    +0.155 HD
BRANCH  15  22
ATOM     19  C   UNL     1      -1.418  -0.509   0.005  0.00  0.00    -0.045 A 
ATOM     20  C   UNL     1      -2.137  -0.586  -1.174  0.00  0.00    +0.006 A 
ATOM     21  C   UNL     1      -3.431  -1.069  -1.165  0.00  0.00    +0.023 A 
ATOM     22  C   UNL     1      -4.010  -1.478   0.030  0.00  0.00    +0.033 A 
ATOM     23  C   UNL     1      -3.284  -1.400   1.212  0.00  0.00    +0.023 A 
ATOM     24  C   UNL     1      -1.989  -0.920   1.195  0.00  0.00    +0.006 A 
BRANCH  19  26
ATOM     25  C   UNL     1       0.857  -0.857  -0.919  0.00  0.00    +0.012 C 
ATOM     26  C   UNL     1      -0.007   0.019  -0.008  0.00  0.00    +0.013 C 
ATOM     27  C   UNL     1      -0.005   1.457  -0.532  0.00  0.00    +0.012 C 
ENDBRANCH  19  26
ENDBRANCH  15  22
ENDBRANCH   1  16
BRANCH  12  28
ATOM     28  C   UNL     1      -9.637  -6.815   2.389  0.00  0.00    +0.122 C 
ATOM     29  N   UNL     1     -10.163  -7.578   3.046  0.00  0.00    -0.189 NA
ENDBRANCH  12  28
BRANCH  11  30
ATOM     30  C   UNL     1      -7.263  -5.540   3.299  0.00  0.00    +0.122 C 
ATOM     31  N   UNL     1      -6.837  -5.792   4.321  0.00  0.00    -0.189 NA
ENDBRANCH  11  30
TORSDOF 5
