REMARK  Name = ZINC09807612
REMARK  9 active torsions:
REMARK  status: ('A' for Active; 'I' for Inactive)
REMARK    1  A    between atoms: C_1  and  C_2
REMARK    2  A    between atoms: C_2  and  O_3
REMARK    3  A    between atoms: O_3  and  C_4
REMARK    4  A    between atoms: C_4  and  C_6
REMARK    5  A    between atoms: C_12  and  C_14
REMARK    6  A    between atoms: C_12  and  C_21
REMARK    7  A    between atoms: C_12  and  N_56
REMARK    8  A    between atoms: C_22  and  O_34
REMARK    9  A    between atoms: C_27  and  C_29
REMARK                            x       y       z     vdW  Elec       q    Type
REMARK                         _______ _______ _______ _____ _____    ______ ____
ROOT
ATOM      1  C   UNL     1      -0.740   1.453   8.533  0.00  0.00    +0.007 C 
ENDROOT
BRANCH   1   2
ATOM      2  C   UNL     1      -0.970   2.942   8.493  0.00  0.00    +0.045 A 
ATOM      3  C   UNL     1      -2.087   3.630   8.758  0.00  0.00    +0.225 A 
ATOM      4  N   UNL     1      -2.102   5.001   8.669  0.00  0.00    -0.173 N 
ATOM      5  C   UNL     1      -0.939   5.615   8.292  0.00  0.00    +0.199 A 
ATOM      6  S   UNL     1       0.173   4.247   8.071  0.00  0.00    -0.050 S 
ATOM      7  N   UNL     1      -1.116   6.906   8.250  0.00  0.00    -0.197 NA
ATOM      8  C   UNL     1      -2.380   7.191   8.592  0.00  0.00    +0.218 A 
ATOM      9  N   UNL     1      -3.017   6.070   8.855  0.00  0.00    -0.138 NA
BRANCH   8  10
ATOM     10  C   UNL     1      -2.965   8.546   8.662  0.00  0.00    +0.173 A 
ATOM     11  C   UNL     1      -2.316   9.710   8.392  0.00  0.00    +0.053 A 
ATOM     12  C   UNL     1      -3.249  10.749   8.584  0.00  0.00    +0.042 A 
ATOM     13  C   UNL     1      -4.409  10.174   8.958  0.00  0.00    +0.196 A 
ATOM     14  O   UNL     1      -4.235   8.843   8.999  0.00  0.00    -0.460 OA
ENDBRANCH   8  10
BRANCH   3  15
ATOM     15  O   UNL     1      -3.216   2.966   9.122  0.00  0.00    -0.492 OA
ATOM     16  H   UNL     1      -3.305   2.834  10.076  0.00  0.00    +0.294 HD
ENDBRANCH   3  15
ENDBRANCH   1   2
BRANCH   1  22
ATOM     17  C   UNL     1       0.667  -0.868   5.923  0.00  0.00    +0.081 C 
ATOM     18  C   UNL     1      -0.136  -0.376   4.716  0.00  0.00    +0.011 C 
ATOM     19  C   UNL     1      -0.298   1.144   4.806  0.00  0.00    -0.018 C 
ATOM     20  C   UNL     1      -0.988   1.500   6.125  0.00  0.00    -0.077 C 
ATOM     21  C   UNL     1      -0.050  -0.453   7.210  0.00  0.00    -0.063 C 
ATOM     22  N   UNL     1      -0.153   1.021   7.248  0.00  0.00    +0.388 N 
ATOM     23  H   UNL     1       0.787   1.423   7.159  0.00  0.00    -0.080 HD
BRANCH  17  24
ATOM     24  C   UNL     1       0.782  -2.370   5.873  0.00  0.00    +0.308 C 
ATOM     25  O   UNL     1       0.336  -3.040   6.774  0.00  0.00    -0.251 OA
BRANCH  24  26
ATOM     26  O   UNL     1       1.379  -2.963   4.827  0.00  0.00    -0.465 OA
BRANCH  26  28
ATOM     27  C   UNL     1       2.163  -4.903   3.582  0.00  0.00    +0.048 C 
ATOM     28  C   UNL     1       1.454  -4.413   4.846  0.00  0.00    +0.229 C 
ENDBRANCH  26  28
ENDBRANCH  24  26
ENDBRANCH  17  24
ENDBRANCH   1  22
BRANCH   1  29
ATOM     29  C   UNL     1       0.225   1.124   9.643  0.00  0.00    -0.038 A 
ATOM     30  C   UNL     1       1.580   1.045   9.379  0.00  0.00    +0.004 A 
ATOM     31  C   UNL     1       2.466   0.748  10.398  0.00  0.00    +0.000 A 
ATOM     32  C   UNL     1       1.997   0.519  11.678  0.00  0.00    +0.001 A 
ATOM     33  C   UNL     1       0.642   0.592  11.941  0.00  0.00    +0.020 A 
ATOM     34  C   UNL     1      -0.245   0.895  10.923  0.00  0.00    +0.043 A 
ATOM     35 CL   UNL     1      -1.946   0.987  11.253  0.00  0.00    -0.083 Cl
ENDBRANCH   1  29
TORSDOF 8
